60


C     2.1085230    2.9397410   -0.2088690  
C     1.7569460    4.2393330    0.1088880  
C     0.3779830    4.2396200    0.4773730  
C    -0.0838870    2.9006810    0.3649850  
N     0.9908110    2.1246830   -0.0233540  
C    -1.4237500    2.5214550    0.6132520  
C    -2.2843190    3.5446760    1.0180560  
O    -3.5876370    3.2609280    1.3099640  
C    -1.8303350    4.8831360    1.1518400  
O    -2.8169130    5.7563480    1.5678580  
C    -0.5232170    5.2420500    0.8910690  
H     2.4340660    5.0822840    0.1225570  
H     0.9172820    1.1786310   -0.3789530  
H    -4.0134300    4.0991810    1.5634440  
H    -2.4561840    6.6534920    1.6234540  
H    -0.2017970    6.2761250    0.9948880  
C    -1.1239360    0.0436170    0.8183150  
C    -1.8490360    1.1256190    0.4290140  
C    -2.9958090    0.6005410   -0.3130830  
C    -2.8401370   -0.8748520   -0.3401550  
N    -1.6881850   -1.1691880    0.3939820  
C    -3.6732020   -1.7221380   -0.9981050  
C    -4.8260870   -1.1622160   -1.7008400  
O    -5.6322270   -1.8527700   -2.3050650  
C    -5.0248780    0.3931880   -1.6615910  
O    -5.9897690    0.8812450   -2.2276820  
C    -4.0325590    1.2038100   -0.9466090  
H    -3.5150170   -2.7928560   -1.0618260  
H    -4.1708870    2.2779360   -0.9383810  
H    -0.2219430    0.0181480    1.4106540  
C    -2.8104740   -5.2304940    1.5551220  
C    -1.6605700   -5.8656920    1.2180810  
C    -0.7447040   -4.8651470    0.7083770  
C    -1.4757050   -3.5773950    0.7792670  
N    -2.7105740   -3.8593710    1.3077210  
C    -0.9591480   -2.3763220    0.3728590  
C     0.4137090   -2.3616320   -0.1411490  
O     0.9749170   -1.3377500   -0.5125890  
C     1.2010220   -3.7223360   -0.2135220  
O     2.3406210   -3.7019310   -0.6472970  
C     0.5319880   -4.9378320    0.2436870  
H    -1.4579930   -6.9221850    1.3139760  
H     1.0841710   -5.8700090    0.1848150  
H    -3.7253440   -5.6324590    1.9690460  
H    -3.4598030   -3.1904060    1.4053240  
C     4.3442120    2.9806490   -1.4078510  
C     3.3760700    2.3978580   -0.6412200  
C     3.9367820    1.0702780   -0.3048670  
C     5.2512080    1.0410650   -0.9988890  
N     5.4826910    2.1643700   -1.6262300  
C     6.1133050   -0.1088130   -0.9245880  
C     5.7106330   -1.1596390   -0.1679520  
O     6.4171650   -2.2928430   -0.0115090  
C     4.4224340   -1.1285300    0.5995900  
O     4.1458570   -2.0922190    1.3121280  
C     3.5467780    0.0584460    0.4898430  
H     7.0572830   -0.1132610   -1.4583660  
H     5.8736920   -2.8563720    0.5813440  
H     2.6253070    0.0412750    1.0591970  
H     4.3122310    3.9625980   -1.8644260  
