58


C    -5.3507410   -0.2626440    0.1719960  
C    -6.1262830   -0.8215650    1.1486640  
C    -7.4868750   -0.4241190    0.8384240  
C    -7.3528500    0.3895880   -0.4115060  
N    -6.1142030    0.4867830   -0.7935730  
C    -8.5035740    0.9620290   -1.0633290  
C    -9.7164360    0.7549870   -0.4983920  
O   -10.8682320    1.2322780   -0.9906870  
C    -9.8800760   -0.0504930    0.7674600  
O   -11.0180050   -0.1895610    1.2107710  
C    -8.6902770   -0.6362460    1.4121490  
H    -5.7989960   -1.3900180    2.0076870  
H    -8.3802480    1.5433960   -1.9700780  
H   -11.5678620    0.9230330   -0.3737130  
H    -8.8502250   -1.2159770    2.3161800  
C    -2.3872550   -3.5417280    0.6618010  
C    -3.5551820   -2.8582640    0.6127160  
C    -3.1863140   -1.4978150    0.2540310  
C    -1.6968140   -1.5473930    0.1073370  
N    -1.2456810   -2.7430420    0.3556340  
C    -0.8967190   -0.3804260   -0.2707860  
C    -1.6278560    0.7503540   -0.5224850  
O    -1.0872130    1.9164830   -0.9236210  
C    -3.1145200    0.8396320   -0.3662300  
O    -3.6236120    1.9428170   -0.5499760  
C    -3.9038840   -0.3640760    0.0303870  
H    -4.5546420   -3.2316510    0.7788890  
H    -1.8512260    2.5346120   -1.0001770  
H    -2.2348730   -4.5895860    0.8906430  
C     1.2624460   -1.6262210   -0.6652950  
C     0.5531890   -0.4883820   -0.3899470  
C     1.6000490    0.5423920   -0.2016400  
C     2.8830230   -0.1850740   -0.4406030  
N     2.6622310   -1.4411560   -0.7089880  
C     4.2001900    0.4536290   -0.3455710  
C     4.1721780    1.7766710    0.0129180  
O     5.2689820    2.5554300    0.1200510  
C     2.9126120    2.5116730    0.3023870  
O     3.0029330    3.7019350    0.6179200  
C     1.6099490    1.8292810    0.1877160  
H     4.9190080    3.4399350    0.3765560  
H     0.7252640    2.4168960    0.3931060  
H     0.8609110   -2.6139420   -0.8335120  
C     5.4991710   -1.4037150   -1.4614560  
C     5.4061150   -0.3110990   -0.6370900  
C     6.7819390   -0.1496520   -0.1107280  
C     7.5522580   -1.2454720   -0.7745820  
N     6.7942550   -1.9585890   -1.5631330  
C     8.9532520   -1.4580280   -0.5306810  
C     9.5707060   -0.6471860    0.3608350  
O    10.8668830   -0.7334410    0.6968140  
C     8.8193030    0.4416050    1.0747680  
O     9.4434940    1.1308000    1.8799530  
C     7.3835030    0.6486190    0.7929420  
H     9.4732920   -2.2583680   -1.0452080  
H    11.0102500   -0.0227700    1.3605320  
H     6.8939790    1.4600350    1.3151040  
H     4.6919490   -1.8626580   -2.0126470  
