58


C    -1.2518530    1.6172400    0.1316260  
C    -2.0800070    0.5892810   -0.2274340  
C    -3.4219300    0.9614890    0.1412460  
C    -3.3208120    2.3156430    0.7234350  
N    -1.9778500    2.6760950    0.6696540  
C    -4.3540790    3.0483830    1.2085810  
C    -5.6897540    2.4857040    1.0984360  
O    -6.6931610    3.0414220    1.5146410  
C    -5.8526810    1.0969480    0.3780900  
O    -6.9847390    0.6995930    0.1691970  
C    -4.6373340    0.3196960   -0.0060180  
H    -1.7837510   -0.2896780   -0.7773150  
H    -4.2378060    4.0350660    1.6453570  
H    -1.5721020    3.3936290    1.2534110  
C     0.9578820    0.5680650    0.1322620  
C     2.2782770    0.8915940   -0.0060840  
C     2.3296210    2.3427900   -0.2250460  
C     0.9289190    2.8197490   -0.2134320  
N     0.1291360    1.6854340    0.0316110  
C     0.5491600    4.0991920   -0.4459010  
C     1.5948730    5.1024330   -0.6747790  
O     1.3396250    6.2760850   -0.8845430  
C     3.0867440    4.6280940   -0.6444410  
O     3.9735830    5.4480390   -0.8071230  
C     3.3606450    3.1987010   -0.4289340  
H    -0.4820210    4.4270910   -0.5018410  
H     4.3873910    2.8544620   -0.4427850  
H     0.5096420   -0.3934830    0.3390310  
C     3.3863140   -0.0312670    0.0762800  
C     3.3618530   -1.3906960    0.2595840  
C     4.7397880   -1.8080610    0.2666520  
C     5.5132250   -0.5356550    0.0668460  
N     4.7206800    0.4905390   -0.0428370  
C     6.9504630   -0.5233450    0.0131760  
C     7.5901210   -1.7090550    0.1504470  
O     8.9182470   -1.8559180    0.1224030  
C     6.8385720   -3.0113690    0.3538530  
O     7.5163360   -4.0318460    0.4675530  
C     5.3746100   -2.9974940    0.4048180  
H     2.5012950   -2.0352660    0.3758680  
H     7.4847280    0.4087990   -0.1322400  
H     9.0772820   -2.8194490    0.2469410  
H     4.8709340   -3.9476900    0.5520880  
C    -5.8622620   -1.5268110   -1.2400470  
C    -4.8122130   -1.0297190   -0.5084010  
C    -3.9539910   -2.2159770   -0.2787320  
C    -4.6498980   -3.3197340   -1.0071860  
N    -5.7555260   -2.9010030   -1.5602820  
C    -4.1367500   -4.6617430   -1.0271880  
C    -3.0071480   -4.9221590   -0.3240500  
O    -2.4191290   -6.1269990   -0.2580230  
C    -2.3097140   -3.8487250    0.4582970  
O    -1.2793600   -4.1471840    1.0621400  
C    -2.8631720   -2.4783210    0.4664360  
H    -4.6624510   -5.4314290   -1.5812470  
H    -1.6367640   -6.0085520    0.3232470  
H    -2.3419080   -1.7472330    1.0748270  
H    -6.7255810   -0.9784740   -1.5866930  
