64


C    -1.5536000   -0.1497130    1.0547310  
C    -2.9206820   -0.0514860    0.8788100  
C    -3.1524240    1.2369170    0.2563980  
C    -1.8888180    1.8529010    0.0855840  
N    -0.9192760    0.9842060    0.5837480  
C    -1.7313300    3.1169210   -0.4915290  
C    -2.8782630    3.7848860   -0.8899590  
O    -2.7832950    5.0214690   -1.4584770  
C    -4.1574570    3.1984060   -0.7020960  
O    -5.2039940    3.9923270   -1.1293940  
C    -4.3061160    1.9459280   -0.1348060  
H    -0.7616330    3.5836790   -0.6158920  
H    -3.6889830    5.3226570   -1.6460340  
H    -6.0447760    3.5456690   -0.9509780  
H    -5.2988290    1.5284700    0.0142090  
H    -0.9741330   -0.9567250    1.4806970  
C     2.0656960   -1.2978400   -1.6255920  
C     3.1812350   -0.6104760   -1.2027960  
C     2.7006930    0.4219860   -0.3100710  
C     1.2917850    0.2942100   -0.2421040  
N     0.9286640   -0.7569770   -1.0524750  
C     0.4905700    1.1570600    0.5279810  
C     1.1309130    2.1731090    1.2349370  
O     0.4055350    3.0291980    2.0054030  
C     2.5402020    2.3223400    1.1487370  
O     3.0238890    3.3811230    1.8948620  
C     3.3251590    1.4686500    0.3968650  
H    -0.0177100   -1.0701000   -1.2039370  
H     1.0307970    3.6734530    2.3815460  
H     3.9755810    3.4760240    1.7414420  
H     4.4023800    1.6067930    0.3452430  
H     1.9979880   -2.1545230   -2.2809820  
C     5.0307260   -1.0181700   -2.8892790  
C     4.5677830   -0.8639160   -1.6016870  
C     5.7191690   -1.0183810   -0.7390220  
C     6.8423000   -1.2609070   -1.5708950  
N     6.3907200   -1.2619710   -2.8754530  
C     8.1302970   -1.4703660   -1.0614930  
C     8.2867930   -1.4416580    0.3155320  
O     9.5210420   -1.6407360    0.8658120  
C     7.1717740   -1.2135260    1.1647220  
O     7.4853830   -1.2194900    2.5132810  
C     5.9020590   -1.0059010    0.6586350  
H     6.9679670   -1.3853170   -3.6920860  
H     8.9913680   -1.6588060   -1.6948310  
H     9.4095100   -1.6171370    1.8318550  
H     6.6680090   -1.1908830    3.0321060  
H     5.0604220   -0.8418370    1.3279030  
H     4.4902380   -0.9504530   -3.8229520  
C    -3.8679910   -1.8433450    2.4061320  
C    -3.8817270   -1.0599560    1.2901990  
C    -5.0627220   -1.5451290    0.5333880  
C    -5.6318380   -2.6233100    1.3879270  
N    -4.9253310   -2.7932190    2.4713850  
C    -6.8062910   -3.3567240    0.9935500  
C    -7.3687190   -3.0635540   -0.2042320  
O    -8.4644550   -3.6733990   -0.6962650  
C    -6.7967440   -2.0108970   -1.1022990  
O    -7.3606660   -1.7955660   -2.1764500  
C    -5.5931520   -1.2650410   -0.6718910  
H    -7.2063680   -4.1271860    1.6436720  
H    -8.6223950   -3.2520610   -1.5690190  
H    -5.2043970   -0.5165300   -1.3552150  
H    -3.1616730   -1.7969920    3.2263510  
