64


C    -1.9092320    0.0818730    1.2399150  
C    -3.2427950    0.0654140    0.8807010  
C    -3.4359260    1.2034260    0.0039470  
C    -2.1843300    1.8534720   -0.1215850  
N    -1.2587860    1.1490890    0.6471490  
C    -1.9975920    2.9984020   -0.9025320  
C    -3.1050620    3.5119880   -1.5583990  
O    -2.9803230    4.6278110   -2.3327910  
C    -4.3757340    2.8929010   -1.4236510  
O    -5.3838410    3.5310260   -2.1191490  
C    -4.5525390    1.7577690   -0.6538150  
H    -1.0379160    3.4929470   -0.9921910  
H    -3.8629140    4.8343310   -2.6857770  
H    -6.2243440    3.0743660   -1.9665220  
H    -5.5400390    1.3142930   -0.5534090  
H    -1.3639490   -0.5966540    1.8808870  
C     2.0555510   -1.3367690   -0.6860970  
C     3.0848880   -0.5190470   -0.2705470  
C     2.4633580    0.6397890    0.3359970  
C     1.0631530    0.4474750    0.2529130  
N     0.8423220   -0.7571320   -0.3766070  
C     0.1380340    1.3917160    0.7341720  
C     0.6450780    2.5585100    1.3026220  
O    -0.2033200    3.5000110    1.7956390  
C     2.0479310    2.7723290    1.3596220  
O     2.3912230    3.9818680    1.9305300  
C     2.9537130    1.8381260    0.8929900  
H    -0.0667590   -1.1461610   -0.5751900  
H     0.3430200    4.2392920    2.1159230  
H     3.3517640    4.1006050    1.8914110  
H     4.0215920    2.0394570    0.9323940  
H     2.1012340   -2.3052110   -1.1627470  
C     4.5066600   -0.7823150   -0.4265570  
C     5.2028030   -1.3949730   -1.4460370  
C     6.5882790   -1.4201570   -1.0778130  
C     6.6899710   -0.7981220    0.1945770  
N     5.4184870   -0.3873810    0.5539290  
C     7.9056750   -0.6574800    0.8726710  
C     9.0460160   -1.1477500    0.2531910  
O    10.2586110   -1.0398390    0.8743720  
C     8.9668640   -1.7589560   -1.0250340  
O    10.1875410   -2.1890290   -1.5152360  
C     7.7632690   -1.8969720   -1.6926050  
H     4.7715270   -1.7408250   -2.3757510  
H     5.1436090   -0.1394410    1.4926510  
H     7.9868180   -0.1875140    1.8477340  
H    10.9188370   -1.4389930    0.2821490  
H    10.0571930   -2.6055150   -2.3797480  
H     7.7293020   -2.3713930   -2.6716860  
C    -4.3256080   -1.4666320    2.5899720  
C    -4.2146420   -0.9066560    1.3519540  
C    -5.2627850   -1.5942510    0.5584200  
C    -5.9046780   -2.5282970    1.5248120  
N    -5.3475320   -2.4509350    2.7016050  
C    -6.9875190   -3.3922450    1.1323040  
C    -7.3919070   -3.3601240   -0.1608090  
O    -8.3876700   -4.1157200   -0.6619730  
C    -6.7411360   -2.4581100   -1.1639780  
O    -7.1612340   -2.4797030   -2.3217860  
C    -5.6345490   -1.5738070   -0.7353180  
H    -7.4445270   -4.0520000    1.8617960  
H    -8.4410430   -3.8737950   -1.6121280  
H    -5.1838430   -0.9421270   -1.4943990  
H    -3.7401370   -1.2257160    3.4691960  
