64


C    -1.4050440   -2.6662130    0.0501220  
C    -2.1978130   -3.7935180    0.0658250  
C    -3.5512240   -3.3370500    0.1907310  
C    -3.5143170   -1.9183540    0.2265310  
N    -2.1975910   -1.5430980    0.1552860  
C    -4.6728570   -1.0969030    0.3185140  
C    -5.8970710   -1.7981170    0.4025800  
O    -7.0722390   -1.1185560    0.5036150  
C    -5.9414680   -3.2090050    0.3745380  
O    -7.2238290   -3.7230470    0.4636210  
C    -4.7975940   -3.9830580    0.2667510  
H    -1.8572400   -4.8143910   -0.0284500  
H    -1.9314260   -0.5632480    0.1840390  
H    -7.7831780   -1.7844430    0.5254270  
H    -7.1948970   -4.6871160    0.3790550  
H    -4.8699720   -5.0686720    0.2457340  
C     0.8637040   -3.4875280    0.5479790  
C     2.1513180   -3.0708770    0.3747850  
C     2.1066210   -1.8098690   -0.3142780  
C     0.7397990   -1.5081080   -0.5419660  
N    -0.0158900   -2.5537180   -0.0015080  
C     0.3283110   -0.3413750   -1.2003440  
C     1.3186580    0.5461950   -1.5922060  
O     0.9684880    1.7071340   -2.2230830  
C     2.6869660    0.2675380   -1.3621360  
O     3.5419490    1.2420940   -1.8396070  
C     3.1128010   -0.9034840   -0.7349340  
H     3.0358720   -3.5836410    0.7241860  
H    -0.7035460   -0.1085300   -1.4325260  
H     1.7956420    2.1635460   -2.4565080  
H     4.4578460    0.9291430   -1.7476400  
H     0.4666120   -4.3573320    1.0498190  
C     5.2118560   -2.3341390   -0.9016730  
C     4.5499040   -1.1782770   -0.5450860  
C     5.5525830   -0.3065130    0.0375890  
C     6.7906120   -0.9987370   -0.0052390  
N     6.5488420   -2.2300080   -0.5800010  
C     7.9808760   -0.4545930    0.4933750  
C     7.9211230    0.8129080    1.0507240  
O     9.0517900    1.3916510    1.5481240  
C     6.6886770    1.5173710    1.1151220  
O     6.7901900    2.7615380    1.7067700  
C     5.5149340    0.9782280    0.6232450  
H     7.2438770   -2.9400770   -0.7496320  
H     8.9284470   -0.9828050    0.4629810  
H     8.7977680    2.2615120    1.9020750  
H     5.9147480    3.1747050    1.7445960  
H     4.5818510    1.5318420    0.6936600  
H     4.8250110   -3.2210110   -1.3829080  
C    -4.5937270    0.3458820    0.2979020  
C    -5.5715570    1.3077180    0.4090060  
C    -4.9094290    2.5719640    0.2786340  
C    -3.4606010    2.2242700    0.0803440  
N    -3.2812630    0.9384150    0.1056070  
C    -2.4516770    3.2316800   -0.1144150  
C    -2.8601140    4.5220950   -0.0914330  
O    -2.0525010    5.5749340   -0.2570020  
C    -4.3144150    4.9118870    0.1243450  
O    -4.5587190    6.1216290    0.1273920  
C    -5.3147750    3.8703480    0.3032910  
H    -6.6258560    1.1451050    0.5575170  
H    -1.4189020    2.9512760   -0.2930740  
H    -2.6481270    6.3581800   -0.1887580  
H    -6.3446050    4.1816180    0.4467340  
