58


C    -0.2046170    1.9385150    0.3268010  
C     1.0780050    1.4363820    0.2998760  
C     1.0082290    0.0267690    0.0712080  
C    -0.4203050   -0.2897520   -0.0725280  
N    -1.1026830    0.9090160    0.0572740  
C    -0.9665100   -1.5358610   -0.2914530  
C     0.0188590   -2.6324920   -0.4167430  
O    -0.2988520   -3.7783460   -0.6867230  
C     1.5460040   -2.3384820   -0.1953660  
O     2.2753870   -3.3047900   -0.0749750  
C     1.9999260   -0.9398710   -0.0479470  
H     1.9805260    2.0236190    0.3652770  
H    -2.0914170    0.9470340    0.2664150  
C     0.0352550    4.2089160    1.3357780  
C    -0.6517550    3.2875130    0.5845170  
C    -1.8755330    3.9519010    0.1331830  
C    -1.8295680    5.3227880    0.6986590  
N    -0.6381760    5.4044330    1.4058100  
C    -2.7820920    6.2684950    0.5208620  
C    -3.9498190    5.9315660   -0.2956010  
O    -4.8634560    6.7125330   -0.4995730  
C    -4.0066330    4.5006530   -0.9384250  
O    -4.9525790    4.2035290   -1.6466980  
C    -2.9063040    3.5649250   -0.6617860  
H    -2.7214710    7.2663850    0.9440050  
H    -2.9603210    2.5925560   -1.1394760  
H     0.9749730    4.0811280    1.8564690  
H    -0.3372000    6.2092600    1.9346220  
C     3.4123540   -0.6517550    0.0438440  
C     4.0538440    0.3160280    0.7834550  
C     5.4572850    0.1706590    0.4946250  
C     5.5110190   -0.9545850   -0.4945210  
N     4.3313960   -1.4350340   -0.7480140  
C     6.7605040   -1.3968800   -1.0612850  
C     7.8913920   -0.7786100   -0.6483710  
O     9.1231670   -1.0881280   -1.0792360  
C     7.8695390    0.3458210    0.3618610  
O     8.9541400    0.8454380    0.6687850  
C     6.5881700    0.7911790    0.9128590  
H     3.6193600    0.9868070    1.5103710  
H     6.7729900   -2.2076190   -1.7810330  
H     9.7229410   -0.4722170   -0.6004880  
H     6.6112680    1.6085180    1.6272810  
C    -3.3176040   -0.9217870   -1.0216580  
C    -2.3890720   -1.7699420   -0.4661700  
C    -3.2015270   -2.9438400   -0.0512290  
C    -4.5920740   -2.5762200   -0.4385160  
N    -4.6389770   -1.4009460   -1.0143190  
C    -5.7115910   -3.4421210   -0.1937670  
C    -5.4732170   -4.6241240    0.4249360  
O    -6.4189060   -5.5260510    0.7238030  
C    -4.0852050   -5.0217680    0.8415720  
O    -3.9456540   -6.1019900    1.4103660  
C    -2.9473580   -4.1161610    0.5599310  
H    -6.7066710   -3.1366860   -0.4972750  
H    -5.9459460   -6.2676750    1.1621940  
H    -1.9607530   -4.4644720    0.8385440  
H    -3.1227610    0.0263700   -1.5097500  
