58


C     2.0620150   -3.8867780   -0.3893830  
C     0.9533840   -3.0997800   -0.3508100  
C     1.3933100   -1.7237500   -0.3622830  
C     2.8612910   -1.7686620   -0.4331510  
N     3.2033300   -3.1030350   -0.4583530  
C     3.7266050   -0.6874830   -0.4429580  
C     3.0666980    0.6218890   -0.3867500  
O     3.6613770    1.6871160   -0.3378710  
C     1.4896740    0.7027430   -0.4235380  
O     1.0077990    1.8193340   -0.5030210  
C     0.6803700   -0.5338280   -0.3342400  
H    -0.0680780   -3.4455840   -0.3504870  
H     2.1440240   -4.9651880   -0.3966750  
H     4.1519330   -3.4328130   -0.3533820  
C    -1.5273500   -1.3461060    0.5741780  
C    -0.7552650   -0.4715840   -0.1552990  
C    -1.7505200    0.4864840   -0.7050450  
C    -3.0540020   -0.0027390   -0.1767790  
N    -2.9016250   -1.0707240    0.5647000  
C    -4.3154310    0.6325760   -0.4930560  
C    -4.2668660    1.6788530   -1.3643470  
O    -5.3427380    2.3682130   -1.7657950  
C    -2.9740550    2.1746410   -1.9396050  
O    -3.0253930    3.1261190   -2.7175010  
C    -1.7019860    1.5262160   -1.5580460  
H    -4.9954690    3.0541410   -2.3790790  
H    -0.7919920    1.9383740   -1.9741380  
H    -1.1730530   -2.1733830    1.1763110  
C    -5.6749300    0.5252780    3.6779970  
C    -6.8866780   -0.0665420    3.5781600  
C    -7.0690030   -0.3163100    2.1512460  
C    -5.8048790    0.1959470    1.5285000  
N    -5.0046700    0.6965290    2.4206820  
C    -5.5802320    0.1409530    0.0933260  
C    -6.5944100   -0.3598280   -0.6619950  
O    -6.5447090   -0.4750940   -1.9970310  
C    -7.8767430   -0.8700640   -0.0593910  
O    -8.7248260   -1.3168650   -0.8300800  
C    -8.0658870   -0.8229800    1.4011450  
H    -7.5880500   -0.2999270    4.3670370  
H    -7.4081560   -0.8690040   -2.2541470  
H    -9.0083780   -1.1936210    1.7926160  
H    -5.1751560    0.8743600    4.5737640  
C     5.8657770   -1.8112270   -1.2070040  
C     5.1684380   -0.8276320   -0.5448600  
C     6.2434980   -0.0025440    0.0725650  
C     7.5015130   -0.6815200   -0.3363030  
N     7.2644400   -1.7249340   -1.0917070  
C     8.7956290   -0.2058470    0.0684930  
C     8.8487890    0.8896710    0.8646890  
O     9.9850340    1.4377690    1.3250770  
C     7.6001060    1.5903800    1.3086160  
O     7.7205450    2.5729370    2.0390350  
C     6.2799360    1.0901210    0.8592640  
H     9.6883820   -0.7276390   -0.2579770  
H     9.7011410    2.2069940    1.8665380  
H     5.4081040    1.6537350    1.1657710  
H     5.4549380   -2.5848470   -1.8459120  
