62


C    -1.7848910   -0.4926710   -0.6123120  
C    -2.9252410   -0.0302690    0.0338000  
C    -3.4769820   -1.1677050    0.7472900  
C    -2.6346540   -2.2711450    0.4829430  
N    -1.6002200   -1.8271100   -0.3658430  
C    -2.8331300   -3.5282930    1.0543440  
C    -3.9258610   -3.6844900    1.8961140  
O    -4.1668900   -4.8954670    2.4720920  
C    -4.7898900   -2.5944940    2.1636880  
O    -5.8281970   -2.8988200    3.0189380  
C    -4.5759920   -1.3455190    1.6043890  
H    -2.1905970   -4.3760570    0.8552860  
H    -4.9712760   -4.8058680    3.0117130  
H    -6.3934370   -2.1210160    3.1366570  
H    -5.2438980   -0.5232880    1.8440540  
H    -1.1145440    0.0565410   -1.2542140  
C     2.7731490   -1.1407750   -0.3330790  
C     1.4150490   -0.9884160   -0.1106660  
C     0.8021160   -2.1201130   -0.7112840  
C     1.9418590   -2.9098460   -1.2906270  
N     3.0890040   -2.3342350   -1.0618620  
C     1.7341500   -4.1492540   -1.9864540  
C     0.4588520   -4.5839040   -2.1104020  
O     0.1055480   -5.7165130   -2.7242740  
C    -0.7298000   -3.8118750   -1.5632730  
O    -1.8422690   -4.2968760   -1.7903830  
C    -0.4928380   -2.5719530   -0.8319940  
H     0.9240140   -0.1831860    0.4156130  
H     2.5761780   -4.7018960   -2.3871270  
H    -0.8794390   -5.7355940   -2.6726600  
C     3.8679150   -0.3196730    0.0425570  
C     3.9385570    0.8949400    0.7340230  
C     5.3004200    1.2559130    0.8165110  
C     6.0517850    0.2262130    0.1567810  
N     5.1601990   -0.7027040   -0.2949870  
C     7.4480430    0.2662250    0.0516790  
C     8.0963560    1.3519490    0.6144410  
O     9.4468280    1.4453300    0.5436390  
C     7.3632310    2.3904770    1.2769300  
O     8.1710510    3.3882450    1.7744930  
C     5.9933820    2.3549200    1.3827090  
H     3.0918340    1.4434400    1.1231230  
H     5.3427230   -1.5560870   -0.8050930  
H     8.0240780   -0.5068230   -0.4450560  
H     9.7102970    2.2700880    0.9891490  
H     7.6301500    4.0687740    2.2026070  
H     5.4534770    3.1519280    1.8886850  
C    -3.3650040    1.3216180   -0.0682520  
C    -4.4753390    1.9588930    0.4420910  
C    -4.3824150    3.3213000    0.0165020  
C    -3.1083350    3.3729730   -0.7817460  
N    -2.5213500    2.2143810   -0.8316380  
C    -2.6525590    4.5958680   -1.3904540  
C    -3.4168340    5.6994110   -1.2176300  
O    -3.1288580    6.9071730   -1.7181490  
C    -4.7085330    5.6785780   -0.4188360  
O    -5.3125700    6.7547380   -0.3361610  
C    -5.1490190    4.4358270    0.1856510  
H    -5.2723260    1.5326250    1.0330440  
H    -1.7316840    4.6121520   -1.9628530  
H    -3.8747870    7.4788380   -1.4160360  
H    -6.0766190    4.4523440    0.7492440  
