58


C    -1.4014510   -2.0963230    0.8500340  
C    -2.7307250   -1.8531750    0.9662320  
C    -3.0027480   -0.5791940    0.3399280  
C    -1.7057480   -0.0999420   -0.1803470  
N    -0.7476950   -1.0453850    0.1945920  
C    -1.5286020    1.0236690   -0.9252790  
C    -2.6962740    1.8358960   -1.2167430  
O    -2.6612070    2.8488470   -1.8981500  
C    -4.0857830    1.3819790   -0.6360080  
O    -5.0521700    2.0875480   -0.8687760  
C    -4.1737360    0.1317780    0.1673160  
H    -3.4520440   -2.5066750    1.4314080  
H    -0.5718840    1.3300470   -1.3319000  
H    -0.8173990   -2.9386230    1.1946550  
C     1.3448150   -2.0549630   -0.6648060  
C     0.6149750   -1.0413540   -0.1330610  
C     1.5925540    0.0144880    0.1859130  
C     2.8910670   -0.5563180   -0.2711060  
N     2.7294710   -1.7589400   -0.7484320  
C     4.1564810    0.1763960   -0.1519990  
C     4.0567850    1.4034110    0.4564910  
O     5.1023280    2.2399160    0.6294390  
C     2.7801570    1.9652750    0.9659200  
O     2.8030330    3.0815360    1.4908510  
C     1.5226860    1.2035720    0.8053320  
H     4.7204690    3.0340970    1.0679450  
H     0.6103090    1.6602210    1.1753860  
H     0.9903400   -3.0193750   -1.0076180  
C     5.4861740   -1.3236160   -1.6853620  
C     5.3863800   -0.4098390   -0.6648620  
C     6.7875020   -0.2250840   -0.2210740  
C     7.5732350   -1.1117230   -1.1336380  
N     6.8009730   -1.7351050   -1.9839190  
C     9.0008760   -1.2421780   -1.0395220  
C     9.6358210   -0.5536100   -0.0608820  
O    10.9581990   -0.5860920    0.1542600  
C     8.8742690    0.3196070    0.8985080  
O     9.5160050    0.9040060    1.7689510  
C     7.4073920    0.4473890    0.7683620  
H     9.5291400   -1.8881350   -1.7318200  
H    11.1128390    0.0031310    0.9256920  
H     6.9090430    1.1047960    1.4684390  
H     4.6690830   -1.7418160   -2.2545760  
C    -5.5986070   -0.8655990    1.9955960  
C    -5.4341470   -0.2667350    0.7718660  
C    -6.8187830   -0.1688050    0.2455540  
C    -7.6549640   -0.7907840    1.3129680  
N    -6.9290940   -1.1789500    2.3307160  
C    -9.0808760   -0.9208330    1.1934230  
C    -9.6636620   -0.4699540    0.0564620  
O   -10.9786990   -0.5311130   -0.1965950  
C    -8.8500080    0.1492930   -1.0464550  
O    -9.4457200    0.5234800   -2.0538050  
C    -7.3844610    0.2861190   -0.8882880  
H    -9.6507450   -1.3744700    1.9965920  
H   -11.0930590   -0.1335860   -1.0881940  
H    -6.8468360    0.7741070   -1.6914720  
H    -4.8225730   -1.0731360    2.7225270  
