62


C    -1.0124060   -1.0324250    2.4219510  
C    -2.1846720   -1.3639340    1.7936340  
C    -2.4123410   -0.3814600    0.7723070  
C    -1.3097270    0.5181350    0.8192940  
N    -0.4908220    0.1063880    1.8481780  
C    -1.1528060    1.6220160   -0.0471560  
C    -2.1831290    1.7710150   -0.9761960  
O    -2.1573760    2.8258000   -1.8620100  
C    -3.2815470    0.8880710   -1.0695020  
O    -4.1810990    1.2368250   -2.0558620  
C    -3.4471900   -0.1862810   -0.1898090  
H    -2.8162960   -2.2030090    2.0428950  
H     0.3904240    0.5374470    2.0823810  
H    -2.9469870    2.7035380   -2.4295550  
H    -4.3959700    0.4154570   -2.5488060  
H    -0.5036300   -1.5164420    3.2435740  
C     3.3047170    0.9166650    0.1331370  
C     1.9315930    0.7723600    0.0136360  
C     1.3441090    2.0696780    0.1151470  
C     2.4156880    2.9916900    0.2856700  
N     3.5930630    2.2738930    0.2673480  
C     2.2258520    4.3721480    0.3980140  
C     0.9233080    4.8290680    0.2872970  
O     0.6570180    6.1549100    0.3558030  
C    -0.1714520    3.9320370    0.0951300  
O    -1.3881820    4.5650020    0.0223870  
C     0.0002500    2.5502420    0.0408080  
H     1.4232730   -0.1572190   -0.1981410  
H     4.4779320    2.6289360    0.6002840  
H     3.0414050    5.0752830    0.5288860  
H    -0.3072220    6.2406250    0.2212660  
H    -1.9004890    4.1549400   -0.7105220  
C     4.3455430   -0.0704190    0.0816430  
C     4.2944500   -1.4208620    0.3186710  
C     5.6108860   -1.9628190    0.1276500  
C     6.4729480   -0.8180980   -0.2526560  
N     5.6721270    0.3216470   -0.1995950  
C     7.7817400   -0.9224750   -0.5814390  
C     8.4097630   -2.2438420   -0.5238940  
O     9.5852040   -2.4275370   -0.7989000  
C     7.5279030   -3.4647000   -0.0735980  
O     8.0457990   -4.5709990   -0.0081430  
C     6.1221080   -3.2229300    0.2350230  
H     3.4227330   -1.9681790    0.6480700  
H     8.3972730   -0.0752550   -0.8689530  
H     5.5163490   -4.0761850    0.5247450  
H     5.8584190    1.1072740   -0.8098900  
C    -6.3222110   -1.7170160    2.8833290  
C    -5.3424620   -1.0007000    2.2864710  
C    -5.3547280   -1.4222820    0.8854900  
C    -6.4485450   -2.4331390    0.8301260  
N    -7.0040760   -2.6124130    1.9937300  
C    -6.8063890   -3.1047730   -0.3938440  
C    -6.1446970   -2.7491110   -1.5170620  
O    -6.4003760   -3.2654380   -2.7336340  
C    -5.0904050   -1.6849610   -1.5006990  
O    -4.6367480   -1.3518280   -2.6047050  
C    -4.6306110   -1.0712610   -0.2156800  
H    -4.6917840   -0.2602140    2.7264670  
H    -7.5960460   -3.8476220   -0.3979170  
H    -5.8093300   -2.7950550   -3.3577520  
H    -6.6392510   -1.6826230    3.9185140  
