58


C    -2.0071210   -0.0271370   -1.1425740  
C    -2.9879470   -0.3287560   -0.2210850  
C    -2.5061690   -1.4865070    0.5310930  
C    -1.1702530   -1.8086340   -0.0220550  
N    -0.9413760   -0.8801860   -1.0285100  
C    -0.3668130   -2.8383780    0.3732210  
C    -0.8720660   -3.6727110    1.4939430  
O    -0.1942210   -4.5285430    2.0291220  
C    -2.3080000   -3.3844790    2.0540250  
O    -2.7570380   -4.1137950    2.9221770  
C    -3.0508530   -2.2395230    1.5217340  
H    -4.0338350   -2.0556050    1.9386630  
H    -2.0246510    0.7635820   -1.8786000  
H    -0.1190130   -0.8725300   -1.6135630  
C     3.4122930   -0.4925000   -0.1705950  
C     2.1355860   -0.9022840    0.1515270  
C     1.9853830   -2.2570600   -0.3009150  
C     3.2842400   -2.6328420   -0.9173480  
N     4.0864280   -1.5173200   -0.8218270  
C     3.5726540   -3.8557830   -1.4316520  
C     2.5431170   -4.8853390   -1.3857900  
O     2.7160880   -6.0248260   -1.7880170  
C     1.1353700   -4.5011390   -0.8072220  
O     0.2220080   -5.2995410   -0.9098480  
C     0.9398080   -3.1489350   -0.2200070  
H     1.3998240   -0.3176580    0.6835010  
H     4.5390640   -4.1107220   -1.8546970  
H     5.0520590   -1.4275770   -1.1057190  
C     4.0953950    0.7520150    0.0657330  
C     3.6579120    1.8900820    0.6868800  
C     4.7744030    2.8056790    0.6352170  
C     5.8523740    2.0419170   -0.0777540  
N     5.4494940    0.8481920   -0.4062190  
C     7.1449550    2.6187910   -0.3320360  
C     7.3614780    3.8853700    0.0972010  
O     8.5101210    4.5475770   -0.0683330  
C     6.2949280    4.6822660    0.8196730  
O     6.5869780    5.8235400    1.1693240  
C     4.9814750    4.0712870    1.0678170  
H     2.6907840    2.0775160    1.1318770  
H     7.9073800    2.0468780   -0.8486870  
H     8.3701680    5.4309450    0.3413940  
H     4.2423270    4.6716550    1.5889090  
C    -4.2054870    0.4165330   -0.1163980  
C    -5.2869300    0.2831290    0.7172700  
C    -6.2005560    1.3287200    0.3442270  
C    -5.5050690    2.0472090   -0.7774010  
N    -4.3477310    1.5171160   -1.0423700  
C    -6.1051880    3.1787590   -1.4341490  
C    -7.3257190    3.5745260   -1.0023720  
O    -8.0091890    4.6055140   -1.5108900  
C    -8.0530430    2.8694830    0.1281330  
O    -9.1587830    3.3214350    0.4345050  
C    -7.4251630    1.7253190    0.7779060  
H    -5.4453470   -0.4448980    1.4985460  
H    -5.5862340    3.6818710   -2.2423730  
H    -8.8461770    4.6336380   -0.9906460  
H    -7.9717210    1.2429280    1.5820780  
