62


C     1.1636810    1.6572990   -0.0757910  
C     2.0008110    0.5709930    0.0214460  
C     3.3230110    0.9811680   -0.3528870  
C     3.2468890    2.3618060   -0.6550810  
N     1.9349980    2.7838520   -0.4302950  
C     4.3473120    3.1199240   -1.0496970  
C     5.5698460    2.4639020   -1.0987680  
O     6.6925770    3.1392650   -1.4516130  
C     5.6894370    1.0860540   -0.7710330  
O     6.9735270    0.6110020   -0.8687510  
C     4.5767070    0.3072360   -0.4281570  
H     1.7040190   -0.4028230    0.3778560  
H     1.5302290    3.5296550   -0.9847750  
H     4.2882720    4.1786610   -1.2798930  
H     7.4193640    2.4896770   -1.3754380  
H     7.1486950    0.0681750   -0.0544480  
C    -2.2616010   -1.1169590   -0.7778940  
C    -1.0351020   -0.5298900   -0.7401360  
C    -1.1842660    0.7523840   -0.1012350  
C    -2.5514990    0.9037340    0.2256620  
N    -3.2134400   -0.2608970   -0.2042290  
C    -3.0481650    2.0303460    0.8911350  
C    -2.1426130    3.0412970    1.1871830  
O    -2.5735040    4.1550100    1.8398620  
C    -0.7753560    2.9257850    0.8425890  
O    -0.0130100    4.0072390    1.2230480  
C    -0.2640650    1.7860340    0.2093590  
H    -0.1216930   -0.9414430   -1.1440980  
H    -4.0765210    2.1328160    1.2141120  
H    -1.7917930    4.7116650    2.0047900  
H     0.9316020    3.7828990    1.1215360  
H    -2.5825250   -2.0543760   -1.2060610  
C    -4.5559830   -0.5661330   -0.1157400  
C    -5.1561380   -1.7937840   -0.0316320  
C    -6.5781170   -1.5811430   -0.0453200  
C    -6.7754680   -0.1139080   -0.1432460  
N    -5.5064940    0.4604850   -0.1247200  
C    -7.9801630    0.4945260   -0.2345610  
C    -9.1825820   -0.3415740   -0.2023890  
O   -10.3090590    0.1229570   -0.2757480  
C    -9.0009560   -1.8962080   -0.0540480  
O    -9.9991940   -2.6018500   -0.0162690  
C    -7.6440570   -2.4282730    0.0175870  
H    -4.6504200   -2.7401610    0.0890410  
H    -8.1048440    1.5702210   -0.3141320  
H    -7.5297660   -3.5047050    0.1011220  
H    -5.3120300    1.3642150   -0.5336280  
C     7.4529460   -2.0401250    1.9850770  
C     6.8995350   -3.2724200    1.9702940  
C     5.7286040   -3.1592460    1.1087280  
C     5.7011780   -1.7185070    0.6979770  
N     6.7264680   -1.0871650    1.2038650  
C     4.6714700   -1.1483360   -0.1597250  
C     3.7973170   -2.0671270   -0.6792320  
O     2.8225780   -1.7680890   -1.5535520  
C     3.8227320   -3.5269380   -0.3210830  
O     2.9861280   -4.2564650   -0.8537450  
C     4.8310580   -4.0365960    0.6242680  
H     7.2450430   -4.1666960    2.4693780  
H     2.3929750   -2.6301550   -1.7583050  
H     4.8127890   -5.0971500    0.8547290  
H     8.3471070   -1.7088770    2.4980900  
