60


C     3.1960980    3.2441580   -1.6639560  
C     1.8763500    3.0328180   -1.3517760  
C     1.8103980    1.8147510   -0.5997220  
C     3.1358050    1.3234710   -0.4961430  
N     3.9563420    2.2150220   -1.1521610  
C     3.4658250    0.0945000    0.1173370  
C     2.4021830   -0.6275290    0.6641290  
O     2.6529710   -1.7745250    1.3466620  
C     1.0683270   -0.1592460    0.5840030  
O     0.1737630   -0.9784190    1.2208920  
C     0.7398880    1.0544330   -0.0433720  
H     1.0508750    3.6604270   -1.6516670  
H     4.9600820    2.1377200   -1.2131870  
H     1.7932010   -2.1472980    1.6119540  
H    -0.7242270   -0.5935070    1.1581740  
H     3.6608600    4.0492450   -2.2149140  
C    -0.6296830    1.5323040   -0.0659480  
C    -1.1278770    2.8046420   -0.0135240  
C    -2.5614510    2.7360220   -0.0170540  
C    -2.9082270    1.2964510   -0.0800370  
N    -1.7025730    0.5907520   -0.0541650  
C    -4.1828900    0.7793820   -0.1259570  
C    -5.2552970    1.7957180   -0.0709580  
O    -6.4491430    1.5140120   -0.0242720  
C    -4.9039760    3.3295470   -0.0249020  
O    -5.8344340    4.1222890   -0.0202120  
C    -3.5093840    3.7132340    0.0260330  
H    -0.5447600    3.7078020    0.0900680  
H    -3.2657890    4.7698420    0.0690200  
H    -1.6700130   -0.1846200   -0.7269800  
C    -7.2505640   -1.7859270    1.8440500  
C    -6.9041520   -2.9943510    1.3396990  
C    -5.7906750   -2.7739050    0.4428670  
C    -5.5031260   -1.3102940    0.4843300  
N    -6.3993210   -0.7821550    1.3796500  
C    -4.4928700   -0.6705720   -0.2157210  
C    -3.7140140   -1.5453180   -1.1015510  
O    -2.7799130   -1.1548760   -1.8012510  
C    -4.0299980   -3.0860720   -1.1840100  
O    -3.3613380   -3.7676760   -1.9426140  
C    -5.0858630   -3.6277530   -0.3408040  
H    -7.3661530   -3.9464730    1.5556960  
H    -5.2846730   -4.6937730   -0.3862190  
H    -8.0467760   -1.5282100    2.5299310  
H    -6.6691380    0.1944110    1.2968080  
C     7.4070770    1.6611090    1.5677840  
C     6.0837290    1.5736550    1.2850020  
C     5.9159610    0.2655800    0.6576180  
C     7.2959380   -0.3100450    0.6560370  
N     8.1605230    0.5101750    1.1858630  
C     7.5714090   -1.6233190    0.1351790  
C     6.5327320   -2.3289100   -0.3668690  
O     6.6421170   -3.5587540   -0.8928910  
C     5.1343350   -1.7669060   -0.4188900  
O     4.2870240   -2.4362810   -0.9974380  
C     4.8463220   -0.4179830    0.1719400  
H     5.3054890    2.2922610    1.4985820  
H     8.5825140   -2.0144450    0.1532810  
H     5.7416550   -3.7888450   -1.2117450  
H     7.9296920    2.4808530    2.0469800  
