58


C     3.7981660   -0.6312430   -0.1224800  
C     4.4042460    0.4436690   -0.7280350  
C     5.8186980    0.2801540   -0.4951960  
C     5.9126700   -0.9777940    0.3128780  
N     4.7448020   -1.5085750    0.5207990  
C     7.1813570   -1.4802380    0.7759000  
C     8.2939100   -0.7877130    0.4360060  
O     9.5386260   -1.1395680    0.7874970  
C     8.2311760    0.4748350   -0.3919400  
O     9.2978100    1.0342110   -0.6482330  
C     6.9271880    0.9767430   -0.8419300  
H     3.9371600    1.2137960   -1.3245760  
H     7.2232760   -2.3891460    1.3654600  
H    10.1223140   -0.4510360    0.3966250  
H     6.9205430    1.8913860   -1.4269140  
C     0.0836220    1.8499500    0.0694050  
C     1.4111310    1.4414690    0.0314750  
C     1.3879680    0.0276380   -0.0113660  
C    -0.0757220   -0.3266750    0.0379900  
N    -0.8183170    0.7455110    0.0728190  
C    -0.5559080   -1.6984920    0.0452220  
C     0.4369090   -2.6548580    0.0141120  
O     0.2279730   -3.9579770    0.0607260  
C     1.9262680   -2.3292070   -0.0706910  
O     2.6602120   -3.3091380   -0.1816080  
C     2.3838810   -0.9325780   -0.0604820  
H     2.2857100    2.0735450    0.0369680  
H     1.1328820   -4.3569150   -0.0129300  
C    -1.9740040   -2.0116640    0.0922290  
C    -3.0068310   -1.2206510    0.5218100  
C    -4.2039800   -2.0117990    0.3577780  
C    -3.7130440   -3.3051930   -0.2186220  
N    -2.4241760   -3.3062430   -0.3703420  
C    -4.6207970   -4.3762960   -0.5477880  
C    -5.9373230   -4.1793700   -0.3054550  
O    -6.8965020   -5.0836990   -0.5533350  
C    -6.4603970   -2.8877550    0.2821470  
O    -7.6758750   -2.8069400    0.4638960  
C    -5.5201130   -1.8072220    0.5995490  
H    -2.9358370   -0.2233160    0.9232580  
H    -4.2413020   -5.3010650   -0.9678020  
H    -7.7345360   -4.6500960   -0.2745720  
H    -5.9338260   -0.8903200    1.0081640  
C     0.2343500    4.3715050    0.2139210  
C    -0.4438900    3.1693700    0.1049680  
C    -1.8631010    3.5745150    0.0344290  
C    -1.8203100    5.0581210    0.1239520  
N    -0.5806640    5.4986270    0.2277630  
C    -3.0034530    5.8593970    0.0878010  
C    -4.1931710    5.2143730   -0.0395280  
O    -5.3781060    5.8297330   -0.0860480  
C    -4.2717230    3.7110770   -0.1439100  
O    -5.3867250    3.2082550   -0.2537720  
C    -3.0268190    2.9132750   -0.1085630  
H    -2.9354460    6.9391470    0.1579450  
H    -6.0472550    5.1150830   -0.1811320  
H    -3.0973410    1.8359880   -0.2009960  
H     1.3071160    4.5046390    0.2967470  
