60


C     0.5214950   -0.8870480   -1.1171960  
C    -0.1593020    0.0773920   -0.4027800  
C     0.8481790    0.8713520    0.2665100  
C     2.1075290    0.3415800   -0.0964460  
N     1.8748580   -0.7218370   -0.9420640  
C     3.3416680    0.8197270    0.4154750  
C     3.2510170    1.8856160    1.3281640  
O     4.3655940    2.4665780    1.8223070  
C     1.9870290    2.4198660    1.7022690  
O     2.0816390    3.4588060    2.6044130  
C     0.8000620    1.9319300    1.1950030  
H     2.5979630   -1.3318750   -1.2936540  
H     4.0790050    3.1844570    2.4156490  
H     1.2139900    3.8716270    2.7279700  
H    -0.1481880    2.3587860    1.5110530  
H     0.1368430   -1.6551910   -1.7730490  
C    -2.5067430   -0.7978270   -0.1566430  
C    -1.6121320    0.2119970   -0.3333340  
C    -2.3990220    1.4307980   -0.4980590  
C    -3.8248620    1.0383050   -0.4051460  
N    -3.8398300   -0.3581830   -0.2296380  
C    -4.8483480    1.9229220   -0.4254730  
C    -4.5451620    3.3444650   -0.6154560  
O    -5.4129410    4.2018600   -0.6384340  
C    -3.0468670    3.7668300   -0.7954530  
O    -2.7754740    4.9434650   -0.9735810  
C    -2.0266080    2.7184890   -0.7141910  
H    -5.8907950    1.6444430   -0.3405720  
H    -0.9874130    3.0139180   -0.8119870  
H    -2.3139520   -1.8498620   -0.0011030  
C    -4.7057550   -3.5747920    2.6819790  
C    -4.0670420   -2.5516930    2.0595400  
C    -4.9563690   -2.1579880    0.9723660  
C    -6.1099510   -3.0881610    1.0944090  
N    -5.9594430   -3.9117530    2.0960370  
C    -7.2444260   -3.0284040    0.2073230  
C    -7.2411390   -2.0881080   -0.7637360  
O    -8.2367110   -1.9167930   -1.6513470  
C    -6.0909730   -1.1423030   -0.9460620  
O    -6.1229240   -0.3810780   -1.9073880  
C    -4.9362120   -1.1929350    0.0118310  
H    -3.1244990   -2.0977820    2.3301390  
H    -8.0671330   -3.7228430    0.3350660  
H    -7.9398240   -1.2062050   -2.2586220  
H    -4.3754530   -4.1305140    3.5513690  
C     4.6074050    0.2279700    0.0123930  
C     4.9393350   -0.2974180   -1.2134830  
C     6.2866040   -0.7958900   -1.0786020  
C     6.6371500   -0.5086090    0.3518740  
N     5.6682090    0.0896390    0.9784150  
C     7.9156780   -0.8804420    0.9027250  
C     8.8049120   -1.4776510    0.0756060  
O    10.0324610   -1.8713960    0.4416010  
C     8.4859870   -1.7628920   -1.3765530  
O     9.3646100   -2.3122570   -2.0429390  
C     7.1744620   -1.3905560   -1.9112850  
H     4.3680630   -0.2460090   -2.1306690  
H     8.1414670   -0.6702460    1.9421190  
H    10.4281700   -2.2621140   -0.3705570  
H     6.9795600   -1.6182810   -2.9548340  
