60


C     2.3339090   -1.2849080   -0.4227480  
C     3.5283440   -0.6093670   -0.2360610  
C     3.1644340    0.7919060   -0.0770260  
C     1.7516260    0.8679230   -0.1545610  
N     1.2801290   -0.4142630   -0.3425480  
C     1.0181540    2.0802080   -0.0946960  
C     1.7911600    3.2488170   -0.0201220  
O     1.1911920    4.4781270    0.0123310  
C     3.1999950    3.1898920    0.0537130  
O     3.7955920    4.4328290    0.1493170  
C     3.8890510    1.9931060    0.0399720  
H     0.3265570   -0.6373950   -0.5866770  
H     1.9012400    5.1407200    0.0947890  
H     4.7520320    4.3284800    0.2618000  
H     4.9673630    1.9752040    0.1422960  
H     2.1673620   -2.3346530   -0.6012990  
C    -0.4376250    2.1007420   -0.1098130  
C    -1.3346750    1.1213600    0.2659570  
C    -2.6657150    1.6163530    0.0491150  
C    -2.5010460    2.9836040   -0.4976980  
N    -1.1450590    3.2105850   -0.5688760  
C    -3.5203750    3.8073710   -0.8557020  
C    -4.8795350    3.3156290   -0.7072460  
O    -5.8683540    3.9622910   -1.0194150  
C    -5.0904670    1.8721330   -0.1154300  
O    -6.2361180    1.4766730    0.0351490  
C    -3.9099310    1.0600400    0.2508800  
H    -1.0847120    0.1736330    0.7156850  
H    -3.3693150    4.8047090   -1.2564120  
H    -0.7027510    4.0951160   -0.7720640  
C    -3.4644100   -0.6907820    2.0032990  
C    -4.0981980   -0.2537570    0.8742280  
C    -4.9522150   -1.3641950    0.4346290  
C    -4.7402460   -2.4656440    1.4066400  
N    -3.8198610   -1.9938950    2.3227450  
C    -5.3504520   -3.6773440    1.3557370  
C    -6.2696820   -3.9433390    0.2559580  
O    -6.8621440   -5.0033990    0.1189840  
C    -6.4875960   -2.8051710   -0.8058900  
O    -7.2267240   -3.0156840   -1.7538080  
C    -5.7859820   -1.5271300   -0.6227470  
H    -5.1802400   -4.4615680    2.0872350  
H    -5.9838320   -0.7411030   -1.3417170  
H    -2.7751630   -0.1494030    2.6378150  
H    -3.5554080   -2.4751380    3.1682210  
C     7.3819380    0.2938320    1.7984250  
C     8.1745530   -0.7003940    1.3447510  
C     7.3256010   -1.4863760    0.4542120  
C     5.9997220   -0.7848600    0.4849220  
N     6.0497610    0.2510600    1.2711720  
C     4.8411520   -1.2621560   -0.2741060  
C     5.0614580   -2.4147450   -0.9854210  
O     4.1067970   -3.0326480   -1.7147540  
C     6.3755090   -3.1134220   -1.0509530  
O     6.4613120   -4.1166700   -1.7631490  
C     7.5214200   -2.5939800   -0.2805230  
H     9.2095030   -0.8996000    1.5856090  
H     4.5699880   -3.7865450   -2.1459620  
H     8.4584980   -3.1382850   -0.3466120  
H     7.6323930    1.0871960    2.4924210  
