62


C    -0.6597680   -2.8799560    0.0123990  
C     0.2959220   -1.8731600    0.1388360  
C     1.5723050   -2.4323800   -0.1493770  
C     1.3527830   -3.8041520   -0.4287450  
N     0.0015100   -4.0411160   -0.3438820  
C     2.3901310   -4.7053340   -0.7048530  
C     3.6822890   -4.2122480   -0.6850190  
O     4.7356410   -5.0392650   -0.9300840  
C     3.9510170   -2.8396070   -0.4193950  
O     5.2698650   -2.5378260   -0.4526250  
C     2.9097780   -1.9082450   -0.1767180  
H     0.1090700   -0.8788510    0.5069290  
H    -0.4553020   -4.9392310   -0.4002980  
H     2.2158130   -5.7555710   -0.9156490  
H     5.5356070   -4.4848430   -0.8663210  
H     5.3597100   -1.5621860   -0.2173230  
C    -3.4005160    0.5831110    0.0011960  
C    -4.5627200   -0.1224610    0.3248460  
C    -4.2211850   -1.4959550    0.4269250  
C    -2.8224120   -1.5992460    0.1728420  
N    -2.3652210   -0.3367210   -0.0804720  
C    -2.1061440   -2.8241820    0.2004010  
C    -2.8964390   -3.9564270    0.4353960  
O    -2.3259130   -5.2025910    0.4519970  
C    -4.2944760   -3.8694570    0.6804050  
O    -4.8817510   -5.0999860    0.9050030  
C    -4.9648810   -2.6665650    0.6960550  
H    -5.5317360    0.3059840    0.5297520  
H    -1.4277080   -0.0626820   -0.3351670  
H    -3.0307260   -5.8392070    0.6677640  
H    -5.8152340   -4.9797480    1.1332340  
H    -6.0335050   -2.6246510    0.8930200  
C    -6.0851900    4.0784810   -0.7458270  
C    -5.5823430    2.8214610   -0.6135330  
C    -4.1597830    2.9395270   -0.3886750  
C    -3.8661620    4.3856110   -0.4132450  
N    -5.0748210    5.0208180   -0.6046250  
C    -2.6349890    4.9565540   -0.2625550  
C    -1.5068750    4.0762530   -0.1051790  
O    -0.3506170    4.4493860    0.0523650  
C    -1.7704720    2.5235800   -0.1570760  
O    -0.7805650    1.8031070   -0.1935820  
C    -3.1637850    1.9984840   -0.1817240  
H    -6.1447370    1.9077040   -0.7146690  
H    -2.4704920    6.0289610   -0.2526240  
H    -7.1003540    4.3972180   -0.9399670  
H    -5.1853020    6.0171180   -0.7102110  
C     3.2000870   -0.5075030   -0.0088250  
C     2.3758060    0.5953260    0.0380750  
C     3.2218290    1.7346560    0.1992590  
C     4.6139990    1.1757490    0.2396930  
N     4.5922100   -0.1193680    0.1108380  
C     5.7676590    2.0155480    0.3943270  
C     5.5401530    3.3474080    0.4951830  
O     6.4952740    4.2671010    0.6422710  
C     4.1373470    3.9499520    0.4489010  
O     4.0885310    5.1806870    0.5510010  
C     2.9910080    3.0760780    0.2943670  
H     1.3071900    0.6435530   -0.0762250  
H     6.7655740    1.5924610    0.4258440  
H     6.0011400    5.1230320    0.6810990  
H     1.9976930    3.5153430    0.2568600  
