58


C     2.2046400    1.8468900   -0.3413020  
C     2.9289310    0.8156900    0.1827080  
C     2.1003440    0.2208150    1.2275380  
C     0.8392120    1.0010080    1.2580060  
N     0.9452550    1.9671910    0.2573450  
C    -0.1643870    0.7918500    2.1495920  
C    -0.0208500   -0.2880340    3.1263220  
O    -0.8768200   -0.5447550    3.9579240  
C     1.2963520   -1.1383920    3.0967570  
O     1.4319100   -2.0544060    3.8912280  
C     2.3243280   -0.7853450    2.1113010  
H    -1.0546830    1.4070860    2.2061580  
H     3.2541620   -1.3436860    2.1395380  
H     2.4767750    2.5238060   -1.1366190  
C    -3.3470030    1.6924540   -0.5994840  
C    -3.5858770    3.0325420   -0.7836520  
C    -2.3368740    3.7263600   -0.6250850  
C    -1.3257110    2.6832070   -0.3188840  
N    -1.9898820    1.4867400   -0.3311250  
C    -0.0030630    2.9540330   -0.0815280  
C     0.4474930    4.3497000   -0.2029310  
O     1.6159500    4.6771270   -0.0712320  
C    -0.6212410    5.4555530   -0.5353390  
O    -0.2397890    6.6114730   -0.6301240  
C    -2.0060230    5.0462550   -0.7296610  
H    -4.5383020    3.4868140   -1.0148800  
H    -2.7357840    5.8164880   -0.9571510  
H    -1.6244140    0.5713470   -0.1050030  
C    -4.2158120    0.5456990   -0.6356270  
C    -5.5626030    0.4695320   -0.8595390  
C    -5.8850860   -0.9368800   -0.7609840  
C    -4.5731320   -1.6026960   -0.4621580  
N    -3.6067740   -0.7332610   -0.3931500  
C    -4.4702000   -3.0262620   -0.2871430  
C    -5.6059330   -3.7558150   -0.4025340  
O    -5.6611270   -5.0837720   -0.2661400  
C    -6.9441920   -3.1149240   -0.7043530  
O    -7.9183150   -3.8579650   -0.7917560  
C    -7.0243520   -1.6559430   -0.8782650  
H    -6.2521110    1.2768030   -1.0627530  
H    -3.5118140   -3.4825720   -0.0669950  
H    -6.6043350   -5.3284600   -0.3986440  
H    -8.0005700   -1.2323360   -1.0925370  
C     5.3230420    1.2727320   -0.4967630  
C     4.2771050    0.4435390   -0.2184580  
C     4.8041520   -0.9074920   -0.5044190  
C     6.2130140   -0.6638170   -0.9380480  
N     6.5010100    0.6080770   -0.9337830  
C     7.0851240   -1.7450070   -1.3140640  
C     6.5823210   -3.0029410   -1.2947460  
O     7.2805640   -4.1006200   -1.6269670  
C     5.1586530   -3.2763110   -0.8973760  
O     4.7690270   -4.4418160   -0.9165250  
C     4.2848970   -2.1494700   -0.5005290  
H     8.1067380   -1.5365540   -1.6118030  
H     6.6567270   -4.8517990   -1.5207130  
H     3.2653500   -2.3937750   -0.2196070  
H     5.3401890    2.3522940   -0.4013670  
