62


C    -3.1850370    2.0909470   -0.3197120  
C    -4.5370430    1.8431250   -0.1344290  
C    -4.6993610    0.4411570    0.0599140  
C    -3.4030680   -0.1437730   -0.0106150  
N    -2.5087300    0.8796540   -0.2269070  
C    -3.1601800   -1.5326760    0.0960850  
C    -4.3044690   -2.3093840    0.2766490  
O    -4.1921280   -3.6834450    0.3596350  
C    -5.6037110   -1.7493090    0.3699300  
O    -6.5947550   -2.6932990    0.5631060  
C    -5.8181960   -0.3905530    0.2725260  
H    -5.3104050    2.5979550   -0.1003540  
H    -1.5326140    0.7382820   -0.4381940  
H    -5.0908860   -4.0356410    0.4968270  
H    -7.4587540   -2.2574320    0.6038520  
H    -6.8224670    0.0216170    0.3380810  
C     0.7341440   -0.4889590    2.0920110  
C    -0.5887900   -0.5842210    1.7545740  
C    -0.6973500   -1.5657600    0.7051790  
C     0.6126810   -2.0517350    0.4651610  
N     1.4822500   -1.3705230    1.3157820  
C     0.8945560   -3.0773630   -0.4432890  
C    -0.1846750   -3.6241240   -1.1182500  
O     0.0048200   -4.6391010   -2.0023670  
C    -1.5082120   -3.1455520   -0.9128920  
O    -2.4525810   -3.7755470   -1.6940590  
C    -1.7931220   -2.1008830   -0.0308250  
H    -1.3979820   -0.0358680    2.2150470  
H     1.8947980   -3.4588290   -0.6132900  
H    -0.8843430   -4.8660470   -2.3360350  
H    -3.2273900   -3.9743650   -1.1255990  
H     1.2349390    0.1477060    2.8073180  
C     3.5572340   -1.9851940    2.5016520  
C     2.8731840   -1.5532790    1.4056840  
C     3.8528270   -1.2524560    0.3699420  
C     5.1749650   -1.5537590    0.9693980  
N     4.9237580   -1.9782290    2.2624140  
C     6.3584360   -1.4143400    0.3210830  
C     6.3417220   -0.9208270   -1.0541930  
O     7.3553210   -0.7627190   -1.7163610  
C     4.9491400   -0.5758920   -1.7005380  
O     4.9170890   -0.1465040   -2.8419780  
C     3.7372290   -0.7849170   -0.8989150  
H     7.3183890   -1.6455950    0.7725270  
H     2.7792180   -0.5587320   -1.3552910  
H     3.1659940   -2.2979410    3.4603840  
H     5.6296360   -2.2666100    2.9214060  
C    -2.9731870    4.4827500   -1.1204750  
C    -2.4960420    3.3360240   -0.5508570  
C    -1.1043120    3.6794170   -0.1652890  
C    -0.9414250    5.0883370   -0.6126760  
N    -2.0383790    5.5446850   -1.1581370  
C     0.2899410    5.8037620   -0.4141830  
C     1.3022760    5.1681700    0.2267490  
O     2.5015560    5.7237140    0.4803370  
C     1.1533890    3.7654560    0.7254180  
O     2.1039490    3.2519180    1.3177900  
C    -0.1197140    3.0439610    0.4974090  
H     0.3834740    6.8261180   -0.7636120  
H     3.0141320    5.0323070    0.9521380  
H    -0.1798480    2.0345540    0.8951190  
H    -3.9573300    4.6403930   -1.5445810  
