60


C    -0.5882560   -2.2432400   -0.1378120  
C     0.7715160   -2.1872940   -0.3603450  
C     1.1252710   -0.8029550   -0.2987610  
C    -0.1551840   -0.0973490   -0.0149010  
N    -1.1460880   -0.9372880    0.0671070  
C    -0.2477660    1.3587960    0.1505110  
C     0.9384140    2.0238110    0.0076640  
O     1.0700870    3.3567470    0.1545700  
C     2.2404520    1.3578340   -0.3092150  
O     3.2163370    2.0973610   -0.4600020  
C     2.3035640   -0.1153810   -0.4383300  
H     1.4419670   -3.0148490   -0.5396450  
H     2.0230840    3.5338950   -0.0252320  
C    -1.1202410   -4.7177110   -0.1253530  
C    -1.4517640   -3.3803970   -0.0836980  
C    -2.9284230   -3.3875400    0.0206380  
C    -3.2828630   -4.8315330    0.0280910  
N    -2.2116940   -5.5900460   -0.0574510  
C    -4.6401610   -5.2823730    0.1129810  
C    -5.6137720   -4.3386650    0.1784190  
O    -6.9232350   -4.6113480    0.2577170  
C    -5.2901820   -2.8686990    0.1594300  
O    -6.2301710   -2.0788650    0.2107940  
C    -3.8773450   -2.4341470    0.0765320  
H    -4.8623660   -6.3436330    0.1191190  
H    -7.3715400   -3.7366000    0.2864830  
H    -3.6656740   -1.3713810    0.0627270  
H    -0.1236490   -5.1386730   -0.1934740  
C    -2.5443870    1.4282480    1.2001710  
C    -1.5192820    1.9864870    0.4810490  
C    -2.0347110    3.3261660    0.1159020  
C    -3.3929420    3.3720190    0.7371070  
N    -3.6695380    2.2646530    1.3724720  
C    -4.2556340    4.5149310    0.6111410  
C    -3.8137380    5.5635890   -0.1235170  
O    -4.5117040    6.6897810   -0.3354110  
C    -2.4657050    5.5389650   -0.7883040  
O    -2.1367500    6.5232720   -1.4482360  
C    -1.5926790    4.3565310   -0.6307800  
H    -5.2300220    4.5094410    1.0868050  
H    -3.9355940    7.2501700   -0.9011690  
H    -0.6221470    4.3956320   -1.1082860  
H    -2.5568910    0.4410310    1.6387430  
C     3.5913600   -1.7058380   -1.8089860  
C     4.8754390   -2.1429780   -1.9189380  
C     5.6578320   -1.4354320   -0.9392450  
C     4.7868900   -0.5478390   -0.2629510  
N     3.5039210   -0.7188170   -0.8146300  
C     5.2169770    0.2425620    0.8072830  
C     6.5535650    0.1636990    1.1708290  
O     7.0168410    0.9277410    2.2012600  
C     7.4428840   -0.7018750    0.4853640  
O     8.7373250   -0.6681180    0.9603530  
C     7.0087950   -1.5009900   -0.5579800  
H     5.2353130   -2.8742890   -2.6299720  
H     4.5674130    0.9232400    1.3411020  
H     7.9659950    0.7391960    2.2989410  
H     9.2904420   -1.2721040    0.4430390  
H     7.6981100   -2.1758390   -1.0612530  
H     2.7119670   -1.9557310   -2.3827440  
