60


C    -1.1858110    1.1744120    1.1568250  
C    -2.5376150    1.0609380    1.0233950  
C    -2.7931280    0.0420960    0.0392380  
C    -1.5311650   -0.4329250   -0.3972740  
N    -0.5436740    0.2812640    0.2936380  
C    -1.3925270   -1.5008930   -1.2838030  
C    -2.5585030   -2.1018330   -1.7373750  
O    -2.4865260   -3.1512580   -2.5952010  
C    -3.8359040   -1.6531620   -1.3177460  
O    -4.8801950   -2.3483500   -1.8829080  
C    -3.9872580   -0.5567700   -0.4584970  
H    -3.2689210    1.6551040    1.5509070  
H    -0.4339890   -1.8717910   -1.6233760  
H    -3.4086840   -3.4253200   -2.7612250  
H    -5.5199440   -2.5426460   -1.1658590  
H    -0.5977280    1.8534460    1.7558910  
C     2.5483560   -0.0456030    3.3674410  
C     1.3602780   -0.0061940    2.7112980  
C     1.6561270    0.0594810    1.2958810  
C     3.1290990    0.0506460    1.1778750  
N     3.6073720    0.0082590    2.4677540  
C     3.8411340    0.0986010    0.0025610  
C     3.0494100    0.0844390   -1.2359800  
O     3.5353410   -0.0761910   -2.3417420  
C     1.4875390    0.2205630   -1.1442380  
O     0.8612640    0.4116770   -2.1686510  
C     0.8449500    0.1345170    0.1909640  
H     0.3786160   -0.0339230    3.1582170  
H     2.7473140   -0.1112320    4.4285830  
H     4.5821180   -0.1077170    2.7042440  
C     7.2603130   -2.2609070    1.7478510  
C     5.9971100   -1.8622820    1.4445530  
C     6.1639470   -0.7053910    0.5713560  
C     7.6459130   -0.5612990    0.4526120  
N     8.2777550   -1.4684520    1.1486070  
C     8.2507620    0.4573290   -0.3638990  
C     7.4282230    1.2999490   -1.0295800  
O     7.8523110    2.2954080   -1.8223900  
C     5.9301100    1.2248770   -0.8902780  
O     5.2762180    2.1226950   -1.4073230  
C     5.3035510    0.1284840   -0.0765770  
H     5.0677520   -2.3349910    1.7297360  
H     9.3305050    0.5267310   -0.4340610  
H     7.0405360    2.7608570   -2.1211320  
H     7.5577330   -3.1016130    2.3641860  
C    -5.7663410    3.5404820   -0.3372360  
C    -4.9290670    2.5109800   -0.5990600  
C    -5.6173490    1.3185980   -0.1035720  
C    -6.8994220    1.8491710    0.4381550  
N    -6.9814930    3.1427260    0.3135680  
C    -7.8947820    0.9868120    1.0243830  
C    -7.6457350   -0.3412300    1.0263570  
O    -8.4999220   -1.2648560    1.5062410  
C    -6.3905710   -0.9049940    0.4321110  
O    -6.3173310   -2.1408510    0.3886450  
C    -5.3046390   -0.0085550   -0.0726180  
H    -3.9668130    2.5379600   -1.0881010  
H    -8.8129890    1.4042190    1.4220400  
H    -8.0797380   -2.1339290    1.3366910  
H    -5.6267960    4.5900480   -0.5658040  
