58


C     0.1528260    2.0709130   -0.1560140  
C     1.4831810    1.7140690   -0.0769000  
C     1.5155120    0.2895230   -0.1394690  
C     0.0728970   -0.1154120   -0.2799210  
N    -0.7069510    0.9238900   -0.2805300  
C    -0.3509970   -1.5096510   -0.3956620  
C     0.6715490   -2.4183710   -0.3592020  
O     0.4925600   -3.7445520   -0.4625990  
C     2.1195650   -2.0498200   -0.1996020  
O     2.9153760   -2.9891220   -0.1171450  
C     2.5240090   -0.6369150   -0.1216460  
H     2.3338630    2.3696820    0.0375610  
H     1.4017640   -4.1232210   -0.3920110  
C     0.1868520    4.5986470   -0.1235870  
C    -0.4397070    3.3675100   -0.1306490  
C    -1.8777190    3.7054510   -0.0999810  
C    -1.8972310    5.1941730   -0.0799320  
N    -0.6779730    5.6924750   -0.0948930  
C    -3.1163950    5.9422380   -0.0429050  
C    -4.2800200    5.2424200   -0.0177510  
O    -5.4928100    5.8023920    0.0201620  
C    -4.2964710    3.7327360   -0.0241660  
O    -5.3916670    3.1800870    0.0103260  
C    -3.0174250    2.9894570   -0.0677100  
H    -3.0917580    7.0260660   -0.0321300  
H    -6.1313020    5.0541720    0.0345570  
H    -3.0490130    1.9061900   -0.0697520  
H     1.2551540    4.7822430   -0.1466360  
C     5.1237380    1.6519780    2.7349530  
C     4.0276110    1.1086830    2.1514360  
C     4.5277450    0.4313000    0.9613200  
C     6.0047980    0.6797620    1.0007680  
N     6.3442090    1.3921670    2.0374720  
C     6.8923660    0.1497070   -0.0001750  
C     6.3497270   -0.5903520   -0.9941760  
O     7.0542890   -1.1340170   -1.9984570  
C     4.8680390   -0.8419010   -1.0819660  
O     4.4567220   -1.4331570   -2.0746940  
C     3.9561340   -0.3235470   -0.0134600  
H     3.0011970    1.1552950    2.4847630  
H     7.9565660    0.3491680    0.0574990  
H     6.3938220   -1.5757730   -2.5759070  
H     5.1687100    2.2357800    3.6468820  
C    -2.7105390   -1.0916700   -1.2002460  
C    -1.7607230   -1.8454320   -0.5648190  
C    -2.5127230   -3.0243040   -0.0793470  
C    -3.9097690   -2.7818250   -0.5529630  
N    -4.0068070   -1.6582850   -1.2106430  
C    -4.9815640   -3.7007910   -0.2794130  
C    -4.6992520   -4.8017350    0.4569560  
O    -5.5978080   -5.7382920    0.7969100  
C    -3.3117140   -5.0610900    0.9752010  
O    -3.1331170   -6.0763120    1.6454900  
C    -2.2247760   -4.1072530    0.6679880  
H    -5.9785330   -3.4914920   -0.6508390  
H    -5.0986880   -6.3987070    1.3265320  
H    -1.2389480   -4.3494170    1.0439560  
H    -2.5556950   -0.1389040   -1.6860140  
