58


C     2.1549930    2.2029000    2.4449500  
C     0.9923110    1.8678120    1.8293320  
C     1.3313950    1.0535470    0.6804420  
C     2.8020440    0.9445380    0.6767750  
N     3.2430290    1.6909090    1.7452790  
C     3.5603730    0.1772700   -0.1837520  
C     2.8125260   -0.5405730   -1.2402010  
O     3.3422370   -1.1636080   -2.1386610  
C     1.2449400   -0.4235710   -1.2666320  
O     0.6465340   -0.9525070   -2.1835110  
C     0.5495020    0.3938940   -0.2358980  
H    -0.0022980    2.1433780    2.1442530  
H     2.3180270    2.7844350    3.3423990  
H     4.1927310    1.6402500    2.0883580  
C    -2.4124080    3.7263390   -0.4783680  
C    -1.2723670    2.9908960   -0.3887950  
C    -1.6579340    1.5978680   -0.3496410  
C    -3.1304830    1.5780400   -0.4471440  
N    -3.5226730    2.8987640   -0.5395930  
C    -3.9371060    0.4594410   -0.4551760  
C    -3.2235610   -0.8265300   -0.3301860  
O    -3.7864290   -1.9086760   -0.3303240  
C    -1.6578550   -0.8318140   -0.1843860  
O    -1.1216260   -1.8913740    0.0811740  
C    -0.9134360    0.4432650   -0.2764340  
H    -0.2644980    3.3750840   -0.3603000  
H    -2.5373620    4.8000480   -0.5227600  
H    -4.4845420    3.1991890   -0.4818590  
C     4.9994850    0.0695740   -0.0700350  
C     5.8976720    1.0261310    0.3524990  
C     7.1939660    0.3955760    0.3061910  
C     6.9011820   -1.0021160   -0.1507530  
N     5.6336170   -1.1857810   -0.3742250  
C     7.9489510   -1.9794140   -0.3006900  
C     9.2173910   -1.5837660   -0.0421160  
O    10.2927230   -2.3766840   -0.1474540  
C     9.5453480   -0.1749220    0.4003330  
O    10.7310870    0.0840320    0.6131050  
C     8.4620700    0.7977440    0.5639740  
H     5.7082190    2.0743840    0.5422460  
H     7.7096140   -2.9861450   -0.6240910  
H    11.0562270   -1.8078950    0.1011110  
H     8.7350770    1.7957320    0.8932290  
C    -6.0857860    1.4333010   -1.3839030  
C    -5.3788050    0.5220700   -0.6380100  
C    -6.4403600   -0.3272040   -0.0361690  
C    -7.7092480    0.2659380   -0.5423740  
N    -7.4849700    1.2828650   -1.3353060  
C    -8.9979670   -0.2566980   -0.1797930  
C    -9.0372120   -1.3161360    0.6640490  
O   -10.1655630   -1.9008540    1.0935610  
C    -7.7777790   -1.9306850    1.2042930  
O    -7.8890660   -2.8805540    1.9763180  
C    -6.4623180   -1.3836860    0.7982110  
H    -9.8971680    0.2016280   -0.5761260  
H    -9.8740380   -2.6300630    1.6843050  
H    -5.5811020   -1.8874650    1.1749130  
H    -5.6782400    2.1977700   -2.0360020  
