64


C     1.7149890   -0.5026400   -1.2583160  
C     2.7335470   -0.1921570   -0.3817380  
C     2.2611350    0.9432110    0.3852390  
C     0.9532980    1.2539150   -0.0720730  
N     0.6580080    0.3619270   -1.0807120  
C     0.1857410    2.3364000    0.4229450  
C     0.8260120    3.1095830    1.3909150  
O     0.1814370    4.2100850    1.9257090  
C     2.1331540    2.8262020    1.8533790  
O     2.5824670    3.7150630    2.8114480  
C     2.8577460    1.7552420    1.3715670  
H    -0.2266220    0.3174970   -1.5636260  
H     0.7835130    4.5988930    2.5871160  
H     3.4709830    3.4611920    3.1023900  
H     3.8630630    1.5531770    1.7304690  
H     1.6664090   -1.2903200   -1.9965870  
C     5.8161710   -1.3356070   -3.4544100  
C     4.7031960   -0.8428180   -2.8248220  
C     4.8410380   -1.1361730   -1.4248040  
C     6.0799660   -1.8121630   -1.2660310  
N     6.6491420   -1.9221910   -2.5188460  
C     6.5622100   -2.2388430   -0.0226760  
C     5.7699230   -1.9783910    1.0835800  
O     6.1757200   -2.3841620    2.3241010  
C     4.5300100   -1.3046280    0.9483250  
O     3.8540160   -1.1398670    2.1466700  
C     4.0398110   -0.8711700   -0.2826660  
H     3.8862800   -0.3184970   -3.2994320  
H     7.5342440   -2.3604850   -2.7183480  
H     7.5062720   -2.7598380    0.0999950  
H     5.4542030   -2.1670600    2.9398350  
H     2.9433170   -0.8620530    1.9534480  
H     6.0921820   -1.3174970   -4.4993650  
C    -3.4510910   -0.2783400   -0.1977180  
C    -2.2015570    0.2405430    0.1644510  
C    -2.1628700    1.6044560   -0.2151120  
C    -3.4347250    1.9004890   -0.7987700  
N    -4.1768170    0.7526840   -0.7830680  
C    -3.7843270    3.1774140   -1.2501590  
C    -2.8378690    4.1725830   -1.0803290  
O    -3.1039680    5.4415300   -1.4661960  
C    -1.5543780    3.9063320   -0.5004550  
O    -0.7472890    5.0167260   -0.4445450  
C    -1.1759300    2.6345900   -0.0872710  
H    -1.4398810   -0.2952100    0.7076540  
H    -5.1487920    0.6424450   -1.0400500  
H    -4.7493680    3.4078210   -1.6878920  
H    -2.3126480    5.9637320   -1.2274020  
H    -0.2991470    5.0216140    0.4309910  
C    -1.7489940   -4.3129520    0.8256170  
C    -1.8198190   -3.0069920    0.4521900  
C    -3.2414220   -2.7211920    0.3118960  
C    -3.8880460   -4.0067230    0.6356050  
N    -3.0175280   -4.9350470    0.9486040  
C    -5.3177960   -4.1852960    0.5892130  
C    -6.0758110   -3.1359240    0.2012340  
O    -7.4198120   -3.1813030    0.0763550  
C    -5.4648880   -1.8225500   -0.1530110  
O    -6.2393010   -0.9460170   -0.5574620  
C    -3.9802670   -1.6048140   -0.0120260  
H    -0.9932060   -2.3419670    0.2507810  
H    -5.7512670   -5.1477880    0.8380110  
H    -7.6849260   -2.2919470   -0.2378770  
H    -0.8593450   -4.9012760    1.0167950  
