58


C    -2.7191010    0.5396170    0.1812730  
C    -1.3690380    0.7392590   -0.0389320  
C    -1.0823300    2.1058330    0.2341000  
C    -2.3688720    2.7256280    0.6123650  
N    -3.3391340    1.7245690    0.5410130  
C    -2.5415820    4.0215060    0.9566000  
C    -1.3776960    4.9046470    0.8942300  
O    -1.4255610    6.0842690    1.1931570  
C    -0.0173930    4.3069270    0.3945140  
O     0.9052760    5.0948970    0.2142700  
C     0.0916060    2.8551390    0.1748700  
H    -0.6967160    0.0029540   -0.4483610  
H    -3.4957230    4.4460920    1.2522730  
H    -4.2100230    1.7677190    1.0509820  
C    -2.7975360   -1.9107790    0.1482350  
C    -3.7107920   -2.8998740    0.0876910  
C    -5.0223320   -2.2964440   -0.0443690  
C    -4.8079970   -0.8300820   -0.0716330  
N    -3.4194820   -0.6365200    0.0816110  
C    -5.8001800    0.0706170   -0.2710080  
C    -7.1794560   -0.4226990   -0.3994410  
O    -8.1216930    0.3302180   -0.5708180  
C    -7.4286640   -1.9659280   -0.3131670  
O    -8.5674460   -2.3915010   -0.3892390  
C    -6.2588890   -2.8403070   -0.1565960  
H    -3.4985180   -3.9584720    0.1358780  
H    -5.6515610    1.1373070   -0.3854350  
H    -6.4280190   -3.9125980   -0.1472740  
H    -1.7241210   -1.9705250    0.2563020  
C     1.3834980    2.2565310   -0.0807490  
C     1.7671590    0.9296020    0.0333810  
C     3.1418600    0.8267460   -0.3159420  
C     3.5880990    2.2063720   -0.6245430  
N     2.4794680    3.0135440   -0.4815760  
C     4.8598140    2.5409320   -0.9587290  
C     5.8613160    1.4794690   -1.0252070  
O     7.0356160    1.6917330   -1.2809200  
C     5.4039350   -0.0011510   -0.7703760  
O     6.2002330   -0.9010570   -0.9802180  
C     4.0082090   -0.2494180   -0.3545630  
H     1.1535830    0.1185520    0.3822800  
H     5.1761740    3.5595410   -1.1600050  
H     2.4457760    4.0262040   -0.4850050  
C     0.6435520   -2.9639550   -1.5829850  
C     1.4855310   -1.8985350   -1.5354460  
C     2.4853060   -2.2474520   -0.5311160  
C     2.0763160   -3.6070670   -0.0810220  
N     0.9876610   -4.0126990   -0.6844460  
C     2.8363140   -4.3486390    0.8904820  
C     3.9492210   -3.7667090    1.3933830  
O     4.7531660   -4.3407800    2.3007210  
C     4.3596740   -2.3662570    1.0133240  
O     5.2839000   -1.8697850    1.6448680  
C     3.5837080   -1.6122990   -0.0308940  
H     1.4627080   -1.0020210   -2.1379700  
H     2.5187570   -5.3417230    1.1884140  
H     5.4344350   -3.6653540    2.5137990  
H    -0.2138540   -3.1012640   -2.2330340  
