60


C    -2.6633040    1.2053030    0.0808720  
C    -1.3740000    0.6949240    0.0933060  
C    -1.5099910   -0.7493440    0.0034050  
C    -2.8907060   -1.0383230   -0.0498470  
N    -3.5817240    0.1883150    0.0035120  
C    -3.3881080   -2.3371560   -0.1715990  
C    -2.4642620   -3.3723130   -0.2060520  
O    -2.8959520   -4.6609340   -0.3089960  
C    -1.0753740   -3.1016070   -0.1265920  
O    -0.2780790   -4.2291220   -0.1690100  
C    -0.5892590   -1.8100770   -0.0269010  
H    -4.4455230   -2.5645260   -0.2034470  
H    -2.1087310   -5.2315080   -0.2681080  
H     0.6204090   -3.9957870    0.1086950  
H     0.4753300   -1.6044810    0.0185000  
H    -2.9950420    2.2320980    0.1018580  
C    -0.1756640    1.4747400    0.1854670  
C    -0.0120430    2.8035080    0.5035450  
C     1.3924870    3.0618630    0.4349570  
C     1.9967450    1.7427990    0.0375450  
N     1.0846520    0.8272620   -0.0946880  
C     3.4317690    1.5666360   -0.1651030  
C     4.1857880    2.6865510    0.0398500  
O     5.5130150    2.7395710   -0.1434800  
C     3.6076580    4.0148470    0.4717970  
O     4.4171510    4.9371530    0.6214880  
C     2.1734740    4.1517920    0.6571880  
H    -0.7777880    3.5122570    0.7866890  
H     5.7541660    3.6697580    0.0859760  
H     1.7928760    5.1236480    0.9543000  
C     3.3316580   -0.5812140   -1.4627530  
C     3.9638620    0.2706210   -0.5982460  
C     5.2046040   -0.3979520   -0.2008730  
C     5.2358740   -1.6892870   -0.9352780  
N     4.0686470   -1.7358110   -1.6719290  
C     6.2288500   -2.6106420   -0.8513660  
C     7.3489430   -2.3428440    0.0430700  
O     8.2884980   -3.1106520    0.1882610  
C     7.3220800   -1.0038460    0.8643490  
O     8.2377670   -0.7672220    1.6370160  
C     6.1962270   -0.0827620    0.6728140  
H     6.2232320   -3.5443720   -1.4057650  
H     6.2125930    0.8445140    1.2310130  
H     2.3752610   -0.4498010   -1.9466040  
H     3.8298760   -2.4640870   -2.3267880  
C    -6.8382290   -1.4056780    2.4228690  
C    -7.9132700   -0.8372430    1.8329800  
C    -7.3710110   -0.0273560    0.7451520  
C    -5.8939320   -0.2570610    0.8296330  
N    -5.5889250   -1.0515610    1.8089960  
C    -4.9760090    0.3867870   -0.0991990  
C    -5.5137040    1.2424470   -1.0142870  
O    -4.7891250    1.9332080   -1.9078600  
C    -6.9912240    1.4857030   -1.1048990  
O    -7.3807470    2.2528990   -1.9842420  
C    -7.9050480    0.8022450   -0.1707490  
H    -8.9558770   -0.9345870    2.1014220  
H    -5.4482300    2.4355700   -2.4386840  
H    -8.9654360    1.0122920   -0.2706980  
H    -6.8151670   -2.0740090    3.2746580  
