60


C    -3.3723090   -1.6593420    0.1472130  
C    -4.3521410   -0.6968780   -0.0513310  
C    -3.6435670    0.5350180   -0.3555930  
C    -2.2603100    0.2385170   -0.3167380  
N    -2.1349670   -1.1070370   -0.0222430  
C    -1.2357970    1.1968330   -0.5039520  
C    -1.6740440    2.5066030   -0.7286980  
O    -0.7701640    3.5038920   -0.9478020  
C    -3.0547170    2.8227020   -0.7640460  
O    -3.3034380    4.1587920   -1.0053860  
C    -4.0356100    1.8674900   -0.5849460  
H    -1.2553680   -1.5898280    0.0849540  
H    -1.2792980    4.3114730   -1.1432340  
H    -4.2494190    4.2921930   -1.1669970  
H    -5.0836610    2.1385330   -0.6436300  
H    -3.4880750   -2.7146650    0.3461200  
C     0.7486420   -0.2937470   -1.0474910  
C     0.1783600    0.8131850   -0.4925300  
C     1.3067200    1.4859450    0.1886220  
C     2.4850440    0.6169560   -0.0860620  
N     2.1424670   -0.4111310   -0.8073400  
C     3.8243470    0.9346180    0.4213990  
C     3.8999960    2.0681250    1.1927310  
O     5.0363880    2.5286510    1.7572920  
C     2.7246690    2.9330690    1.4985570  
O     2.9213310    3.9252020    2.2051340  
C     1.4020620    2.5864470    0.9548780  
H     4.7649900    3.3466950    2.2380570  
H     0.5763120    3.2523400    1.1748010  
H     0.2706420   -1.0434750   -1.6672070  
C     4.9682870    0.0893760    0.1244370  
C     5.0313290   -1.0576280   -0.6344130  
C     6.3917810   -1.5200710   -0.6237870  
C     7.1542590   -0.5553470    0.2073840  
N     6.2443890    0.3849940    0.6275600  
C     8.4861140   -0.6475200    0.4596570  
C     9.2271630   -1.7634060   -0.1167170  
O    10.4258650   -1.9305850    0.0544050  
C     8.4388240   -2.7997030   -1.0007830  
O     9.0430090   -3.7419680   -1.4910640  
C     7.0031650   -2.5923900   -1.2014630  
H     4.1935430   -1.5116020   -1.1372610  
H     9.0283860    0.0680520    1.0699950  
H     6.4688000   -3.3125110   -1.8137830  
H     6.4434730    1.1874610    1.2055310  
C    -6.8072220   -3.3140080    2.6041890  
C    -5.7627610   -2.6069360    2.1062020  
C    -6.3088740   -1.8551420    0.9784700  
C    -7.7414380   -2.2399950    0.9605000  
N    -8.0291950   -3.0982250    1.9020400  
C    -8.6685190   -1.6939700    0.0002780  
C    -8.1931600   -0.7911720   -0.8850610  
O    -8.9473680   -0.1792140   -1.8188390  
C    -6.7507330   -0.3739940   -0.8953280  
O    -6.4243280    0.4654180   -1.7343270  
C    -5.7759780   -0.9831390    0.0708340  
H    -4.7508540   -2.5658610    2.4823180  
H    -9.7090940   -1.9986690    0.0147120  
H    -8.3293450    0.4017710   -2.3119700  
H    -6.8117640   -3.9865810    3.4536760  
