58


C     1.2939040   -0.3085630    3.4240880  
C     2.5572160   -0.1646400    2.9434930  
C     2.5212700   -0.4363410    1.5227010  
C     1.1107770   -0.7336650    1.2061160  
N     0.4159960   -0.6301230    2.3967800  
C     0.6052990   -1.0505850   -0.0286320  
C     1.5653330   -1.0263500   -1.1394080  
O     1.2405360   -1.1476160   -2.3072440  
C     3.0843260   -0.7534870   -0.8286750  
O     3.8596090   -0.7983190   -1.7683720  
C     3.5160080   -0.4603590    0.5623380  
H     3.4223250    0.1264370    3.5181540  
H     0.9242590   -0.1899570    4.4337870  
H    -0.5409060   -0.9272190    2.5143870  
C    -3.0612240    1.2841170    0.5749140  
C    -4.0127570    0.3849170    0.1657330  
C    -3.2832690   -0.8162300   -0.2562420  
C    -1.8495570   -0.5375350   -0.0071320  
N    -1.7938060    0.7367090    0.5325310  
C    -0.8059430   -1.3733050   -0.2894460  
C    -1.1523080   -2.6823370   -0.8885590  
O    -0.3279570   -3.5579920   -1.0772300  
C    -2.6539260   -2.9626410   -1.2404830  
O    -2.9372690   -4.0045900   -1.8098230  
C    -3.6640400   -1.9722250   -0.8620650  
H    -4.6962950   -2.2069900   -1.0837950  
H    -3.2076330    2.3047330    0.8936040  
H    -0.9384830    1.2647770    0.6259160  
C     5.5633280   -0.7058140    2.0202230  
C     4.9244050   -0.2943500    0.8767930  
C     6.0027030    0.3672170    0.0976350  
C     7.2026440    0.2553370    0.9753830  
N     6.9317320   -0.3846210    2.0847490  
C     8.4804780    0.7960510    0.6021510  
C     8.5721150    1.4403190   -0.5862130  
O     9.6947410    2.0006340   -1.0605330  
C     7.3796940    1.5857910   -1.4891970  
O     7.5338330    2.1967190   -2.5446900  
C     6.0801890    1.0018950   -1.0873310  
H     9.3284080    0.6860320    1.2689440  
H     9.4465760    2.3859060   -1.9300360  
H     5.2613760    1.0942210   -1.7895380  
H     5.1308900   -1.2779960    2.8317340  
C    -6.1117710    4.1694410   -0.4980440  
C    -7.4084940    3.7905280   -0.4921570  
C    -7.3841670    2.3535320   -0.2391290  
C    -5.9276650    2.0220380   -0.1266880  
N    -5.1968510    3.0879380   -0.2760630  
C    -5.4486780    0.6593410    0.1181190  
C    -6.4293850   -0.2756420    0.3090050  
O    -6.1862580   -1.5611610    0.6301340  
C    -7.8887540    0.0333620    0.2028740  
O    -8.6833290   -0.8891930    0.3907600  
C    -8.3303930    1.4092330   -0.0943620  
H    -8.2877530    4.4020480   -0.6391090  
H    -7.0742740   -1.9813080    0.6912520  
H    -9.3993510    1.5862240   -0.1634270  
H    -5.7040370    5.1616160   -0.6487030  
