62


C    -0.1432240    1.9786620    0.2477700  
C     1.2058180    1.6698630    0.1777510  
C     1.3204720    0.2824250   -0.1255580  
C     0.0008900   -0.2295010   -0.2468910  
N    -0.8674590    0.8245010   -0.0513970  
C    -0.2981330   -1.5867430   -0.5049780  
C     0.8167210   -2.4201010   -0.6554840  
O     0.6465570   -3.7487860   -0.9112470  
C     2.1423560   -1.9202780   -0.5677260  
O     3.1040240   -2.8880840   -0.7501010  
C     2.4324610   -0.5811120   -0.3150760  
H     2.0177970    2.3720310    0.2984290  
H    -1.8491280    0.6992720    0.1509750  
H     1.5360010   -4.1414800   -0.9777190  
H     3.9778240   -2.5001690   -0.5662980  
C     4.8646450    1.1961770    3.0490910  
C     3.8530320    0.6572330    2.2973810  
C     4.3817720    0.4269140    0.9824390  
C     5.7386380    0.8476180    1.0010210  
N     6.0032490    1.3116850    2.2728180  
C     6.5810030    0.7574170   -0.1140140  
C     6.0420110    0.2339540   -1.2778700  
O     6.8094280    0.1364100   -2.4015610  
C     4.6912640   -0.2004770   -1.3192410  
O     4.2994910   -0.6898360   -2.5501310  
C     3.8431650   -0.1195610   -0.2124230  
H     2.8480740    0.4514640    2.6360570  
H     6.8879750    1.6793550    2.5856030  
H     7.6154740    1.0852570   -0.1010940  
H     6.2345500   -0.1971480   -3.1124810  
H     3.3293490   -0.7558850   -2.5664800  
H     4.8722780    1.5115510    4.0829050  
C    -2.7269440   -1.4349470   -1.2345050  
C    -1.6810680   -2.0598910   -0.6185430  
C    -2.2951010   -3.2745230   -0.0333620  
C    -3.7310000   -3.1855060   -0.4260970  
N    -3.9707810   -2.1130830   -1.1290860  
C    -4.6873580   -4.1905170   -0.0405580  
C    -4.2498140   -5.2233020    0.7182920  
O    -5.0295990   -6.2262400    1.1551030  
C    -2.8136650   -5.3290020    1.1475660  
O    -2.4909540   -6.2934550    1.8393080  
C    -1.8481990   -4.2892260    0.7288710  
H    -5.7221970   -4.0991130   -0.3513780  
H    -4.4346540   -6.8120730    1.6726760  
H    -0.8172730   -4.4158660    1.0371600  
H    -2.6903200   -0.5180100   -1.8118520  
C    -0.2952090    4.2765250    1.2885360  
C    -0.7860620    3.2293190    0.5589610  
C    -2.1279150    3.6918750    0.1263200  
C    -2.2534300    5.0491790    0.7238390  
N    -1.1760710    5.3778290    1.3879550  
C    -3.4308080    5.8508520    0.5335330  
C    -4.4284590    5.3487850   -0.2360490  
O    -5.5805810    5.9938020   -0.4939770  
C    -4.3178240    4.0033370   -0.8815310  
O    -5.2550710    3.6102500   -1.5756330  
C    -3.0960380    3.1935430   -0.6650850  
H    -3.4963140    6.8316580    0.9915530  
H    -6.0919160    5.3911310   -1.0765360  
H    -3.0532080    2.2372640   -1.1773480  
H     0.6627630    4.3277710    1.7914290  
