58


C     2.6678040   -1.6631400   -0.1356500  
C     3.6075300   -0.6640370   -0.0539040  
C     2.8740840    0.5502920    0.3284690  
C     1.4534270    0.1551160    0.4557170  
N     1.4076910   -1.1928810    0.1552940  
C     0.4171280    0.9957220    0.7627350  
C     0.7735600    2.3992810    1.0707680  
O    -0.0335480    3.2003890    1.5053340  
C     2.2648420    2.8446430    0.8904370  
O     2.5486040    4.0180330    1.0579290  
C     3.2675610    1.8327610    0.5338670  
H     4.3026160    2.1334440    0.4276240  
H     2.8064180   -2.7060440   -0.3873550  
H     0.5720320   -1.7581720    0.2068530  
C    -1.9140000   -2.2288820    2.8323300  
C    -0.8880420   -1.4375000    2.4355210  
C    -1.4862650   -0.4677850    1.5250020  
C    -2.9344330   -0.8342270    1.4987930  
N    -3.1650380   -1.8689990    2.2577410  
C    -3.9295540   -0.0967060    0.7123420  
C    -3.4251010    0.9743850    0.0216130  
O    -4.1800980    1.8017520   -0.7294100  
C    -1.9793990    1.3355120   -0.0107200  
O    -1.6410860    2.2381270   -0.7741260  
C    -0.9883010    0.5807070    0.8210830  
H     0.1432050   -1.4732150    2.7575920  
H    -3.5428300    2.4423340   -1.1202630  
H    -1.8856600   -3.0626640    3.5237150  
C    -5.9628110   -1.1904500    1.7354870  
C    -5.3286230   -0.5028360    0.7305830  
C    -6.3822030   -0.3348320   -0.2988720  
C    -7.5861590   -0.9789160    0.3106170  
N    -7.3269490   -1.4625350    1.4957190  
C    -8.8504880   -1.0482920   -0.3699430  
C    -8.9248050   -0.5369240   -1.6216680  
O   -10.0309420   -0.5411730   -2.3801980  
C    -7.7250160    0.0830160   -2.2818600  
O    -7.8625120    0.5130450   -3.4257700  
C    -6.4418870    0.1567000   -1.5521530  
H    -9.6991710   -1.5134280    0.1190020  
H    -9.7695250   -0.1103320   -3.2240700  
H    -5.6159900    0.6337320   -2.0626670  
H    -5.5168120   -1.5329340    2.6571430  
C     5.0195270   -0.8053780   -0.3011170  
C     5.7262220   -1.9216030   -0.6800240  
C     7.0959380   -1.5035870   -0.7807480  
C     7.0647290   -0.0436610   -0.4183990  
N     5.8570340    0.3533510   -0.1420080  
C     8.2588460    0.7575790   -0.3992480  
C     9.4233280    0.1467530   -0.7221730  
O    10.6124490    0.7557930   -0.7493810  
C     9.4890750   -1.3251370   -1.0930270  
O    10.6026190   -1.7739060   -1.3684610  
C     8.2625800   -2.1175740   -1.1050460  
H     5.3485480   -2.9166520   -0.8712690  
H     8.2093030    1.8078090   -0.1345180  
H    11.2532340    0.0566400   -1.0163780  
H     8.3470250   -3.1655530   -1.3748530  
