58


C     0.5944930    2.3661320   -0.0030420  
C     1.1180400    1.1163140    0.2100490  
C     2.4506620    1.1485500   -0.3342770  
C     2.6021520    2.5473890   -0.8439290  
N     1.5306730    3.2554720   -0.6449230  
C     3.8178570    2.9929470   -1.4721810  
C     4.8207680    2.0939210   -1.5985770  
O     6.0021580    2.3616960   -2.1743420  
C     4.6870950    0.6631220   -1.1354100  
O     5.6120400   -0.0964650   -1.4113870  
C     3.4486740    0.2267360   -0.4372670  
H     0.6435440    0.2819680    0.7015850  
H     3.9056650    4.0130760   -1.8285080  
H     6.4949410    1.5108040   -2.1589400  
C    -3.4354600    0.4119360    0.0594510  
C    -2.0757530    0.6210320   -0.0620250  
C    -1.8584470    1.9998010    0.2656170  
C    -3.2299710    2.5222720    0.5677030  
N    -4.1388250    1.6011460    0.4482860  
C    -3.4629220    3.8936810    0.9253820  
C    -2.3901560    4.7164120    0.9721270  
O    -2.4530160    6.0140180    1.2963530  
C    -0.9825550    4.2329620    0.6975040  
O    -0.0889980    5.0551020    0.8729550  
C    -0.7488870    2.8155200    0.3012880  
H    -1.3430900   -0.1103520   -0.3572520  
H    -4.4680130    4.2371710    1.1429870  
H    -1.5187550    6.3255260    1.2818820  
C    -2.0665020   -3.7642920   -0.3877840  
C    -3.2382620   -4.4281320   -0.4899840  
C    -4.2647380   -3.4001190   -0.4263350  
C    -3.5029560   -2.1114820   -0.2741950  
N    -2.2222400   -2.3423350   -0.2601410  
C    -4.1786400   -0.8143520   -0.1444600  
C    -5.5593690   -0.8652890   -0.2154570  
O    -6.3719810    0.1839500   -0.1683950  
C    -6.3251210   -2.1585620   -0.3850520  
O    -7.5520990   -2.0775620   -0.4386650  
C    -5.6084410   -3.4330920   -0.4791530  
H    -3.4009570   -5.4917550   -0.5934670  
H    -7.2802860   -0.1950780   -0.2489620  
H    -6.2003120   -4.3362850   -0.5912310  
H    -1.0627410   -4.1710150   -0.3842430  
C     6.0260890   -2.0575290    2.2782660  
C     5.4621920   -3.2857900    2.2538810  
C     4.3037930   -3.1536090    1.3742110  
C     4.3495010   -1.7264960    0.9251190  
N     5.3397230   -1.0886770    1.4696900  
C     3.3472640   -1.1668860    0.0276590  
C     2.3242360   -1.9966510   -0.3294330  
O     1.3205050   -1.6283540   -1.1402270  
C     2.2530820   -3.4289660    0.1209480  
O     1.3012900   -4.1042440   -0.2726240  
C     3.3048740   -3.9738460    0.9966800  
H     5.7738110   -4.1787680    2.7773860  
H     0.7263090   -2.4058150   -1.2141450  
H     3.2052520   -5.0100910    1.3051320  
H     6.9045720   -1.7355570    2.8241230  
