60


C    -1.0944880   -2.0658240   -0.1577580  
C    -1.8063890   -0.8795000   -0.0475220  
C    -3.1746150   -1.1680340   -0.2901740  
C    -3.2615960   -2.5656310   -0.5438910  
N    -1.9962830   -3.0995090   -0.4189950  
C    -4.4641940   -3.2122230   -0.8396630  
C    -5.6103190   -2.4358590   -0.8490640  
O    -6.8051510   -3.0070050   -1.1315350  
C    -5.5622900   -1.0390580   -0.5551140  
O    -6.7992810   -0.4524100   -0.6233400  
C    -4.3646250   -0.3778330   -0.2832130  
H    -1.3747680    0.0746640    0.2151870  
H    -1.7251700   -3.9835040   -0.8263590  
H    -4.5319470   -4.2748320   -1.0464610  
H    -7.4853440   -2.3114300   -1.0814410  
H    -6.7660290    0.4617510   -0.2958830  
C     0.3029330   -2.3062920    0.0113880  
C     1.3636570   -1.4196090   -0.0553810  
C     2.5713810   -2.1355330    0.1751060  
C     2.1708650   -3.5437210    0.3784440  
N     0.7889580   -3.5980360    0.2289260  
C     3.0127910   -4.5661990    0.6615000  
C     4.4396940   -4.2800140    0.7012070  
O     5.2836370   -5.1211310    0.9627220  
C     4.9131530   -2.8245860    0.3580680  
O     6.1235570   -2.6575680    0.2382120  
C     3.9123930   -1.7516900    0.2030010  
H     1.2732050   -0.3854910   -0.3451610  
H     2.6837670   -5.5855480    0.8375360  
H     0.2361910   -4.3176100    0.6747540  
C     4.3454080   -0.3718840    0.0967650  
C     3.6390200    0.8041400    0.2847090  
C     4.5419690    1.9021970    0.1074890  
C     5.8639510    1.3007400   -0.2011030  
N     5.6732560   -0.0608720   -0.2059140  
C     6.9951020    2.0185660   -0.4242200  
C     6.9188650    3.4744890   -0.3639500  
O     7.8835500    4.2016370   -0.5520060  
C     5.5263660    4.1335910   -0.0425190  
O     5.4468810    5.3535880    0.0080810  
C     4.3814710    3.2559340    0.1824570  
H     2.6092800    0.8918870    0.5906550  
H     7.9547440    1.5623240   -0.6462260  
H     3.4262820    3.7213070    0.4074650  
H     6.3811900   -0.7845120   -0.2454590  
C    -6.5400060    2.3767590    2.4995530  
C    -6.0884900    1.2464450    1.8987970  
C    -5.1279460    1.7077620    0.8990120  
C    -5.1362020    3.1963240    1.0559610  
N    -5.9654260    3.5774360    1.9867970  
C    -4.3067850    4.0492290    0.2480150  
C    -3.5044970    3.4586110   -0.6670680  
O    -2.6766810    4.1302000   -1.4801190  
C    -3.4758950    1.9633820   -0.8613310  
O    -2.7321230    1.5303280   -1.7352920  
C    -4.3486680    1.0754690   -0.0215100  
H    -6.3388110    0.2218390    2.1349580  
H    -4.3341480    5.1243250    0.3852560  
H    -2.2420680    3.4548080   -2.0445560  
H    -7.2570880    2.4548850    3.3082970  
