60


C    -2.7888660   -1.8658590    0.2692890  
C    -1.4722220   -1.4270010    0.1756570  
C    -0.6338460   -2.5441240    0.4273940  
C    -1.4821120   -3.6668930    0.6680380  
N    -2.7776970   -3.2228480    0.5693810  
C    -0.9907990   -4.9498530    0.9255750  
C     0.3870060   -5.1097200    0.9485420  
O     0.9231850   -6.3289300    1.1908900  
C     1.2672440   -4.0062360    0.7411610  
O     2.6010860   -4.3144350    0.8814370  
C     0.7689020   -2.7349190    0.4857560  
H    -1.1938070   -0.4114700   -0.0617960  
H    -3.5988630   -3.7984870    0.6742320  
H    -1.6341840   -5.8066290    1.0937490  
H     1.8925850   -6.2290230    1.1486380  
H     3.1419180   -3.8057470    0.2487820  
C     1.6481710   -0.4811790    1.0989560  
C     2.6716780    0.3505720    0.7653790  
C     3.4110160   -0.2799540   -0.3207230  
C     2.7056620   -1.5533450   -0.5924970  
N     1.6533750   -1.6336630    0.3101030  
C     3.0717380   -2.4360500   -1.5641030  
C     4.2450780   -2.1230880   -2.3829970  
O     4.6330020   -2.8441590   -3.2867970  
C     5.0305790   -0.7986380   -2.0728270  
O     6.0400060   -0.5433910   -2.7054700  
C     4.5109810    0.0897630   -1.0214070  
H     2.4894740   -3.3170400   -1.8188070  
H     5.0355780    1.0229340   -0.8424170  
H     0.8930330   -0.3625980    1.8639490  
C     3.4931790    1.7067370    2.6970660  
C     3.7096190    3.0061220    3.0115380  
C     3.3402600    3.7998220    1.8573070  
C     2.8781690    2.8393270    0.8262070  
N     2.9944200    1.5675490    1.3919790  
C     2.4271470    3.1892710   -0.4031930  
C     2.4003950    4.6104410   -0.7517220  
O     2.0083610    5.0200490   -1.8324220  
C     2.8975160    5.6468440    0.3212680  
O     2.8866200    6.8357830    0.0458900  
C     3.3521100    5.1373260    1.6187260  
H     4.0921650    3.3826620    3.9491760  
H     2.0814290    2.4729930   -1.1408290  
H     3.6838480    5.8618250    2.3562790  
H     3.6543710    0.8147000    3.2878930  
C    -3.9791690   -1.0975710    0.0950680  
C    -5.2991500   -1.4739180    0.1666780  
C    -6.0554090   -0.2803630   -0.0962570  
C    -5.0108550    0.7776830   -0.3158130  
N    -3.8061960    0.2979000   -0.2029650  
C    -5.3698960    2.1395300   -0.6114990  
C    -6.6891890    2.4354150   -0.6854500  
O    -7.1753450    3.6528090   -0.9508650  
C    -7.7664510    1.3899250   -0.4688520  
O    -8.9347220    1.7738380   -0.5597600  
C    -7.3791450    0.0151430   -0.1703680  
H    -5.7092520   -2.4535150    0.3729000  
H    -4.5997250    2.8864650   -0.7679790  
H    -8.1545280    3.5445100   -0.9364420  
H    -8.1749310   -0.7079220   -0.0214220  
