62


C    -1.5964800   -0.7206600    0.5393460  
C    -2.9088230   -0.3197380    0.6924700  
C    -2.9219520    1.1103240    0.4556280  
C    -1.5921690    1.5001140    0.1654390  
N    -0.7911070    0.3599630    0.2236830  
C    -1.2338050    2.8207150   -0.1229300  
C    -2.2377830    3.7755990   -0.0973520  
O    -1.9433220    5.0792340   -0.3690800  
C    -3.5729110    3.4116960    0.2203910  
O    -4.4544320    4.4743960    0.2257000  
C    -3.9218660    2.1027160    0.4984160  
H    -0.2142820    3.1141680   -0.3413980  
H    -2.7691560    5.5860010   -0.2826850  
H    -5.3386250    4.1634770    0.4703500  
H    -4.9484580    1.8538030    0.7553180  
H    -1.1660990   -1.7077670    0.6337550  
C     1.1533820   -1.8592700   -2.9711220  
C     2.4449990   -1.5101500   -2.6721750  
C     2.3976380   -0.6362950   -1.5339970  
C     1.0293300   -0.5034620   -1.1841520  
N     0.2947780   -1.2545480   -2.0730700  
C     0.5883390    0.2690330   -0.0960360  
C     1.5644800    0.9280870    0.6504850  
O     1.2022820    1.7039460    1.7062910  
C     2.9325230    0.8104150    0.3049980  
O     3.7653530    1.5413930    1.1373800  
C     3.3874020    0.0326130   -0.7617530  
H     3.3278530   -1.8458410   -3.1960880  
H    -0.7116930   -1.3214160   -2.0752610  
H     2.0165570    2.1190020    2.0435770  
H     4.5902300    1.7428150    0.6680970  
H     0.7674530   -2.4953570   -3.7548700  
C     5.4047920   -0.0155430   -2.3183360  
C     4.8148870   -0.0695580   -1.0886610  
C     5.9421130   -0.3639120   -0.1725440  
C     7.1356270   -0.4333510   -1.0679060  
N     6.8105950   -0.2235540   -2.3135030  
C     8.4516200   -0.7080110   -0.5543420  
C     8.5800130   -0.9344600    0.7752650  
O     9.7438250   -1.2092150    1.3858830  
C     7.3943090   -0.8963020    1.6984910  
O     7.5885640   -1.1124210    2.8928910  
C     6.0527110   -0.5952540    1.1503120  
H     9.2991700   -0.7417400   -1.2299100  
H     9.5215440   -1.3259260    2.3355200  
H     5.2259580   -0.5650650    1.8523410  
H     4.9143310    0.1752680   -3.2652310  
C    -4.0049950   -2.2415130    1.9361690  
C    -4.0063960   -1.2000900    1.0565270  
C    -5.3716760   -1.2289170    0.4774880  
C    -6.0406720   -2.3685090    1.1652800  
N    -5.2347640   -2.9547550    2.0065810  
C    -7.4030640   -2.7308560    0.8726190  
C    -8.0601500   -2.0239850   -0.0788020  
O    -9.3323490   -2.2579160   -0.4525870  
C    -7.4016860   -0.8964830   -0.8134360  
O    -8.0595350   -0.2965560   -1.6645280  
C    -6.0026110   -0.5379800   -0.4904060  
H    -7.8680580   -3.5568160    1.3997140  
H    -9.5215370   -1.5953360   -1.1521260  
H    -5.5591140    0.2786100   -1.0515370  
H    -3.1884300   -2.5525850    2.5767560  
