58


C     0.0499450    2.2882910    0.0125410  
C    -1.1575140    1.6495580   -0.1209250  
C    -0.8627760    0.2353720   -0.0965570  
C     0.6091490    0.1720290    0.0659740  
N     1.1328510    1.3624900    0.1082670  
C     1.3519440   -1.0926740    0.1581410  
C     0.5628650   -2.2143220    0.1248520  
O     1.0458250   -3.4689250    0.2665450  
C    -0.9111470   -2.1860040   -0.0314640  
O    -1.4955850   -3.2755280   -0.0400910  
C    -1.6381880   -0.8896990   -0.1872130  
H    -2.1358790    2.1072730   -0.1324720  
H     0.2532920   -4.0500470    0.2143370  
C    -1.7644430    5.9007850   -1.8844400  
C    -1.5013600    4.6057660   -1.5682210  
C    -0.4167170    4.6608960   -0.6024670  
C    -0.1369730    6.1231690   -0.4669280  
N    -0.9328630    6.8404040   -1.2131280  
C     0.9096980    6.6208760    0.3825650  
C     1.6518640    5.7158260    1.0613400  
O     2.6577940    6.0403520    1.8865230  
C     1.3878680    4.2323940    0.9765990  
O     2.0672920    3.5144980    1.7020010  
C     0.3012820    3.7177490    0.0780760  
H    -1.9689760    3.7180830   -1.9670890  
H     1.0864480    7.6878380    0.4602840  
H     2.9814560    5.1890610    2.2558750  
H    -2.5077840    6.2750200   -2.5790060  
C     3.5424040   -0.0581070    0.8653580  
C     2.7944390   -1.0813160    0.3272740  
C     3.8051680   -2.0980120   -0.0466750  
C     5.1021970   -1.4869830    0.3767460  
N     4.9281020   -0.3074480    0.9131910  
C     6.3639340   -2.1453780    0.1835780  
C     6.3601190   -3.3502480   -0.4359460  
O     7.4576250   -4.0747130   -0.6939920  
C     5.0783780   -3.9798160   -0.9085810  
O     5.1546180   -5.0683690   -1.4751570  
C     3.7934840   -3.2861870   -0.6824440  
H     7.2774630   -1.6669060    0.5184490  
H     7.1352080   -4.8837440   -1.1500300  
H     2.8979510   -3.7904370   -1.0202990  
H     3.1673880    0.8843380    1.2379120  
C    -3.6126450    0.0088530   -1.4015170  
C    -3.0559530   -0.8765320   -0.5071270  
C    -4.1703070   -1.6955200   -0.0031990  
C    -5.3898190   -1.1886630   -0.6792150  
N    -4.9686090   -0.1636300   -1.5139760  
C    -6.6466290   -1.6579030   -0.4901130  
C    -6.8415490   -2.7437700    0.4685710  
O    -7.9322700   -3.2362950    0.7057200  
C    -5.5759200   -3.2790720    1.2251100  
O    -5.7093250   -4.1664220    2.0504920  
C    -4.2632680   -2.6912240    0.9129170  
H    -7.5162280   -1.2606800   -1.0045420  
H    -3.4023020   -3.1056470    1.4211100  
H    -3.1048660    0.7453910   -2.0092810  
H    -5.5644910    0.3301360   -2.1617210  
