60


C    -4.3069180   -0.1118610    0.0157760  
C    -2.9446650    0.0630940   -0.2309340  
C    -2.6946230    1.4563870   -0.3025900  
C    -3.9417150    2.1149480   -0.0822660  
N    -4.8929010    1.1474100    0.1003390  
C    -4.0715140    3.5062080   -0.0592100  
C    -2.9197770    4.2504970   -0.2681880  
O    -2.9888020    5.6078540   -0.2851520  
C    -1.6648080    3.6187580   -0.4840680  
O    -0.6329230    4.5183140   -0.6937080  
C    -1.5123600    2.2340590   -0.4995810  
H    -2.2416860   -0.7470400   -0.3311950  
H    -5.8758390    1.2896060    0.2832970  
H    -5.0184620    4.0104890    0.1006650  
H    -2.0966850    5.9386850   -0.4926530  
H     0.0912450    4.0749190   -1.1625070  
C     0.0692990    0.5122830   -1.5074400  
C    -0.2116660    1.5965120   -0.7298220  
C     1.0866720    1.9148570   -0.0898110  
C     2.0333820    0.8979740   -0.6312980  
N     1.4242110    0.0929150   -1.4570600  
C     3.4434900    0.8468390   -0.2445950  
C     3.8416110    1.8120990    0.6426870  
O     5.1156480    1.9685180    1.0570650  
C     2.9080390    2.8118550    1.2270540  
O     3.3661270    3.6390600    2.0192670  
C     1.4851260    2.8171360    0.8251040  
H     5.0877090    2.7257110    1.6844900  
H     0.8436850    3.5698890    1.2711530  
H    -0.6191520   -0.0353290   -2.1386430  
C     4.1640800   -0.7310520   -2.0552040  
C     4.3167420   -0.1829170   -0.8056990  
C     5.4507160   -0.8824030   -0.1919230  
C     5.9433490   -1.8449750   -1.2107310  
N     5.1247880   -1.6849030   -2.3128820  
C     6.9806590   -2.7025400   -1.0434290  
C     7.6714160   -2.7120100    0.2415270  
O     8.6167450   -3.4453060    0.4880960  
C     7.1490530   -1.7345390    1.3528820  
O     7.6950520   -1.7358440    2.4450620  
C     6.0199220   -0.8495760    1.0415250  
H     7.3113890   -3.3936350   -1.8128590  
H     5.6938500   -0.1732750    1.8201470  
H     3.4042720   -0.5076500   -2.7882050  
H     5.1861000   -2.2297640   -3.1591450  
C    -3.0743340   -4.3372900   -0.1653080  
C    -4.2413430   -4.9736180    0.0753880  
C    -5.2265650   -3.9110640    0.2483250  
C    -4.4438210   -2.6483020    0.0733090  
N    -3.1941460   -2.9093970   -0.1696990  
C    -5.0760830   -1.3242000    0.1747520  
C    -6.4267030   -1.3445840    0.4309740  
O    -7.1790530   -0.2179140    0.5553430  
C    -7.2161350   -2.5790820    0.6032740  
O    -8.4278240   -2.4682380    0.8320040  
C    -6.5474990   -3.8909140    0.5000880  
H    -4.4278370   -6.0370190    0.1321020  
H    -8.0887430   -0.5507530    0.7355210  
H    -7.1636570   -4.7751990    0.6330720  
H    -2.0977940   -4.7688290   -0.3473420  
