60


C    -1.0909640   -1.9182060   -0.0372540  
C    -1.8591320   -0.7490290   -0.0506460  
C    -3.2144440   -1.1299100   -0.1396680  
C    -3.2425370   -2.5631520   -0.1658750  
N    -1.9524280   -3.0020360   -0.1085460  
C    -4.4320890   -3.2959710   -0.2246440  
C    -5.6153110   -2.5793820   -0.2402390  
O    -6.7982660   -3.2362290   -0.3003540  
C    -5.6222370   -1.1495260   -0.1907160  
O    -6.8936380   -0.6370010   -0.2350730  
C    -4.4471160   -0.4016200   -0.1581300  
H    -1.4597370    0.2534390   -0.0126210  
H    -1.6086110   -3.9529160   -0.1051220  
H    -4.4568720   -4.3797830   -0.2525810  
H    -7.5072440   -2.5682170   -0.2965110  
H    -6.8841120    0.3197540   -0.0658590  
C     0.3092840   -2.1416880    0.0348640  
C     1.3600800   -1.2365050    0.1031990  
C     2.5413460   -2.0173690    0.1531640  
C     2.0468970   -3.4380400    0.0927600  
N     0.7428260   -3.4982150    0.0313380  
C     2.9407930   -4.5547580    0.0861760  
C     4.2674740   -4.2826550    0.1264360  
O     5.2194550   -5.2146550    0.1301610  
C     4.8216130   -2.8657830    0.2109280  
O     6.0426080   -2.7966450    0.3384100  
C     3.8969910   -1.7166840    0.1967300  
H     1.2888770   -0.1599850    0.0874680  
H     2.5576610   -5.5681990    0.0460020  
H     6.0641390   -4.7062000    0.2022910  
C     4.4169350   -0.3685640    0.2483050  
C     3.8322700    0.7432960    0.8093720  
C     4.7437480    1.8321610    0.5719930  
C     5.8709350    1.2046220   -0.1919500  
N     5.6863490   -0.0686060   -0.3711560  
C     6.9954400    1.9836330   -0.6467240  
C     7.0116460    3.3014330   -0.3390800  
O     7.9926270    4.1476890   -0.6859910  
C     5.8974240    3.9579420    0.4449310  
O     6.0085270    5.1650160    0.6706360  
C     4.7575180    3.1518530    0.8849880  
H     2.9165500    0.7871430    1.3805970  
H     7.7949890    1.5091750   -1.2045630  
H     7.7167260    5.0190240   -0.3207840  
H     3.9720190    3.6587770    1.4371140  
C    -6.5235450    2.7079070    2.3107480  
C    -6.0646310    1.5087260    1.8698290  
C    -5.2232510    1.8258640    0.7178990  
C    -5.2990150    3.3150810    0.6206350  
N    -6.0621630    3.8213400    1.5495960  
C    -4.5885790    4.0472610   -0.3938800  
C    -3.8375200    3.3385700   -1.2670820  
O    -3.1182660    3.8888190   -2.2571780  
C    -3.7491210    1.8340720   -1.2115820  
O    -3.0756000    1.2868970   -2.0781110  
C    -4.4911750    1.0721830   -0.1501300  
H    -6.2349410    0.5318170    2.2999640  
H    -4.6624510    5.1280690   -0.4377120  
H    -2.7072910    3.1376880   -2.7382810  
H    -7.1697460    2.8973470    3.1598440  
