60


C     1.8409370    2.6536570    2.3564680  
C     3.0167830    2.0521590    1.9749760  
C     2.7068020    1.1250820    0.9273420  
C     1.3090630    1.2080180    0.7233810  
N     0.8108830    2.1442860    1.6030070  
C     0.5935860    0.3858000   -0.1801900  
C     1.3505910   -0.5287380   -0.9093080  
O     0.7554090   -1.3071920   -1.8458760  
C     2.7587280   -0.6356400   -0.7478790  
O     3.3061990   -1.5710460   -1.5527880  
C     3.4791340    0.1918000    0.1541050  
H     3.9741660    2.2393480    2.4331460  
H    -0.1556260    2.4271900    1.6577380  
H     1.4521190   -1.8883990   -2.2055890  
H     4.2917530   -1.6134880   -1.3388520  
H     1.6560780    3.4061300    3.1094990  
C    -2.3153310    3.6292450   -1.1647970  
C    -1.1605580    2.9679440   -0.9177070  
C    -1.5627890    1.5958580   -0.6262090  
C    -3.0507970    1.6135770   -0.7539710  
N    -3.4753700    2.8058790   -1.0627330  
C    -3.8815400    0.4203210   -0.5526570  
C    -3.1750800   -0.7174650   -0.2642750  
O    -3.7454620   -1.9261110   -0.0775160  
C    -1.6923150   -0.7593650   -0.0991070  
O    -1.2008130   -1.8255290    0.2669450  
C    -0.8673680    0.4673320   -0.3364520  
H    -0.1495980    3.3481510   -0.9497320  
H    -2.9945340   -2.5245070    0.1419340  
H    -2.4465200    4.6711640   -1.4310490  
C    -6.0258020    1.4188300   -1.4359420  
C    -5.3299420    0.5004040   -0.6903650  
C    -6.3938470   -0.3153540   -0.0560720  
C    -7.6620000    0.2742800   -0.5840420  
N    -7.4300540    1.2742690   -1.3908950  
C    -8.9577880   -0.2226090   -0.2075880  
C    -9.0116130   -1.2389580    0.6854700  
O   -10.1459470   -1.7956060    1.1373740  
C    -7.7588790   -1.8308280    1.2671100  
O    -7.8847280   -2.7425870    2.0832500  
C    -6.4394600   -1.3123580    0.8493990  
H    -9.8493420    0.2291950   -0.6279990  
H    -9.8589530   -2.4923900    1.7683760  
H    -5.5683410   -1.7883040    1.2794280  
H    -5.6018440    2.2178950   -2.0252970  
C     4.9123490    0.0920400    0.2430830  
C     5.8473140    0.8603350    0.9076900  
C     7.1248630    0.2898020    0.6252550  
C     6.8325240   -0.8803460   -0.2693950  
N     5.5529070   -0.9791300   -0.4869530  
C     7.8669360   -1.7294000   -0.7826740  
C     9.1398310   -1.4264580   -0.4271090  
O    10.2127500   -2.1121120   -0.8174840  
C     9.4785340   -0.2445710    0.4746430  
O    10.6778290   -0.0813500    0.7180100  
C     8.4073280    0.5928950    0.9778080  
H     5.6786720    1.7476300    1.4943300  
H     7.6288060   -2.5702880   -1.4242880  
H    10.9751050   -1.6457050   -0.3964300  
H     8.6764340    1.4278110    1.6165420  
