60


C     1.8293250    0.7415830    2.9906660  
C     0.8264570    0.1218930    2.2956640  
C     1.3769280   -0.2856210    1.0347090  
C     2.7339200    0.1346200    1.0289550  
N     2.9731190    0.7948890    2.2157030  
C     3.6216660   -0.0952080   -0.0482670  
C     3.1093530   -0.9055760   -1.0731140  
O     3.9040270   -1.3047870   -2.0995960  
C     1.7666230   -1.3587650   -1.0759330  
O     1.4340140   -2.0948760   -2.1976170  
C     0.8588250   -1.0201270   -0.0672030  
H    -0.1894290   -0.0161560    2.6335420  
H     3.9180580    0.8333770    2.5878070  
H     3.3256240   -1.8447080   -2.6733500  
H     0.9750060   -2.9094300   -1.9009090  
H     1.8241260    1.1671810    3.9845730  
C    -2.8352400    1.3066080    0.3388710  
C    -3.8277870    0.3719530    0.1999630  
C    -3.0810370   -0.8953630   -0.0096700  
C    -1.6494180   -0.4941800    0.0500590  
N    -1.5272540    0.7892990    0.2524570  
C    -0.5526790   -1.4451760   -0.1384030  
C    -0.9467990   -2.7151050   -0.4463610  
O    -0.0700610   -3.7310010   -0.6943050  
C    -2.3607050   -3.1447700   -0.5313070  
O    -2.5918860   -4.3273530   -0.8031210  
C    -3.4371900   -2.1634430   -0.2815510  
H    -0.6444650   -4.5145370   -0.8635520  
H    -4.4581800   -2.5219340   -0.3172150  
H    -2.9523440    2.3617830    0.5581190  
C    -6.1394170    3.7367720   -1.3844750  
C    -7.3896450    3.3556800   -1.0178220  
C    -7.2684360    2.0860280   -0.3338920  
C    -5.8251980    1.7573230   -0.3245270  
N    -5.1938930    2.8141270   -0.9469280  
C    -5.2654210    0.6077740    0.1865690  
C    -6.2222740   -0.3625720    0.7627250  
O    -5.8835670   -1.4400320    1.2249330  
C    -7.7571910   -0.0047570    0.8029860  
O    -8.5211530   -0.8108610    1.3097950  
C    -8.1951250    1.2571740    0.2209160  
H    -8.3074320    3.8951430   -1.2005670  
H    -9.2562610    1.4850490    0.2353100  
H    -5.8175480    4.6181610   -1.9231180  
H    -4.2247360    2.7924610   -1.2300440  
C     7.0266680    0.1499620    2.8196020  
C     8.0214450    0.6044700    2.0263200  
C     7.3971800    0.8390600    0.7300320  
C     5.9657660    0.4199050    0.9202600  
N     5.7646810    0.0437420    2.1540920  
C     4.9865490    0.4669540   -0.1575640  
C     5.4253950    1.0722390   -1.3075460  
O     4.6434800    1.3154850   -2.3647240  
C     6.8411330    1.5310020   -1.5112980  
O     7.1251750    2.0479980   -2.5921720  
C     7.8267220    1.3680180   -0.4294520  
H     9.0572440    0.7794490    2.2813510  
H     5.2332770    1.7311910   -3.0329680  
H     8.8393510    1.7120120   -0.6161920  
H     7.0785520   -0.1301240    3.8649330  
