60


C     0.3187210    1.2434830   -0.1253270  
C     1.5696120    0.6067570   -0.0626680  
C     2.5736630    1.6079490   -0.0587510  
C     1.8906390    2.8554770   -0.1121670  
N     0.5449960    2.6021860   -0.1607660  
C     2.5432050    4.0929830   -0.0944040  
C     3.9237330    4.0833540   -0.0090620  
O     4.6132890    5.2506690    0.0212030  
C     4.6578490    2.8623790    0.0478730  
O     5.9891990    3.0532750    0.1271130  
C     4.0137060    1.5949860    0.0066850  
H     1.7106420   -0.4486970    0.1031370  
H    -0.2220070    3.2644990   -0.1236600  
H     2.0091490    5.0365680   -0.1329050  
H     5.5576630    5.0143850    0.0871570  
H     6.4213760    2.1403670    0.1870440  
C    -1.1883390   -2.7421610   -1.1703500  
C    -2.4960940   -2.5806450   -0.8347890  
C    -2.6622530   -1.2280860   -0.3546460  
C    -1.3352250   -0.6116600   -0.4285160  
N    -0.4727100   -1.5860990   -0.8829620  
C    -1.0198920    0.7030230   -0.1253230  
C    -2.1792430    1.5568870    0.1408810  
O    -2.1260620    2.7801930    0.2199780  
C    -3.6011010    0.9030360    0.3356560  
O    -4.4902470    1.6514980    0.7053840  
C    -3.7902190   -0.5392420    0.0800110  
H    -3.2734850   -3.3200540   -0.9449540  
H    -0.6840520   -3.6001670   -1.5935330  
H     0.4429260   -1.3702190   -1.2510440  
C    -5.2526840   -2.4798080    0.7478320  
C    -5.0622850   -1.1818410    0.3286190  
C    -6.4501720   -0.6663720    0.1680690  
C    -7.3087610   -1.8279540    0.5273420  
N    -6.5919890   -2.8694940    0.8770140  
C    -8.7418470   -1.7672430    0.4856810  
C    -9.3158850   -0.6072220    0.0812930  
O   -10.6397090   -0.4097530   -0.0144740  
C    -8.4835070    0.5782180   -0.3071490  
O    -9.0699030    1.5949780   -0.6758220  
C    -7.0072540    0.4924540   -0.2335550  
H    -9.3269020   -2.6369540    0.7633390  
H   -10.7419460    0.5147920   -0.3319030  
H    -6.4511610    1.3870280   -0.4824780  
H    -4.4809580   -3.1880170    1.0228220  
C     4.7893100    0.3864690    0.0147570  
C     4.4313900   -0.9434560   -0.1205280  
C     5.6312960   -1.7058940   -0.0374400  
C     6.7181940   -0.6874130    0.1564040  
N     6.2181450    0.5152790    0.1795560  
C     8.0963370   -1.0542860    0.2874620  
C     8.3846750   -2.3782880    0.2247400  
O     9.6107930   -2.8857390    0.3274480  
C     7.3112520   -3.4439180    0.0252530  
O     7.7179690   -4.6104090   -0.0143410  
C     5.9291630   -3.0380170   -0.1014640  
H     3.4486490   -1.3499430   -0.2887790  
H     8.8622910   -0.3001710    0.4292140  
H     9.4829680   -3.8624540    0.2420150  
H     5.1852290   -3.8154500   -0.2417770  
