58


C     2.4550420   -1.1948440   -0.9061720  
C     1.2514370   -0.5794720   -0.7601960  
C     1.4905980    0.7223810   -0.1958540  
C     2.9566020    0.8327340   -0.0358570  
N     3.4984300   -0.3910360   -0.4516980  
C     3.6064630    1.9549650    0.3560790  
C     2.8103570    3.1339070    0.6846500  
O     3.3115220    4.2076830    0.9766840  
C     1.2499760    3.0008390    0.6834410  
O     0.5991480    3.8895940    1.1977490  
C     0.6404950    1.7630780    0.1234430  
H     0.2953040   -0.9915590   -1.0413700  
H     4.6841830    2.0292530    0.4298600  
H     2.6798880   -2.1725390   -1.3073580  
C    -0.7981090    1.6883400   -0.0305540  
C    -1.6245080    0.6037610    0.1466110  
C    -2.9555920    1.0705470   -0.1405310  
C    -2.7619090    2.5088050   -0.5212190  
N    -1.5153030    2.8658490   -0.4494530  
C    -3.8638670    3.3398080   -0.9289990  
C    -5.0979280    2.7856640   -0.9355270  
O    -6.2168640    3.4437550   -1.2696940  
C    -5.3372050    1.3531750   -0.5291680  
O    -6.5052770    0.9704820   -0.4947080  
C    -4.1906970    0.4885840   -0.1563930  
H    -1.3532050   -0.3754910    0.5115950  
H    -3.6910640    4.3746440   -1.2019520  
H    -6.9457460    2.7942870   -1.1525510  
C    -3.4184440   -2.1949870    3.3546080  
C    -3.4373790   -1.1009250    2.5559840  
C    -4.1077910   -1.5344240    1.3349520  
C    -4.4396960   -2.9711280    1.5972490  
N    -4.0339780   -3.3499100    2.7755860  
C    -5.1416410   -3.7777530    0.6331790  
C    -5.4968700   -3.1952570   -0.5347530  
O    -6.1418890   -3.8284340   -1.5273780  
C    -5.1566220   -1.7619840   -0.8453960  
O    -5.4255980   -1.3520150   -1.9699610  
C    -4.4643200   -0.9183290    0.1784340  
H    -3.0484230   -0.1147280    2.7636630  
H    -5.3678720   -4.8147720    0.8548050  
H    -6.2303440   -3.1666160   -2.2478420  
H    -3.0065430   -2.2801550    4.3532800  
C     6.5531110   -0.4140420    2.6563380  
C     7.6272690   -0.8654020    1.9715330  
C     7.1515800   -1.0825880    0.6076020  
C     5.7122400   -0.6742280    0.6626280  
N     5.3674200   -0.2927960    1.8533600  
C     4.8631710   -0.7403310   -0.5187020  
C     5.4212360   -1.2345450   -1.6592870  
O     4.7469240   -1.3902620   -2.8093560  
C     6.8587960   -1.6597520   -1.7248040  
O     7.2717570   -2.0713210   -2.8072750  
C     7.7084050   -1.5557610   -0.5231680  
H     8.6278360   -1.0476580    2.3377360  
H     5.4058580   -1.7436930   -3.4494060  
H     8.7418010   -1.8747240   -0.6168820  
H     6.4893570   -0.1418700    3.7024610  
