60


C     2.6969060    3.1782700    0.2937780  
C     3.8107110    2.3877520    0.1916550  
C     3.3623980    1.0260500    0.0885460  
C     1.9427990    1.0630720    0.1145330  
N     1.5656460    2.3858030    0.2341420  
C     1.1264160   -0.0822080    0.0239860  
C     1.8034990   -1.2958230   -0.1354040  
O     1.0999710   -2.4397190   -0.3007630  
C     3.2191040   -1.3610810   -0.1898260  
O     3.7018260   -2.6426430   -0.3414910  
C     4.0277660   -0.2288220   -0.0437860  
H     4.8321240    2.7376660    0.1972960  
H     0.6210420    2.6997720    0.3949800  
H     1.7625480   -3.1522810   -0.3876220  
H     4.3875560   -2.6118690   -1.0410970  
H     2.6115310    4.2506450    0.3971590  
C    -1.7119300    1.8753730   -2.6534320  
C    -2.8876510    1.5241330   -2.0621670  
C    -2.5692130    0.7629500   -0.8777850  
C    -1.0952710    0.6872050   -0.8318450  
N    -0.6338590    1.4207570   -1.9129200  
C    -0.3471450   -0.0194080    0.0692400  
C    -1.1007550   -0.7346610    1.1187830  
O    -0.5613370   -1.3837790    1.9951400  
C    -2.6673220   -0.5946840    1.1564330  
O    -3.2444890   -1.0303110    2.1332850  
C    -3.3619560    0.1304110    0.0593190  
H    -3.8758750    1.7513550   -2.4291420  
H    -1.5442300    2.4334500   -3.5651720  
H     0.3283550    1.4166950   -2.2178070  
C    -4.8110290    0.1722580    0.0335280  
C    -5.6296510    1.2052960   -0.3490260  
C    -6.9797520    0.7179030   -0.1929350  
C    -6.8045940   -0.6900690    0.2907440  
N    -5.5519310   -1.0033890    0.4277740  
C    -7.9386400   -1.5426660    0.5479880  
C    -9.1729880   -1.0205570    0.3609450  
O   -10.3170700   -1.6899350    0.5680800  
C    -9.3796780    0.4001820   -0.1102600  
O   -10.5422470    0.7818710   -0.2539450  
C    -8.2122070    1.2462270   -0.3810660  
H    -5.3398500    2.2074000   -0.6315440  
H    -7.7855030   -2.5596530    0.8911960  
H   -11.0313730   -1.0500320    0.3493930  
H    -8.4008670    2.2572710   -0.7291410  
C     7.1909780    1.3997810    2.6662770  
C     5.9850880    1.0403950    2.1706590  
C     6.2769950    0.3161790    0.9334270  
C     7.7650530    0.3424860    0.8501160  
N     8.2962140    0.9823150    1.8516310  
C     8.4793960   -0.2810090   -0.2354340  
C     7.7513420   -0.9386690   -1.1645990  
O     8.2862740   -1.5943200   -2.2117520  
C     6.2585620   -1.0312460   -1.0703400  
O     5.7026600   -1.7453320   -1.9166810  
C     5.5047000   -0.2959180   -0.0087640  
H     5.0071130    1.2205630    2.5908110  
H     9.5617740   -0.2331100   -0.2753680  
H     7.5332960   -2.0076470   -2.6837300  
H     7.4035940    1.9401010    3.5806830  
