58


C    -0.4428500    1.3961280    0.2550210  
C    -1.6977500    0.7811430    0.2237200  
C    -2.6929640    1.7897870    0.1686810  
C    -1.9654600    3.0771240    0.1426300  
N    -0.6263850    2.7710210    0.2280070  
C    -2.5455830    4.2980770    0.0144690  
C    -3.9951540    4.3626200   -0.1150260  
O    -4.6000650    5.4044190   -0.3138780  
C    -4.8145780    3.0332710    0.0333440  
O    -6.0195040    3.1240040    0.1730950  
C    -4.0843750    1.7356500    0.0877070  
H    -1.8775580   -0.2774440    0.1485940  
H    -1.9788150    5.2225380   -0.0364590  
H     0.1588520    3.4043990    0.1305930  
C     1.0901340   -2.6908680    1.2157920  
C     0.3155440   -1.5689980    1.0926280  
C     1.1398370   -0.5280510    0.5549520  
C     2.4668400   -1.1195080    0.3686940  
N     2.3594380   -2.4475480    0.7470390  
C     3.6084470   -0.4740520   -0.0736150  
C     3.4458920    0.9790360   -0.2827820  
O     4.3516170    1.7124860   -0.6380410  
C     2.0401470    1.6479900   -0.0592150  
O     2.0105100    2.8703000   -0.1604000  
C     0.8731790    0.8138560    0.2518410  
H    -0.7134800   -1.4864550    1.4005170  
H     0.8307740   -3.6637880    1.6110500  
H     3.1568800   -3.0528470    0.8795790  
C     4.9972040   -2.4580580   -0.7871810  
C     4.8538760   -1.1563900   -0.3495130  
C     6.2581080   -0.6856250   -0.2134590  
C     7.0732010   -1.8701000   -0.6020070  
N     6.3171200   -2.8872220   -0.9468340  
C     8.5063700   -1.8564500   -0.5903140  
C     9.1252520   -0.7165300   -0.1924460  
O    10.4531140   -0.5629920   -0.1261000  
C     8.3375840    0.4939330    0.2219470  
O     8.9622150    1.4878600    0.5839020  
C     6.8571660    0.4543500    0.1820300  
H     9.0574940   -2.7417350   -0.8869800  
H    10.5995700    0.3549700    0.1933840  
H     6.3340000    1.3631490    0.4497010  
H     4.2006690   -3.1362440   -1.0726880  
C    -4.8231960    0.5001730    0.1040560  
C    -4.5072360   -0.6821850    0.7440480  
C    -5.5708880   -1.5977140    0.4360510  
C    -6.4816650   -0.8101880   -0.4573330  
N    -6.0547330    0.4029420   -0.6408260  
C    -7.6732860   -1.3961680   -1.0169440  
C    -7.9592260   -2.6769520   -0.6842610  
O    -9.0354840   -3.3484340   -1.1185290  
C    -7.0706100   -3.4889340    0.2303550  
O    -7.4196270   -4.6485250    0.4660210  
C    -5.8568170   -2.8811980    0.7743180  
H    -3.6893410   -0.8587230    1.4277310  
H    -8.3127280   -0.8095810   -1.6669580  
H    -8.9623300   -4.2391120   -0.7061370  
H    -5.2371360   -3.4974330    1.4186840  
