60


C    -2.5187870    1.5247340   -0.0196600  
C    -1.3259430    0.8633290   -0.0385290  
C    -1.6067270   -0.5463430    0.0185580  
C    -3.0175700   -0.6794080    0.0677680  
N    -3.5669560    0.6090970    0.0654340  
C    -3.6599250   -1.9166290    0.0161140  
C    -2.8545620   -3.0436400   -0.0839000  
O    -3.4231860   -4.2769950   -0.1459430  
C    -1.4425490   -2.9468210   -0.1278000  
O    -0.8053850   -4.1627620   -0.1970440  
C    -0.7853740   -1.7104160   -0.0425700  
H    -0.3553850    1.3328860   -0.0988350  
H    -4.7356520   -2.0279750    0.0361920  
H    -2.6809920   -4.9028930   -0.2524470  
H    -0.0811560   -4.0710110   -0.8579680  
H    -2.7330840    2.5800280   -0.0681290  
C     1.9471320    0.4599670    2.6879050  
C     0.8764880   -0.1180260    2.0870950  
C     1.3537620   -0.8105800    0.9106010  
C     2.8147640   -0.5801850    0.8783480  
N     3.1176530    0.1785770    1.9832970  
C     3.6554470   -1.0448080   -0.1015150  
C     3.0685220   -1.9164880   -1.1146830  
O     3.7075940   -2.4187540   -2.0253490  
C     1.5409220   -2.2855190   -0.9876820  
O     1.1572010   -3.1927820   -1.7223020  
C     0.6873850   -1.5867030   -0.0177800  
H    -0.1456330   -0.0889250    2.4292160  
H     1.9962390    1.0487180    3.5938060  
H     4.0137170    0.6131030    2.1475990  
C     6.0430220   -1.6844180   -0.3993820  
C     7.2669590   -1.1079230   -0.4124120  
C     7.0830960    0.3128180   -0.2120530  
C     5.6184100    0.5248460   -0.0858780  
N     5.0276370   -0.7330750   -0.1761190  
C     5.0389590    1.7478900    0.0576710  
C     5.9018870    2.9265780    0.1299650  
O     5.4629830    4.0590150    0.2590680  
C     7.4553500    2.7153460    0.0434690  
O     8.1916880    3.6843270    0.1353940  
C     7.9557280    1.3516520   -0.1517430  
H     8.2102500   -1.6148420   -0.5551460  
H     3.9667270    1.9066410    0.0744430  
H     9.0287430    1.2192940   -0.2524810  
H     5.7653330   -2.7189970   -0.5319190  
C    -5.7516300    3.4663310   -2.3546010  
C    -7.0094540    3.3173710   -1.8835220  
C    -6.9080650    2.3083470   -0.8322270  
C    -5.4554980    1.9511110   -0.8139850  
N    -4.7884520    2.6284890   -1.6988330  
C    -4.9278380    0.9519670    0.1095710  
C    -5.8141530    0.3940710    0.9863860  
O    -5.4710440   -0.5001300    1.9308960  
C    -7.2683100    0.7336310    0.9710790  
O    -7.9909920    0.1801610    1.8009700  
C    -7.7839930    1.7274590    0.0071010  
H    -7.9105870    3.8211780   -2.2041960  
H    -6.3123190   -0.7192840    2.3910130  
H    -8.8475180    1.9432720    0.0386930  
H    -5.4034410    4.1233220   -3.1420910  
