58


C     1.9348090   -0.4856190    0.0725210  
C     1.0320910    0.5282150   -0.0648940  
C     1.8125180    1.7613340   -0.1813420  
C     3.2373980    1.3672460   -0.0912050  
N     3.2550470   -0.0228840    0.0862150  
C     4.2763470    2.2278470   -0.2206600  
C     3.9848320    3.6494770   -0.4028220  
O     4.8605300    4.4917780   -0.5252440  
C     2.4831120    4.0965300   -0.4311620  
O     2.2176480    5.2829960   -0.5329190  
C     1.4495360    3.0582240   -0.3382310  
H     5.3145560    1.9279630   -0.1766500  
H     0.4165430    3.3695010   -0.4359170  
H     1.7552280   -1.5489480    0.1241530  
C    -1.6083230   -1.7304640    2.5977660  
C    -2.8020490   -1.5115920    1.9927090  
C    -2.5608350   -0.6565290    0.8508790  
C    -1.1018220   -0.4012490    0.8337690  
N    -0.5773410   -1.1080080    1.8978640  
C    -0.4271720    0.3757970   -0.0718150  
C    -1.2497960    0.9998440   -1.1190220  
O    -0.7848840    1.6878940   -2.0128840  
C    -2.8061260    0.7674740   -1.1091190  
O    -3.4717350    1.3815940   -1.9229580  
C    -3.4002620   -0.1389230   -0.1001400  
H    -3.7620780   -1.8801670    2.3158960  
H    -1.3830870   -2.3030620    3.4876600  
H     0.3621170   -0.9733590    2.2405980  
C    -6.5904410    0.5961680    2.8692150  
C    -7.7041990    0.2630070    2.1789720  
C    -7.2235540   -0.1802260    0.8743280  
C    -5.7314400   -0.0400390    0.9668330  
N    -5.3736500    0.4119540    2.1331370  
C    -4.8558720   -0.3695730   -0.1483500  
C    -5.4707990   -0.8324320   -1.2757540  
O    -4.8081000   -1.2249130   -2.3695120  
C    -6.9638200   -0.9859870   -1.3888360  
O    -7.4108360   -1.4201990   -2.4486580  
C    -7.8217840   -0.6247460   -0.2465150  
H    -8.7349450    0.3136690    2.5010290  
H    -5.4992300   -1.4782070   -3.0212110  
H    -8.8940930   -0.7396750   -0.3720730  
H    -6.5216160    0.9764490    3.8814910  
C     4.0856340   -3.7412290   -1.9657910  
C     5.3356730   -4.0179920   -1.5316580  
C     5.6706660   -2.9386860   -0.6067980  
C     4.4558100   -2.0693320   -0.6161420  
N     3.5353130   -2.5424960   -1.4009310  
C     4.3853930   -0.8524280    0.1830240  
C     5.4501130   -0.5798420    0.9949330  
O     5.4990860    0.4658650    1.8373090  
C     6.6725910   -1.4374120    1.0105290  
O     7.5829570   -1.1131970    1.7743650  
C     6.7377480   -2.6420700    0.1581330  
H     5.9701730   -4.8502100   -1.8025960  
H     6.3842000    0.4095840    2.2641460  
H     7.6458480   -3.2349560    0.2081650  
H     3.4776200   -4.3018500   -2.6648160  
