58


C     1.5854030    0.6080950   -0.4449500  
C     1.3191350    1.9364450   -0.2924320  
C     2.5263960    2.5399570    0.2840920  
C     3.5009340    1.4375950    0.4620990  
N     2.8828970    0.2734130   -0.0316200  
C     4.7126260    1.5818410    1.0475040  
C     5.1122000    2.9141600    1.5150790  
O     6.1859600    3.1193330    2.0556750  
C     4.1068770    4.0945760    1.3167490  
O     4.4148300    5.2097320    1.7020290  
C     2.8133880    3.8014600    0.6865430  
H     5.4023260    0.7698520    1.2292010  
H     2.1271830    4.6280560    0.5525550  
H     0.9726180   -0.1775110   -0.8579800  
C    -2.9001300    0.6531940    0.3541380  
C    -1.5267980    0.7816570    0.3650700  
C    -1.1735780    1.9730880   -0.3437490  
C    -2.4524790    2.5768010   -0.7815570  
N    -3.4576730    1.7002080   -0.3946060  
C    -2.5757270    3.7655010   -1.4193220  
C    -1.3589120    4.5064010   -1.7240950  
O    -1.3589040    5.5989160   -2.2672010  
C     0.0224830    3.8598700   -1.3441750  
O     1.0383300    4.4521870   -1.6734780  
C     0.0431240    2.5680500   -0.6257390  
H    -0.8447000    0.0705350    0.8056070  
H    -3.5290740    4.1923510   -1.7149340  
H    -4.4087030    2.0119780   -0.2559810  
C    -3.4198790   -1.1723020    2.0157280  
C    -3.7255440   -0.3551240    0.9542520  
C    -5.0938020   -0.7598440    0.5733300  
C    -5.4330570   -1.8381000    1.5487610  
N    -4.4407550   -2.0647020    2.3759560  
C    -6.6939390   -2.5184130    1.5186990  
C    -7.5818790   -2.1665160    0.5540520  
O    -8.7925480   -2.7185860    0.4122260  
C    -7.2611360   -1.1055300   -0.4633500  
O    -8.1097460   -0.8432760   -1.3109420  
C    -5.9498310   -0.4199210   -0.4092040  
H    -6.9095550   -3.2925550    2.2464600  
H    -9.2027650   -2.2777880   -0.3640020  
H    -5.7510430    0.3122580   -1.1855130  
H    -2.5018050   -1.1701860    2.5917590  
C     3.3984990   -0.9967710   -0.1527660  
C     4.6906510   -1.4561900   -0.0374050  
C     4.5976640   -2.8660850   -0.2711170  
C     3.1351450   -3.1142450   -0.5220070  
N     2.4440660   -2.0089780   -0.4561420  
C     2.6239690   -4.4258620   -0.7949060  
C     3.5210030   -5.4416700   -0.8314610  
O     3.2071990   -6.7136290   -1.0752490  
C     5.0101860   -5.2250990   -0.5924770  
O     5.7180650   -6.2334140   -0.6542750  
C     5.4981820   -3.8864680   -0.3108490  
H     5.5985450   -0.8996880    0.1236460  
H     1.5648850   -4.5803770   -0.9672710  
H     4.0669900   -7.1976060   -1.0342160  
H     6.5628290   -3.7623120   -0.1419490  
