62


C    -0.6878550    1.5659250    0.5064990  
C    -0.9424130    2.8231160    1.0124290  
C    -2.3317940    3.0978490    0.8187440  
C    -2.9027780    1.9635600    0.1832430  
N    -1.8880000    1.0356430    0.0318210  
C    -4.2628570    1.8962350   -0.2111410  
C    -5.0235560    3.0473480    0.0587720  
O    -6.3361780    3.0951760   -0.3027430  
C    -4.4688640    4.1707260    0.7222930  
O    -5.3782410    5.1898840    0.9292510  
C    -3.1446480    4.2113890    1.1079770  
H    -0.2198330    3.4552200    1.5099780  
H    -1.9291920    0.2391060   -0.5865130  
H    -6.6945080    3.9362020    0.0334510  
H    -4.9596160    5.9051010    1.4305450  
H    -2.7365030    5.0898130    1.6028950  
C     1.7926730    1.3318310    0.2033720  
C     0.5499830    0.8111310    0.4393320  
C     0.7240700   -0.6214130    0.6198530  
C     2.0973860   -0.9097410    0.4730820  
N     2.7574350    0.3206840    0.2159620  
C     2.6009820   -2.2056250    0.6193750  
C     1.6947050   -3.2168590    0.9183630  
O     2.1383560   -4.4960660    1.0618990  
C     0.3146220   -2.9409020    1.0879520  
O    -0.4505640   -4.0295430    1.4084990  
C    -0.1715200   -1.6502950    0.9448580  
H     3.6522710   -2.4260140    0.5050530  
H     1.3613160   -5.0443900    1.2705980  
H    -1.3977350   -3.7908720    1.4272070  
H    -1.2215170   -1.4464900    1.1162720  
H     2.0738750    2.3486990   -0.0180180  
C     4.0910410    0.5525590    0.0000000  
C     4.7178460    1.7720380   -0.1894650  
C     6.0914850    1.4548670   -0.3771010  
C     6.1475310   -0.0491600   -0.2701210  
N     4.9669370   -0.5609730   -0.0484990  
C     7.3767640   -0.7735060   -0.4048470  
C     8.4971220   -0.0445910   -0.6316430  
O     9.7163490   -0.5617550   -0.7794830  
C     8.4791640    1.4778620   -0.7439220  
O     9.5771670    2.0080190   -0.9523420  
C     7.2258570    2.1820840   -0.6056110  
H     4.2810750    2.7589840   -0.1879420  
H     7.3913760   -1.8546470   -0.3252530  
H    10.2978990    0.2243550   -0.9279610  
H     7.2409690    3.2637740   -0.6907340  
C    -5.8139330    0.7239290   -1.8585950  
C    -4.8675980    0.7405110   -0.8761860  
C    -4.6377910   -0.6994930   -0.5899530  
C    -5.5211830   -1.4157420   -1.5530230  
N    -6.2048830   -0.5792370   -2.2801970  
C    -5.5903580   -2.8524990   -1.5945670  
C    -4.8402220   -3.5573160   -0.7118850  
O    -4.8086110   -4.9021310   -0.6596530  
C    -3.9593430   -2.8664310    0.2735620  
O    -3.2477680   -3.5693390    1.0040880  
C    -3.9381130   -1.3899580    0.3315410  
H    -6.2352220   -3.3404290   -2.3170770  
H    -4.1702930   -5.1307650    0.0476120  
H    -3.3383250   -0.9299590    1.1090490  
H    -6.2789600    1.5789710   -2.3280320  
