60


C    -3.8679310    3.5922620    0.4086720  
C    -2.5041860    3.4327550    0.3389590  
C    -2.2417040    2.0309390    0.2023840  
C    -3.5034730    1.3886870    0.1840350  
N    -4.4703050    2.3597970    0.3285710  
C    -3.6733630   -0.0101030    0.0655360  
C    -2.5076120   -0.7580170   -0.0883980  
O    -2.5875590   -2.0987770   -0.2861160  
C    -1.2234980   -0.1543820   -0.0912440  
O    -0.2208900   -1.0508360   -0.2547930  
C    -1.0474990    1.2428600    0.0854240  
H    -1.7926260    4.2422720    0.3523120  
H    -5.4645300    2.1908130    0.3030860  
H    -1.6707030   -2.4303990   -0.3099100  
H     0.6416880   -0.5351490   -0.2625750  
H    -4.4592420    4.4913320    0.5063310  
C     0.2751110    1.8097820    0.1549870  
C     0.7210350    3.0640890    0.5071660  
C     2.1464110    3.0411070    0.3979170  
C     2.4776270    1.6501790   -0.0548630  
N     1.3892380    0.9490930   -0.1809250  
C     3.8364750    1.1956130   -0.2972090  
C     4.8005230    2.1426260   -0.0883920  
O     6.1034500    1.9346430   -0.3013500  
C     4.5041060    3.5482400    0.3903620  
O     5.4823290    4.2880070    0.5367760  
C     3.1294270    3.9533560    0.6244950  
H     0.1386830    3.9007560    0.8555350  
H     6.5349720    2.7904370   -0.0600320  
H     2.9502230    4.9683570    0.9632330  
C     3.3447220   -0.8745500   -1.6476970  
C     4.1021660   -0.1750430   -0.7473870  
C     5.1702440   -1.0816070   -0.3217400  
C     4.9660620   -2.3463450   -1.0720200  
N     3.8496110   -2.1442740   -1.8608540  
C     5.7428500   -3.4528240   -0.9588470  
C     6.8621590   -3.4207850   -0.0230470  
O     7.6188850   -4.3644210    0.1469210  
C     7.0846170   -2.1045220    0.8050770  
O     8.0041450   -2.0582420    1.6067510  
C     6.1758240   -0.9732120    0.5847810  
H     5.5672340   -4.3645830   -1.5216240  
H     6.3592070   -0.0712670    1.1550110  
H     2.4585130   -0.5506120   -2.1744660  
H     3.4396990   -2.8366200   -2.4682810  
C    -7.5221320    0.4084590   -2.1978380  
C    -6.2389260    0.5917810   -1.7988960  
C    -6.0485990   -0.3436170   -0.6936570  
C    -7.3717560   -1.0311690   -0.5750230  
N    -8.2265340   -0.5848430   -1.4530150  
C    -7.6068450   -2.0645870    0.3985670  
C    -6.5844180   -2.3973930    1.2189480  
O    -6.6625000   -3.3339830    2.1766410  
C    -5.2483310   -1.7010720    1.1556910  
O    -4.4257060   -1.9955310    2.0143750  
C    -4.9968390   -0.6570610    0.1078570  
H    -5.4969240    1.2556660   -2.2190020  
H    -8.5761590   -2.5470130    0.4561820  
H    -5.7906750   -3.3205250    2.6294340  
H    -8.0441610    0.9125380   -3.0028930  
