58


C    -0.2739260    0.1045580    1.1307100  
C    -1.4825530   -0.4534500    0.8868770  
C    -2.2376670    0.4600130    0.0637160  
C    -1.3546540    1.6284940   -0.1660520  
N    -0.1705960    1.3760720    0.5367040  
C    -1.6565910    2.6676480   -0.9823940  
C    -2.9590220    2.6709990   -1.6394050  
O    -3.3080980    3.5501880   -2.4115010  
C    -3.9526350    1.4973260   -1.3360850  
O    -5.0837380    1.5653310   -1.7827080  
C    -3.4801850    0.3642890   -0.5016300  
H    -1.8256270   -1.4065710    1.2565370  
H    -0.9889250    3.4958250   -1.1772950  
H     0.5681980   -0.2877280    1.6800680  
C     3.9945310    0.2743700    0.2022170  
C     4.5948920    1.4978380    0.2990570  
C     3.5202490    2.4523350    0.4894700  
C     2.2859500    1.6149360    0.4657760  
N     2.5590310    0.3585290    0.2997090  
C     0.9604930    2.2017830    0.6175890  
C     0.9057010    3.5477280    0.8521830  
O    -0.2341190    4.2184300    1.0847720  
C     2.1306240    4.4006680    0.8695130  
O     1.9811980    5.6054540    1.0833100  
C     3.4575220    3.7873840    0.6718080  
H     5.6534340    1.7155080    0.2955670  
H     0.0397670    5.1564430    1.2027560  
H     4.3182770    4.4484220    0.6946870  
C     7.4706210   -1.2484750   -2.1459780  
C     6.5314620   -0.4143230   -1.6305140  
C     5.7196630   -1.2484900   -0.7603890  
C     6.3335430   -2.6104250   -0.8943750  
N     7.3577430   -2.5993570   -1.6999210  
C     5.8009590   -3.7531890   -0.2051380  
C     4.7118750   -3.5653300    0.5758400  
O     4.1173700   -4.5400640    1.2786760  
C     4.0776230   -2.2086230    0.7595060  
O     3.1496970   -2.1378200    1.5585060  
C     4.6249930   -1.0256440    0.0224090  
H     6.3931240    0.6367280   -1.8359550  
H     6.2689100   -4.7245060   -0.3200080  
H     3.3871400   -4.1034330    1.7702300  
H     8.2621370   -1.0024440   -2.8441910  
C    -5.1661190   -1.4395420    3.1591860  
C    -5.9949190   -2.3831950    2.6583640  
C    -5.8364490   -2.2967630    1.2101630  
C    -4.8299410   -1.1993720    1.0168070  
N    -4.4456110   -0.7079760    2.1584710  
C    -4.3924070   -0.7785890   -0.3060340  
C    -4.9352500   -1.4554850   -1.3594830  
O    -4.6014710   -1.2276140   -2.6347160  
C    -5.9432780   -2.5604150   -1.1893760  
O    -6.3637250   -3.1069540   -2.2072720  
C    -6.3783880   -2.9479740    0.1642720  
H    -6.6453700   -3.0599290    3.1947260  
H    -5.1629210   -1.8333280   -3.1678220  
H    -7.1132850   -3.7432770    0.2432490  
H    -4.9960360   -1.1846940    4.1985330  
