60


C     0.5522210    1.4003380   -0.5656220  
C    -0.8075170    1.1817540   -0.4994280  
C    -1.0295740   -0.2200250   -0.3268760  
C     0.3088020   -0.8405880   -0.2753920  
N     1.2134320    0.1867320   -0.4219640  
C     0.5960640   -2.1802930   -0.1246430  
C    -0.5824700   -3.0467330   -0.0963970  
O    -0.5222220   -4.2752640   -0.1427910  
C    -2.0303750   -2.4265440   -0.0404660  
O    -2.9559580   -3.2131200    0.0027190  
C    -2.1905590   -0.9604520   -0.1575280  
H    -1.5655130    1.9490880   -0.5000950  
H     2.2109620    0.0422190   -0.4768080  
C     0.7821320    3.7310800   -1.4343830  
C     1.2697470    2.6397170   -0.7602460  
C     2.6117190    3.0040560   -0.3004400  
C     2.8473180    4.3883850   -0.7778760  
N     1.6915410    4.7629060   -1.4474840  
C     3.9806840    5.0992870   -0.5645370  
C     5.0581090    4.4723440    0.2026220  
O     6.1202440    5.0266220    0.4313960  
C     4.8136020    3.0252030    0.7601170  
O     5.6760330    2.4964940    1.4427080  
C     3.5439220    2.3571600    0.4452540  
H     4.1285590    6.1127990   -0.9242740  
H     3.4013050    1.3637080    0.8598440  
H    -0.1698620    3.8373060   -1.9373040  
H     1.5629250    5.6417860   -1.9259820  
C    -3.5099950   -0.3702570   -0.1298670  
C    -3.9765160    0.7195330   -0.8291660  
C    -5.3485420    0.8908180   -0.4275320  
C    -5.5719900   -0.1991690    0.5782840  
N    -4.5131830   -0.9330790    0.7428550  
C    -6.8383800   -0.3537450    1.2495000  
C    -7.8319110    0.5042620    0.9208080  
O    -9.0625670    0.4771920    1.4533290  
C    -7.6413690    1.6007360   -0.1032780  
O    -8.6089770    2.3315350   -0.3274270  
C    -6.3430010    1.7502830   -0.7618950  
H    -3.4605690    1.2799580   -1.5954510  
H    -6.9730500   -1.1448830    1.9785260  
H    -9.5452040    1.2143790    1.0150110  
H    -6.2413810    2.5544880   -1.4843220  
C     4.1338450   -0.8894550    2.3488820  
C     2.8670820   -1.0559630    1.8406760  
C     2.9417340   -2.0728890    0.8245170  
C     4.2954140   -2.5017950    0.7844850  
N     4.9945440   -1.7536300    1.7102680  
C     4.7452720   -3.5380340   -0.0398490  
C     3.7940500   -4.1751750   -0.8200360  
O     4.1520570   -5.2077540   -1.6270150  
C     2.4300030   -3.7721940   -0.8076890  
O     1.6396890   -4.4932630   -1.6650190  
C     1.9803040   -2.6945630   -0.0331950  
H     1.9811980   -0.5427800    2.1864690  
H     5.9831530   -1.8297020    1.8932350  
H     5.7780390   -3.8701970   -0.0627130  
H     3.3227580   -5.5203220   -2.0381310  
H     0.7812420   -4.6537580   -1.2026990  
H     4.4957650   -0.2166030    3.1129580  
