60


C    -0.8725510   -1.5882550   -0.9480640  
C     0.5103670   -1.6787140   -1.0120030  
C     1.0335570   -0.3845780   -0.7310080  
C    -0.0749070    0.4867900   -0.5275340  
N    -1.2097400   -0.2652700   -0.6892100  
C     0.0519080    1.8628000   -0.2235740  
C     1.3676910    2.2972370    0.0051230  
O     1.6092860    3.5580490    0.4349810  
C     2.4942150    1.4530900   -0.2052440  
O     3.7068760    2.0892520   -0.0502470  
C     2.3428600    0.1296810   -0.5960560  
H     1.0703440   -2.5895560   -1.1690750  
H    -2.1080580    0.0671740   -0.3549670  
H     2.5787940    3.6444330    0.5079480  
H     4.3665150    1.4838620    0.3380450  
C     3.7417380   -1.3146740   -2.0849260  
C     4.9422780   -1.9406610   -2.0739030  
C     5.5266480   -1.7278170   -0.7654590  
C     4.5402060   -0.9210320   -0.0025050  
N     3.4739770   -0.6909540   -0.8530320  
C     4.7105990   -0.5247490    1.2923710  
C     5.9424680   -0.9067040    1.9808950  
O     6.1711410   -0.6187190    3.1450280  
C     7.0118720   -1.7319700    1.1778810  
O     8.0624130   -2.0306260    1.7213930  
C     6.6985030   -2.1194310   -0.2032090  
H     5.3873080   -2.4909600   -2.8901180  
H     3.9376130   -0.0230540    1.8678760  
H     7.4330610   -2.7166220   -0.7352080  
H     3.0096470   -1.2279480   -2.8760690  
C    -4.0539630    1.7391850    1.5843080  
C    -4.4463790    3.0214590    1.4278970  
C    -3.3721480    3.6665160    0.6850850  
C    -2.3362080    2.5898980    0.5061590  
N    -2.7636070    1.4669360    1.0169130  
C    -1.0705210    2.8313150   -0.1771210  
C    -0.9836910    4.0460310   -0.8077310  
O     0.0313300    4.4023860   -1.5988680  
C    -2.0226340    5.1284070   -0.6716540  
O    -1.8183640    6.1863390   -1.2645050  
C    -3.2282290    4.8852050    0.1336830  
H    -5.3696060    3.4824030    1.7495730  
H    -0.1687050    5.3240240   -1.8808630  
H    -3.9554700    5.6875860    0.2082770  
H    -4.5915180    0.9224750    2.0526990  
C    -1.8582860   -3.7782360   -1.7831800  
C    -1.8749360   -2.6187570   -1.0615060  
C    -3.1691800   -2.6656470   -0.3388860  
C    -3.7964310   -3.9322320   -0.7917210  
N    -3.0182830   -4.5761190   -1.6223970  
C    -5.0852650   -4.3453070   -0.3041160  
C    -5.7057900   -3.5575600    0.6101650  
O    -6.9142780   -3.8264650    1.1393270  
C    -5.0767970   -2.2966270    1.1117340  
O    -5.6990580   -1.6166250    1.9316830  
C    -3.7451600   -1.8999790    0.6058040  
H    -5.5292810   -5.2684430   -0.6602090  
H    -7.0979310   -3.0903480    1.7615280  
H    -3.3040160   -1.0028340    1.0290500  
H    -1.0808940   -4.1211710   -2.4549560  
