58


C    -3.2390270    1.4474120   -1.4736530  
C    -3.1034780    0.3142970   -0.7088340  
C    -4.4799110    0.0616820   -0.2149860  
C    -5.2803580    1.1792740   -0.7946350  
N    -4.5428190    1.9688090   -1.5348500  
C    -6.6860770    1.3289930   -0.5413360  
C    -7.2827010    0.4224560    0.2703870  
O    -8.5822880    0.4395430    0.5989200  
C    -6.5036130   -0.7056450    0.8873490  
O    -7.1094250   -1.4838730    1.6210100  
C    -5.0591740   -0.8423990    0.5976180  
H    -7.2305340    2.1525160   -0.9896790  
H    -8.7123940   -0.3318010    1.1940470  
H    -4.5469250   -1.6869860    1.0405090  
H    -2.4598320    1.9304310   -2.0503180  
C     1.1778370    1.5507370   -0.3054190  
C    -0.1975700    1.5870170   -0.3693290  
C    -0.6338620    0.2167630   -0.3570290  
C     0.6310410   -0.5585600   -0.2278010  
N     1.6790460    0.2088910   -0.2280600  
C     0.6479830   -2.0077480   -0.1293380  
C    -0.5577720   -2.6279650   -0.2081300  
O    -0.7133550   -3.9589650   -0.1327980  
C    -1.8512370   -1.8788510   -0.3527370  
O    -2.8759620   -2.5644850   -0.3876160  
C    -1.8629270   -0.3936490   -0.4536670  
H    -0.8211350    2.4618720   -0.4699550  
H    -1.6807420   -4.1103760   -0.2158650  
C     3.5895590   -1.9816250    3.1289930  
C     4.5613810   -2.7924980    2.6532150  
C     4.0741660   -3.2425970    1.3527460  
C     2.7513480   -2.5534040    1.2018650  
N     2.4680020   -1.8347810    2.2465870  
C     1.9205880   -2.7406080    0.0241330  
C     2.3779760   -3.6168880   -0.9104300  
O     1.7271570   -3.9045730   -2.0459710  
C     3.6966520   -4.3316270   -0.7724340  
O     4.0238020   -5.0941250   -1.6801270  
C     4.5327030   -4.0958010    0.4175540  
H     5.4954620   -3.0697270    3.1215290  
H     2.3042120   -4.5451840   -2.5188140  
H     5.4732180   -4.6347540    0.4791540  
H     3.5679100   -1.4518580    4.0740710  
C     0.9761780    5.6305930    1.4545850  
C     0.6996880    4.3543440    1.0667480  
C     1.8376120    3.8687850    0.3243150  
C     2.8229500    4.9721150    0.3273150  
N     2.2269450    6.0201670    1.0039030  
C     4.0729000    4.9125180   -0.2039580  
C     4.4896510    3.6671870   -0.8302010  
O     5.6164760    3.4788590   -1.2625180  
C     3.4251130    2.5219980   -0.9771740  
O     3.6889150    1.5953260   -1.7176660  
C     2.1111170    2.6564320   -0.2795120  
H    -0.1980790    3.8037710    1.2983080  
H     4.7842080    5.7311720   -0.1516030  
H     0.3710850    6.3172310    2.0315980  
H     2.6803320    6.8940120    1.2207700  
