58


C    -2.6983520   -1.0682340    1.0883170  
C    -1.4817870   -0.4853130    0.9881850  
C    -1.5974940    0.6222500    0.0633190  
C    -3.0104820    0.6449330   -0.3780570  
N    -3.6422040   -0.4412480    0.2573550  
C    -3.5502280    1.6106070   -1.1580380  
C    -2.6738720    2.6682440   -1.6575750  
O    -3.0785820    3.5892430   -2.3476410  
C    -1.1512440    2.6031600   -1.2986480  
O    -0.3871190    3.3843090   -1.8335130  
C    -0.6871850    1.5540870   -0.3523660  
H    -0.5837870   -0.7964920    1.5002340  
H    -4.5945290    1.6472720   -1.4417410  
H    -3.0079780   -1.9252710    1.6697870  
C     2.6772250   -1.3276310   -0.7747920  
C     1.4699190   -0.7131540   -0.8046700  
C     1.6068760    0.5600450   -0.1357830  
C     3.0226020    0.6473250    0.2937130  
N     3.6288190   -0.5550000   -0.0936480  
C     3.5811230    1.7389380    0.8710270  
C     2.7286710    2.8951880    1.1350760  
O     3.1505340    3.9286880    1.6284510  
C     1.2063370    2.7928640    0.7824890  
O     0.4590880    3.6873500    1.1353420  
C     0.7207670    1.5818460    0.0755720  
H     0.5737830   -1.0990310   -1.2665740  
H     4.6250780    1.8069300    1.1462430  
H     2.9780770   -2.2749790   -1.1946690  
C    -6.6779260   -1.4700630    3.2991140  
C    -5.5107060   -1.0522770    2.7483610  
C    -5.7330350   -1.1099950    1.3079360  
C    -7.1299030   -1.6072370    1.1754210  
N    -7.6770860   -1.8144530    2.3413030  
C    -7.7607940   -1.7937150   -0.1071190  
C    -7.0417290   -1.5056540   -1.2150650  
O    -7.5090420   -1.6258700   -2.4696530  
C    -5.6191870   -1.0320000   -1.1360930  
O    -5.0051090   -0.8836530   -2.1868480  
C    -4.9929120   -0.8050860    0.2089690  
H    -4.6213110   -0.7100810    3.2579060  
H    -8.7833220   -2.1501790   -0.1595170  
H    -6.7610760   -1.3975650   -3.0615810  
H    -6.9216610   -1.5534310    4.3514140  
C     6.3914210   -2.2542410   -2.9572150  
C     7.5280820   -2.3283280   -2.2296350  
C     7.1720930   -1.8244890   -0.9057300  
C     5.7239550   -1.4777550   -1.0321940  
N     5.2733220   -1.7330700   -2.2229680  
C     4.9730090   -0.9230860    0.0868430  
C     5.6361750   -0.7869280    1.2726740  
O     5.0621140   -0.3444830    2.4034700  
C     7.0873000   -1.1201940    1.4107260  
O     7.6008620   -0.9631010    2.5181720  
C     7.8357280   -1.6491200    0.2517210  
H     8.5025270   -2.6764590   -2.5423170  
H     5.7831830   -0.3401070    3.0732840  
H     8.8853260   -1.8807130    0.4041400  
H     6.2370650   -2.5332950   -3.9920660  
