60


C     2.4422160   -0.8057740   -0.0401500  
C     1.1116630   -0.4508570   -0.0988330  
C     1.0721890    1.0080560   -0.1401660  
C     2.4053700    1.4672510   -0.1097750  
N     3.2426590    0.3275220   -0.0332070  
C     2.7255140    2.8250790   -0.1922470  
C     1.6746020    3.7326030   -0.2764890  
O     1.9456740    5.0634140   -0.3631280  
C     0.3327800    3.2841200   -0.2788150  
O    -0.6021800    4.2876730   -0.3597000  
C     0.0244100    1.9351250   -0.2115910  
H     3.7356550    3.2066400   -0.2234940  
H     1.0939590    5.5293000   -0.4332080  
H    -1.4910260    3.9058670   -0.4419270  
H    -1.0027090    1.5904270   -0.2121800  
H     2.9156910   -1.7729630   -0.0015800  
C    -0.0022480   -1.3555470   -0.1267620  
C    -0.0475910   -2.7264960   -0.0376420  
C    -1.4336780   -3.0848460   -0.1234750  
C    -2.1523480   -1.7743860   -0.2765790  
N    -1.3178230   -0.7835280   -0.2725970  
C    -3.6093300   -1.6715100   -0.3898140  
C    -4.2677780   -2.8689790   -0.3428200  
O    -5.6001600   -3.0008080   -0.4497570  
C    -3.5720680   -4.1989830   -0.1898640  
O    -4.3014750   -5.1969200   -0.1751570  
C    -2.1210480   -4.2544940   -0.0806600  
H     0.7811530   -3.4094910    0.0869920  
H    -5.7516160   -3.9760420   -0.3939130  
H    -1.6611470   -5.2311660    0.0302440  
C    -3.6665050    0.7428790   -1.1246030  
C    -4.2307640   -0.3593570   -0.5423990  
C    -5.5328220    0.1360260   -0.0409470  
C    -5.5474240    1.5796430   -0.4301430  
N    -4.4553980    1.9175100   -1.0624950  
C    -6.6503210    2.4463640   -0.1129800  
C    -7.6900220    1.9220840    0.5786190  
O    -8.7803050    2.6115840    0.9480850  
C    -7.6977110    0.4803280    1.0052960  
O    -8.6726780    0.0779890    1.6375080  
C    -6.5560450   -0.3922940    0.6580450  
H    -6.6265340    3.4855920   -0.4218050  
H    -9.3447820    1.9671270    1.4297350  
H    -6.6157190   -1.4283350    0.9665060  
H    -2.7049090    0.7877800   -1.6140660  
C     4.6141810    0.2651800    0.0719870  
C     5.5404340    1.2598760    0.2807360  
C     6.8046610    0.5858250    0.3017220  
C     6.4642420   -0.8636260    0.0863740  
N     5.1789960   -1.0395150   -0.0400060  
C     7.4755550   -1.8808090    0.0380060  
C     8.7600250   -1.4827190    0.2051780  
O     9.8110200   -2.3039300    0.1890610  
C     9.1389220   -0.0259510    0.4335870  
O    10.3425420    0.2051180    0.5723330  
C     8.0942570    0.9843240    0.4729580  
H     5.3820430    2.3114150    0.4488890  
H     7.2054350   -2.9181720   -0.1237130  
H    10.5911880   -1.7178710    0.3371950  
H     8.3948610    2.0142090    0.6359560  
