58


C     3.4769250    1.6244350    0.1116900  
C     3.7474160    2.9663040    0.1044170  
C     2.4926830    3.6591840   -0.0132200  
C     1.4348310    2.6114210   -0.0563460  
N     2.0935130    1.4181410    0.0735990  
C     0.0716950    2.8371740   -0.1644610  
C    -0.2921910    4.2567330   -0.3006860  
O    -1.4483540    4.6560030   -0.4201870  
C     0.8158970    5.3781120   -0.2730510  
O     0.4522350    6.5384310   -0.3748100  
C     2.2045980    4.9850240   -0.1059710  
H     4.7253640    3.4240450    0.1303900  
H     2.9621530    5.7614030   -0.0752970  
H     1.6384250    0.5693880   -0.2513630  
C     4.3853850    0.5017310    0.1298870  
C     5.6883210    0.4613840    0.5512220  
C     6.1683300   -0.8850870    0.3761220  
C     5.0384470   -1.6536150   -0.2005400  
N     3.9684410   -0.7732710   -0.2819210  
C     5.1044310   -2.9588310   -0.5582530  
C     6.3612350   -3.6751650   -0.3390450  
O     6.5138990   -4.8512390   -0.6267600  
C     7.5610060   -2.8895100    0.3062940  
O     8.6136870   -3.4740650    0.5076620  
C     7.3681360   -1.4740810    0.6344720  
H     6.2364600    1.2828940    0.9896240  
H     4.2705120   -3.5050820   -0.9879720  
H     8.2072960   -0.9359720    1.0646270  
H     3.1791240   -0.9363870   -0.8929430  
C    -3.9285610    2.6336190    1.7349980  
C    -4.2984240    1.3734700    1.3985950  
C    -3.2435320    0.8288200    0.5754780  
C    -2.1970700    1.8875430    0.4825850  
N    -2.6677450    2.9376070    1.2303430  
C    -0.9702370    1.7758640   -0.1615170  
C    -0.7625180    0.4823960   -0.8157430  
O     0.2872440    0.1302660   -1.3579720  
C    -1.9088500   -0.5890030   -0.8540510  
O    -1.7618940   -1.5443430   -1.5935870  
C    -3.1121710   -0.3904650   -0.0306600  
H    -5.2077050    0.8678940    1.6842310  
H    -4.4569930    3.3713970    2.3240970  
H    -2.3536470    3.8822300    1.0272170  
C    -7.4893560   -0.8545640   -0.9649390  
C    -6.2656290   -0.2947020   -0.8039460  
C    -5.4193730   -1.3704940   -0.3012500  
C    -6.3423740   -2.5498490   -0.2302100  
N    -7.5471490   -2.2398820   -0.6163350  
C    -5.8884530   -3.8466570    0.1970670  
C    -4.5851860   -3.9776690    0.5360390  
O    -4.0296530   -5.1230410    0.9592870  
C    -3.6337220   -2.8119390    0.5025260  
O    -2.4965960   -3.0007490    0.9222080  
C    -4.1053180   -1.4728450    0.0267280  
H    -5.9652690    0.7222910   -1.0098190  
H    -6.5826170   -4.6786160    0.2366260  
H    -3.0917860   -4.9073610    1.1549840  
H    -8.3935030   -0.3788240   -1.3263310  
