62


C     0.9204400    1.6376770   -0.0885050  
C    -0.4225640    1.2786130   -0.0317320  
C    -0.5080700   -0.1434920   -0.0139590  
C     0.8255690   -0.6191940   -0.0526610  
N     1.6619550    0.4692260   -0.0869670  
C     1.1778410   -1.9851940   -0.0799640  
C     0.1209020   -2.8934890   -0.0920910  
O     0.3734370   -4.2261450   -0.0735250  
C    -1.2327720   -2.4661560   -0.0553280  
O    -2.1047400   -3.4972560   -0.0527090  
C    -1.5919380   -1.0907000    0.0073790  
H    -1.2302980    1.9862920    0.0229310  
H     2.6658590    0.4450930   -0.1940150  
H    -0.4952570   -4.6705800   -0.0961070  
H    -3.0355490   -3.1043980   -0.0491470  
C    -0.5192230    5.6662860   -1.4732680  
C    -0.4283440    4.3299130   -1.1862030  
C     0.8635430    4.1051960   -0.5959220  
C     1.5208950    5.3675340   -0.5675470  
N     0.6493180    6.2969040   -1.0927770  
C     2.8286670    5.5480250   -0.1097340  
C     3.4976180    4.4168270    0.3351040  
O     4.7753800    4.5216290    0.7928830  
C     2.8655940    3.1516260    0.3324090  
O     3.6913250    2.1060540    0.7740910  
C     1.5529390    2.9545040   -0.1192280  
H    -1.1818920    3.5920460   -1.4135900  
H     0.8522850    7.2763510   -1.2162670  
H     3.3250870    6.5126740   -0.0987150  
H     5.0541420    3.6161310    1.0236790  
H     3.2936260    1.6706540    1.5480490  
H    -1.3245710    6.2270770   -1.9260970  
C    -2.9736960   -0.7046090    0.0967570  
C    -3.5785490    0.5272060    0.2647510  
C    -4.9851270    0.2970420    0.2847820  
C    -5.1332130   -1.1871620    0.1133360  
N    -3.9652350   -1.7531450    0.0103090  
C    -6.4136580   -1.8298230    0.0793830  
C    -7.5017560   -1.0318410    0.2140770  
O    -8.7600600   -1.4681840    0.2049200  
C    -7.3938430    0.4786710    0.3938470  
O    -8.4665140    1.0821380    0.5048390  
C    -6.0846710    1.0953560    0.4223560  
H    -3.1064120    1.4866100    0.3912970  
H    -6.4942430   -2.9034940   -0.0480750  
H    -9.3060210   -0.6527530    0.3233560  
H    -6.0349860    2.1714970    0.5525040  
C     4.6584700   -1.3043420    2.6305090  
C     3.4051090   -1.2765610    2.1114960  
C     3.4880200   -2.0620450    0.8825120  
C     4.9155760   -2.5001880    0.8323300  
N     5.5942950   -2.0478030    1.8506830  
C     5.4143990   -3.3361600   -0.2277310  
C     4.5411180   -3.7209390   -1.1867320  
O     4.8655910   -4.4976810   -2.2314420  
C     3.1009780   -3.2708780   -1.1880010  
O     2.4164320   -3.5913050   -2.1520810  
C     2.5846700   -2.4229700   -0.0661120  
H     2.5132830   -0.8320190    2.5306850  
H     6.4549850   -3.6405850   -0.2370520  
H     4.0458830   -4.5716290   -2.7682690  
H     5.0053980   -0.8516490    3.5524270  
