60


C    -3.3704510   -1.6537890    0.1316380  
C    -4.3573080   -0.6952190   -0.0570610  
C    -3.6570010    0.5429660   -0.3574230  
C    -2.2721280    0.2533570   -0.3256010  
N    -2.1378180   -1.0938550   -0.0394870  
C    -1.2526090    1.2150820   -0.5129330  
C    -1.6954780    2.5235070   -0.7288880  
O    -0.7941960    3.5244950   -0.9445050  
C    -3.0778420    2.8347020   -0.7552500  
O    -3.3334910    4.1714140   -0.9878940  
C    -4.0549530    1.8752980   -0.5773600  
H    -1.2540430   -1.5712370    0.0577220  
H    -1.3053100    4.3334460   -1.1273520  
H    -4.2826780    4.3020610   -1.1316670  
H    -5.1041350    2.1432120   -0.6301460  
H    -3.4802110   -2.7110000    0.3237760  
C     0.7456770   -0.2472340   -1.0917640  
C     0.1647900    0.8362390   -0.5051800  
C     1.2835320    1.4921510    0.1998830  
C     2.4759430    0.6398840   -0.0930330  
N     2.1393730   -0.3676180   -0.8482260  
C     3.8140010    0.9399750    0.4273260  
C     3.8885900    2.0606700    1.2319130  
O     4.9912010    2.5309490    1.8087680  
C     2.6823490    2.9099730    1.5497590  
O     2.8591330    3.8852190    2.2797830  
C     1.3645780    2.5713050    0.9945930  
H     4.6947600    3.3313110    2.3040700  
H     0.5332210    3.2247830    1.2306270  
H     0.2726440   -0.9807100   -1.7352120  
C     4.9472740    0.0930370    0.1040900  
C     4.9841960   -1.0006520   -0.7245180  
C     6.3483830   -1.4710040   -0.6949170  
C     7.0460010   -0.5258550    0.2342750  
N     6.2380620    0.3770130    0.6961150  
C     8.4500350   -0.6629000    0.5356150  
C     9.1215230   -1.6788480   -0.0539410  
O    10.4266710   -1.9312260    0.1286710  
C     8.4441220   -2.6474420   -0.9966590  
O     9.1425300   -3.5389690   -1.4813680  
C     7.0148390   -2.4897410   -1.2876100  
H     4.1594230   -1.4190530   -1.2773870  
H     8.9318420    0.0342810    1.2119840  
H    10.6135890   -2.7213810   -0.4269100  
H     6.5626560   -3.2046250   -1.9682430  
C    -6.7770300   -3.3631660    2.5809370  
C    -5.7413920   -2.6397710    2.0872200  
C    -6.2990240   -1.8807130    0.9701260  
C    -7.7266150   -2.2789160    0.9532320  
N    -8.0029490   -3.1512770    1.8859710  
C    -8.6632680   -1.7303870    0.0035200  
C    -8.2008490   -0.8120350   -0.8724820  
O    -8.9652320   -0.1953510   -1.7954890  
C    -6.7629170   -0.3805050   -0.8836760  
O    -6.4492150    0.4726490   -1.7137180  
C    -5.7773740   -0.9932530    0.0698610  
H    -4.7287800   -2.5921810    2.4607540  
H    -9.7008030   -2.0453570    0.0188470  
H    -8.3540020    0.3979990   -2.2825230  
H    -6.7716180   -4.0451310    3.4229360  
