62


C     1.9402610   -0.6079840   -0.1446250  
C     3.2128490   -0.0551590   -0.0971820  
C     3.0300760    1.3797240   -0.2470180  
C     1.6410300    1.6050950   -0.3963630  
N     0.9917740    0.3702620   -0.3122500  
C     1.0828050    2.8720170   -0.5877190  
C     1.9540670    3.9478620   -0.6423250  
O     1.4706940    5.2090700   -0.8250640  
C     3.3525370    3.7457990   -0.5084170  
O     4.0929630    4.9088680   -0.5828890  
C     3.8946380    2.4893650   -0.3155780  
H     0.0177490    3.0270940   -0.7115330  
H     2.2355420    5.8099470   -0.8480070  
H     5.0333030    4.7001190   -0.4794230  
H     4.9647130    2.3692840   -0.1863600  
H     1.6429420   -1.6419380   -0.0454280  
C    -1.5060790   -1.1558950    2.9036290  
C    -2.7033950   -1.1201620    2.2337260  
C    -2.4474690   -0.5861900    0.9197860  
C    -1.0535320   -0.3329450    0.8627170  
N    -0.5089200   -0.6764140    2.0798700  
C    -0.4125630    0.1517730   -0.2901440  
C    -1.2076870    0.3634080   -1.4112920  
O    -0.6572100    0.7995720   -2.5686530  
C    -2.6116010    0.1316620   -1.3706370  
O    -3.2347800    0.4217590   -2.5562070  
C    -3.2668360   -0.3091660   -0.2171340  
H    -3.6474960   -1.4767550    2.6193240  
H     0.4675350   -0.5905410    2.3183870  
H    -1.3960210    0.8411730   -3.2084690  
H    -3.9056630   -0.2885980   -2.7127480  
H    -1.2768880   -1.4978750    3.9027920  
C    -6.1278290    1.1571440    2.7731490  
C    -7.2822650    0.6316820    2.2923940  
C    -6.9527810   -0.0796420    1.0747330  
C    -5.4855810    0.0709340    0.8898120  
N    -5.0556920    0.8438710    1.9407410  
C    -4.7417810   -0.4545420   -0.1448120  
C    -5.5241130   -1.1207760   -1.1840180  
O    -5.0605320   -1.4739630   -2.2707130  
C    -7.0575110   -1.3943810   -0.9592440  
O    -7.6441040   -2.0875190   -1.7733470  
C    -7.7095640   -0.7879940    0.1967820  
H    -8.2673670    0.7344500    2.7231050  
H    -8.7759460   -0.9450480    0.3226270  
H    -5.9597540    1.7581740    3.6569070  
H    -4.0818320    1.0136070    2.1477770  
C     4.4607980   -4.0771570   -1.5826710  
C     3.7755060   -2.9148260   -1.4409180  
C     4.5652570   -2.1127850   -0.5091540  
C     5.7289950   -2.9745510   -0.2035020  
N     5.6635060   -4.1251950   -0.8210280  
C     6.7926080   -2.5436540    0.6706590  
C     6.7064700   -1.3027630    1.1971380  
O     7.6369520   -0.7573360    2.0075000  
C     5.5415890   -0.4004930    0.9133590  
O     5.5613740    0.7090470    1.4473840  
C     4.4110130   -0.8691590    0.0422410  
H     2.8654940   -2.6164180   -1.9410680  
H     7.6308620   -3.2014630    0.8725120  
H     7.2896390    0.1327500    2.2318520  
H     4.2061830   -4.9290520   -2.2019130  
