60


C     1.0334840    1.6922010   -0.2288780  
C    -0.3514620    1.5871220   -0.3699230  
C    -0.6762470    0.2086690   -0.3995170  
C     0.5434780   -0.5155390   -0.2579780  
N     1.5507510    0.4025930   -0.1646790  
C     0.6077100   -1.9253110   -0.2351050  
C    -0.6130430   -2.5935590   -0.3440720  
O    -0.6479590   -3.9422410   -0.2742080  
C    -1.8467700   -1.8961570   -0.5087340  
O    -2.9310960   -2.7222460   -0.6778490  
C    -1.8897450   -0.5097880   -0.5444070  
H    -1.0469590    2.4110620   -0.3865630  
H     2.5280060    0.2238130    0.0302510  
H    -1.5799070   -4.2120900   -0.3787060  
H    -3.7354430   -2.3248350   -0.2936840  
C    -3.3709600    1.0512110   -1.8217450  
C    -4.6574090    1.4712330   -1.8226980  
C    -5.3174690    0.8449430   -0.6947540  
C    -4.2837470    0.0189620   -0.0211660  
N    -3.1151020    0.1770870   -0.7477500  
C    -4.5061560   -0.7237350    1.1011960  
C    -5.8471180   -0.7155050    1.6868380  
O    -6.1311340   -1.3281320    2.7031750  
C    -6.9606710    0.1295350    0.9700990  
O    -8.0936830    0.1235430    1.4209630  
C    -6.5879080    0.9041480   -0.2210580  
H    -5.1134360    2.1407160   -2.5375310  
H    -3.7189330   -1.2462500    1.6372740  
H    -7.3605480    1.5067610   -0.6890430  
H    -2.5659880    1.2752260   -2.5081810  
C     3.9661390   -2.0569580    2.7316490  
C     2.7979180   -1.7308830    2.1280430  
C     2.7712430   -2.5223200    0.9014120  
C     4.0529170   -3.2951670    0.9447520  
N     4.7442930   -3.0183190    2.0134860  
C     4.4110890   -4.2305060   -0.0893060  
C     3.5472130   -4.3905530   -1.1174260  
O     3.7527570   -5.2217560   -2.1513080  
C     2.2627470   -3.6080450   -1.2107670  
O     1.5892340   -3.7559980   -2.2246410  
C     1.8794600   -2.6651700   -0.1116850  
H     2.0345220   -1.0498190    2.4755900  
H     5.3445610   -4.7785110   -0.0267410  
H     2.9813520   -5.0970170   -2.7464090  
H     4.3529850   -1.6845360    3.6728930  
C     0.4987680    6.0841440   -1.0218850  
C     0.2684230    4.7457250   -1.0104020  
C     1.4678860    4.1508840   -0.4351720  
C     2.3402880    5.3195910   -0.1649450  
N     1.7686480    6.4475710   -0.4952640  
C     3.6624650    5.1838120    0.3912400  
C     4.1177290    3.9361780    0.6392550  
O     5.3456140    3.6654670    1.1227660  
C     3.2782200    2.7293340    0.3676090  
O     3.8101520    1.6331270    0.5714610  
C     1.8634520    2.8723390   -0.1275610  
H    -0.5988020    4.2318710   -1.3958690  
H     4.2656840    6.0657840    0.5755220  
H     5.4052220    2.6888210    1.1769770  
H    -0.1550470    6.8673540   -1.3866700  
