58


C     0.4483530    1.7332180    0.1625530  
C     1.7404120    1.2692130    0.0857390  
C     1.7002650   -0.1580660   -0.0610500  
C     0.2731170   -0.5266080   -0.0901730  
N    -0.4340940    0.6521850    0.0079110  
C    -0.2322890   -1.8044910   -0.1656810  
C     0.7656160   -2.8846650   -0.3399170  
O     0.4709500   -4.0321370   -0.6103580  
C     2.2863610   -2.5245280   -0.2341710  
O     3.0888170   -3.4358620   -0.1441580  
C     2.6973640   -1.1004240   -0.1781020  
H     2.6287120    1.8824910    0.0845600  
H    -1.4059030    0.6606530    0.2911800  
C     5.4392810    0.9954750    2.6692450  
C     4.3478430    0.4626070    2.0584540  
C     4.7889900   -0.1094950    0.8041460  
C     6.2515540    0.1297990    0.7401220  
N     6.5756900    0.8255100    1.8903110  
C     7.0710620   -0.2957250   -0.2553310  
C     6.4830190   -1.0463510   -1.3563620  
O     7.1361060   -1.4991570   -2.2829220  
C     4.9284920   -1.2649600   -1.3535930  
O     4.4077720   -1.7529550   -2.3389240  
C     4.1322560   -0.7994640   -0.1831420  
H     3.3404010    0.4567670    2.4450800  
H     8.1433790   -0.1261450   -0.2603880  
H     5.5118400    1.4989740    3.6242830  
H     7.5141350    1.0667730    2.1682740  
C     0.6257040    4.1307250    0.9209970  
C    -0.0340770    3.0755310    0.3448130  
C    -1.3410530    3.6409360   -0.0453660  
C    -1.2641430    5.0649190    0.3996890  
N    -0.1075600    5.3307460    0.9541780  
C    -2.3484840    5.9816900    0.1976610  
C    -3.4590280    5.5229530   -0.4327900  
O    -4.5415820    6.2692060   -0.6838450  
C    -3.5590050    4.1023880   -0.9180410  
O    -4.5917030    3.7566710   -1.4845660  
C    -2.4231750    3.1780220   -0.6988140  
H    -2.2611560    7.0071710    0.5385490  
H    -5.1747240    5.6809230   -1.1506210  
H    -2.5318610    2.1743750   -1.0969620  
H     1.6177860    4.1139480    1.3569030  
C    -1.6510000   -2.0938530   -0.1174370  
C    -2.7004450   -1.3405940   -0.5936960  
C    -3.8969440   -2.0715760   -0.2510020  
C    -3.3882210   -3.2727500    0.4881620  
N    -2.0901620   -3.2863740    0.5592870  
C    -4.2881470   -4.2565520    1.0339960  
C    -5.6140510   -4.0751730    0.8308000  
O    -6.5669440   -4.9093100    1.2694660  
C    -6.1548190   -2.8840470    0.0713940  
O    -7.3778480   -2.8085660   -0.0553860  
C    -5.2223600   -1.8853350   -0.4591500  
H    -2.6504610   -0.4665770   -1.2292490  
H    -3.8953700   -5.1123870    1.5712770  
H    -7.4148110   -4.5129210    0.9659170  
H    -5.6483150   -1.0385490   -0.9887810  
