58


C    -2.9093420    1.2995570    0.4650960  
C    -3.8426940    0.3246940    0.2186310  
C    -3.0856110   -0.8782130   -0.1441370  
C    -1.6517340   -0.5142280   -0.0377420  
N    -1.6249600    0.8097630    0.3503730  
C    -0.5942260   -1.3328390   -0.3234780  
C    -0.9187160   -2.7099870   -0.7547910  
O    -0.0674990   -3.5656610   -0.9173770  
C    -2.4251490   -3.0879410   -0.9550700  
O    -2.6995360   -4.1953860   -1.3882990  
C    -3.4517290   -2.1043550   -0.6025830  
H    -4.4846660   -2.4029250   -0.7195100  
H    -3.0815950    2.3376140    0.7041640  
H    -0.7836530    1.3598520    0.4344880  
C     1.9118710    0.3426010    2.9603940  
C     0.8934730   -0.1711940    2.2237060  
C     1.4081160   -0.4210720    0.8910190  
C     2.8309980   -0.0126690    0.9192850  
N     3.0634390    0.4657800    2.1914520  
C     3.7028720   -0.0941120   -0.1368490  
C     3.1787060   -0.7017680   -1.3736780  
O     3.8894800   -0.9904630   -2.3201080  
C     1.6495620   -1.0219940   -1.4647880  
O     1.1782600   -1.2809550   -2.5552440  
C     0.8152310   -0.9297640   -0.2365460  
H    -0.1069320   -0.3793040    2.5715070  
H     1.9261150    0.6430500    3.9996400  
H     3.9785010    0.7028660    2.5462510  
C     7.2474360   -0.7818650    2.5537220  
C     5.9974600   -0.8666530    2.0288810  
C     6.0183760    0.0045250    0.8584370  
C     7.4153560    0.5353690    0.8348000  
N     8.1230380    0.0776690    1.8321000  
C     7.8760400    1.4228210   -0.1998630  
C     6.9943820    1.7764970   -1.1629570  
O     7.2836010    2.5989410   -2.1823240  
C     5.5609110    1.3127850   -1.1391900  
O     4.7993860    1.8117370   -1.9591060  
C     5.1017160    0.3436770   -0.0886020  
H     5.1802580   -1.4918340    2.3603470  
H     8.8995160    1.7806280   -0.1923340  
H     6.4445540    2.7080020   -2.6812940  
H     7.6349100   -1.2978520    3.4247220  
C    -6.1683720    3.9377690   -0.6182750  
C    -7.4408270    3.5077420   -0.4734940  
C    -7.3272130    2.1032760   -0.0936300  
C    -5.8520190    1.8444230   -0.0691830  
N    -5.1877170    2.9208570   -0.3734170  
C    -5.2897590    0.5318210    0.2592220  
C    -6.2067800   -0.4208940    0.6119100  
O    -5.8777190   -1.6598550    1.0264220  
C    -7.6827810   -0.1838170    0.5963900  
O    -8.4153530   -1.1163550    0.9307070  
C    -8.2124160    1.1386030    0.2122630  
H    -8.3575890    4.0655230   -0.6041770  
H    -6.7368670   -2.1079820    1.1989030  
H    -9.2908820    1.2638270    0.2139390  
H    -5.8220620    4.9272500   -0.8909670  
