60


C     3.2048030   -1.4949160    0.0669810  
C     4.1636570   -0.4940520    0.0496090  
C     3.4280280    0.7610630    0.0887380  
C     2.0507300    0.4354600    0.1478000  
N     1.9553890   -0.9429960    0.1428640  
C     1.0134630    1.3964620    0.1221990  
C     1.4176920    2.7356740    0.0405000  
O     0.4863760    3.7216140    0.0878910  
C     2.7885860    3.0768580   -0.0259420  
O     3.0148720    4.4367340   -0.0927890  
C     3.7860320    2.1202260   -0.0097510  
H     1.0918010   -1.4635120    0.1382090  
H     0.9476060    4.5668410   -0.0561630  
H     3.9647930    4.6043240   -0.1816960  
H     4.8279270    2.4163290   -0.0447880  
H     3.3424730   -2.5623360    0.0161120  
C    -1.4563210   -1.0973700    2.8585630  
C    -0.4445210   -0.4196260    2.2654720  
C    -0.9867770    0.2118640    1.0749130  
C    -2.4103600   -0.1666380    1.0235960  
N    -2.6263540   -0.9860120    2.1007260  
C    -3.3402900    0.2805220    0.0982520  
C    -2.8469360    1.2955070   -0.8359080  
O    -3.5660450    1.9695490   -1.5668730  
C    -1.3029730    1.5361800   -0.9414440  
O    -0.8842180    2.0743580   -1.9461020  
C    -0.4106350    1.0438240    0.1468750  
H     0.5710450   -0.3359240    2.6212750  
H    -1.4636130   -1.6738710    3.7735160  
H    -3.5529120   -1.2171290    2.4321930  
C    -4.7251130   -0.1456130    0.0887350  
C    -5.3211340   -1.2679700    0.6386920  
C    -6.7201440   -1.2304630    0.3158240  
C    -6.9245230    0.0098990   -0.4747850  
N    -5.6912960    0.6160250   -0.5638570  
C    -8.1211790    0.4063710   -0.9784070  
C    -9.2906490   -0.4327780   -0.7337890  
O   -10.4070990   -0.1557300   -1.1468380  
C    -9.0969900   -1.7526620    0.1007030  
O   -10.0685760   -2.4644140    0.3144960  
C    -7.7580910   -2.0720380    0.5888730  
H    -4.8189590   -2.1010450    1.1081800  
H    -8.2519560    1.3162130   -1.5558210  
H    -7.6363310   -2.9867230    1.1616490  
H    -5.4329440    1.4207660   -1.1230160  
C     6.3424790   -3.8619110   -1.7274250  
C     7.6318780   -3.5222950   -1.5128310  
C     7.5753230   -2.2480730   -0.8030840  
C     6.1113170   -1.9554090   -0.6770360  
N     5.4051010   -2.9029410   -1.2209600  
C     5.6019420   -0.7418190   -0.0226270  
C     6.5694500    0.0737510    0.5021500  
O     6.3063630    1.2047700    1.1985280  
C     8.0278700   -0.1989140    0.3898680  
O     8.8075660    0.6050790    0.9103050  
C     8.5014780   -1.4113520   -0.3055140  
H     8.5256240   -4.0601810   -1.7969600  
H     7.1941510    1.5433460    1.4560680  
H     9.5745150   -1.5665100   -0.3645460  
H     5.9544380   -4.7433810   -2.2233630  
