62


C     1.6455690   -1.7937200   -0.1144930  
C     2.9869940   -1.5678920   -0.1324720  
C     3.1959160   -0.1518130    0.0099700  
C     1.9144690    0.4443500    0.1072370  
N     0.9599810   -0.5800970    0.0068220  
C     1.7313570    1.8016050    0.3775490  
C     2.8720240    2.5761370    0.5345470  
O     2.7567890    3.9076450    0.8006040  
C     4.1649810    2.0126050    0.4359640  
O     5.1896070    2.9247260    0.5855560  
C     4.3589200    0.6513290    0.1493470  
H     3.7460530   -2.3265450   -0.2453300  
H     0.7567740    2.2604050    0.4671390  
H     3.6721070    4.2357100    0.8845140  
H     5.8310150    2.5586340    1.2302610  
H     1.0886470   -2.7135100   -0.1779760  
C    -1.8598910   -2.9710430    2.1878590  
C    -3.0370110   -2.3801010    1.8494080  
C    -2.6874820   -1.3091030    0.9286940  
C    -1.2237080   -1.3970450    0.8355200  
N    -0.7416270   -2.3752250    1.5631090  
C    -0.4323570   -0.4609220    0.0405570  
C    -1.1221170    0.5089150   -0.6339460  
O    -0.5280740    1.4262120   -1.4340960  
C    -2.5833440    0.6367460   -0.5426810  
O    -3.0940790    1.5847330   -1.1665160  
C    -3.4070660   -0.3679050    0.2255780  
H    -4.0164260   -2.6143390    2.2380940  
H    -1.2628540    1.9890010   -1.7593550  
H    -1.6993710   -3.8014330    2.8646980  
C    -4.8408360   -0.2930600    0.1532650  
C    -5.8115020   -1.2312880    0.5347170  
C    -7.0796650   -0.6911090    0.2335270  
C    -6.8562790    0.5978880   -0.3453540  
N    -5.5083330    0.8069140   -0.3782320  
C    -7.9062010    1.4213590   -0.7737430  
C    -9.1942700    0.9396020   -0.6179600  
O   -10.2518850    1.6909600   -1.0150360  
C    -9.4372520   -0.3490090   -0.0409590  
O   -10.7766230   -0.6636720    0.0370060  
C    -8.4091610   -1.1588850    0.3798170  
H    -5.6130920   -2.2125110    0.9364500  
H    -5.0025100    1.5740320   -0.8037720  
H    -7.7459090    2.3994720   -1.2140050  
H   -11.0613210    1.1844280   -0.8251240  
H   -10.8857390   -1.5422250    0.4306810  
H    -8.6126150   -2.1343170    0.8160220  
C     6.1760180   -1.8591120   -3.0030570  
C     7.4314970   -2.0427110   -2.5392800  
C     7.4810670   -1.3073780   -1.2778380  
C     6.1018560   -0.7405640   -1.1273450  
N     5.3552470   -1.0581530   -2.1408740  
C     5.7185930    0.0899880    0.0206860  
C     6.7306100    0.3426920    0.8995640  
O     6.5775440    1.1207530    2.0099030  
C     8.1086960   -0.2016800    0.7742020  
O     8.9237260    0.0856570    1.6556700  
C     8.4473590   -1.0599920   -0.3756530  
H     8.2438430   -2.5920650   -2.9946060  
H     7.4596740    1.0998340    2.4497760  
H     9.4648480   -1.4339310   -0.4376940  
H     5.7372600   -2.2341360   -3.9196670  
