62


C     3.0961700    3.7217050   -0.7999820  
C     1.7631770    3.4228670   -0.6860300  
C     1.6689990    2.0299550   -0.3508890  
C     3.0032640    1.5346790   -0.3182320  
N     3.8473030    2.5829110   -0.6121080  
C     3.3376240    0.1808070   -0.1034990  
C     2.2518170   -0.6561810    0.2026140  
O     2.4683780   -1.9514170    0.5447950  
C     0.9184920   -0.1884150    0.1944040  
O    -0.0087230   -1.2035860    0.4332720  
C     0.5805270    1.1444290   -0.1003970  
H     0.9542890    4.1119750   -0.8678030  
H     4.8137960    2.5636300   -0.3002220  
H     1.5804620   -2.3460880    0.6438750  
H    -0.5952910   -1.0186550    1.1963850  
H     3.5763920    4.6660770   -1.0150130  
C    -0.7995010    1.6056910   -0.0939250  
C    -1.3301920    2.8694000    0.0478590  
C    -2.7621510    2.7635940    0.0375240  
C    -3.0642060    1.3190170   -0.0867590  
N    -1.8575320    0.6876880   -0.1858970  
C    -4.3132110    0.7413270   -0.0527560  
C    -5.4226950    1.6864890   -0.1134180  
O    -6.5922260    1.3570970   -0.3308540  
C    -5.1458380    3.2245450    0.0891970  
O    -6.1099150    3.9704570    0.1818400  
C    -3.7659730    3.6816700    0.1440890  
H    -0.7763480    3.7796850    0.2063990  
H    -3.5867870    4.7434280    0.2794890  
H    -1.7363160   -0.2956360   -0.3791310  
C    -2.4126810   -2.2877980    2.6608340  
C    -2.8299250   -1.1187790    2.0643390  
C    -3.7198530   -1.4793000    0.9878770  
C    -3.8079130   -2.8939910    0.9957510  
N    -2.9884070   -3.3567620    2.0095990  
C    -4.6403840   -3.6130300    0.1299560  
C    -5.4244090   -2.8719430   -0.7383560  
O    -6.2844360   -3.4933150   -1.5867610  
C    -5.3576700   -1.4493770   -0.7758930  
O    -6.1882050   -0.8846360   -1.7068490  
C    -4.4821730   -0.7284010    0.0389650  
H    -2.6019280   -0.1205500    2.4119150  
H    -2.8735470   -4.3253560    2.2640970  
H    -4.7153280   -4.6954570    0.1420080  
H    -6.7517310   -2.7756320   -2.0574200  
H    -6.5399970   -0.0449930   -1.3144140  
H    -1.7765870   -2.4428070    3.5213240  
C     7.2972460    1.5145340    1.4383910  
C     8.0846710    0.4632170    1.1224410  
C     7.2216250   -0.4520480    0.3858790  
C     5.8766980    0.2195620    0.3857670  
N     5.9467340    1.3779910    0.9822610  
C     4.7016630   -0.3811680   -0.2302970  
C     4.9482890   -1.5193720   -0.9535500  
O     4.0287620   -2.1481080   -1.6892040  
C     6.2943000   -2.1940640   -0.9974120  
O     6.3911000   -3.2228770   -1.6641560  
C     7.4311810   -1.6083370   -0.2688770  
H     9.1335310    0.3202820    1.3412540  
H     4.4880490   -2.9303530   -2.0706210  
H     8.3845920   -2.1242220   -0.3262610  
H     7.5663650    2.4152510    1.9768030  
