64


C    -3.0467130    2.1454920    0.3604730  
C    -3.3839220    3.3940020    0.8386230  
C    -2.1863300    4.1832520    0.8714830  
C    -1.1289320    3.3546020    0.4194220  
N    -1.6676570    2.1117160    0.1438290  
C     0.2128470    3.7829720    0.2958390  
C     0.4375220    5.1307670    0.6111790  
O     1.6980400    5.6653640    0.4892740  
C    -0.6034340    5.9686720    1.0737080  
O    -0.1860520    7.2569930    1.3575360  
C    -1.9023950    5.5166080    1.2245130  
H    -4.3687910    3.6978910    1.1653840  
H    -1.2387560    1.4792620   -0.5174730  
H     1.6430970    6.5925240    0.7811580  
H    -0.9335130    7.7737880    1.6920660  
H    -2.6823050    6.1840360    1.5844120  
C    -3.8276450    0.9559550    0.1081140  
C    -5.1690430    0.7852650   -0.1654480  
C    -5.3976160   -0.6149170   -0.3618830  
C    -4.1467430   -1.2673990   -0.2004140  
N    -3.1981560   -0.2913580    0.0481770  
C    -3.9887910   -2.6528080   -0.3104490  
C    -5.1223120   -3.3996960   -0.5956640  
O    -5.0329710   -4.7566380   -0.7134510  
C    -6.3818130   -2.7659230   -0.7745340  
O    -7.4108810   -3.6444780   -1.0621110  
C    -6.5314310   -1.3958790   -0.6670550  
H    -5.8929980    1.5826280   -0.2645980  
H    -2.3122780   -0.4842500    0.4937540  
H    -3.0268230   -3.1430820   -0.1951510  
H    -5.9247780   -5.0859850   -0.9190080  
H    -8.2365370   -3.1492640   -1.1666550  
H    -7.5074150   -0.9356670   -0.8091990  
C     1.2677060    2.8628890   -0.1166690  
C     1.2719010    1.4733520   -0.1073810  
C     2.5255980    1.0329290   -0.6177830  
C     3.2783620    2.2011090   -0.9184390  
N     2.4876150    3.2878250   -0.6201650  
C     4.5855230    2.1468040   -1.4091010  
C     5.1386600    0.8866230   -1.6034330  
O     6.4013660    0.7764750   -2.1061760  
C     4.4056220   -0.2882550   -1.3083580  
O     5.0998030   -1.4600670   -1.5767410  
C     3.1004050   -0.2552750   -0.8117960  
H     0.5051380    0.8430370    0.3122890  
H     2.7621970    4.2593750   -0.6368190  
H     5.1659790    3.0313470   -1.6492720  
H     6.5770650   -0.1742000   -2.2213010  
H     4.4659200   -2.1688240   -1.7688930  
C     1.0046890   -1.6942990   -0.7567650  
C     2.3306420   -1.4677140   -0.5169480  
C     2.7574210   -2.6768440    0.2317650  
C     1.5223610   -3.5085200    0.3271910  
N     0.5089220   -2.9248380   -0.2550110  
C     1.5162920   -4.7802100    0.9990720  
C     2.6679470   -5.1987290    1.5784410  
O     2.8017770   -6.3598660    2.2417410  
C     3.9200720   -4.3735210    1.5236050  
O     4.9282780   -4.8182410    2.0710120  
C     3.9061520   -3.0743770    0.8141660  
H     0.6042460   -5.3655500    1.0405260  
H     3.7361380   -6.3809610    2.5439690  
H     4.8346010   -2.5136130    0.7880100  
H     0.3242580   -1.0438100   -1.2924990  
