60


C     0.7526990   -2.4482990   -0.1466230  
C     1.2993580   -3.7281080   -0.1710700  
C     2.7158230   -3.5895040   -0.1788010  
C     2.9959380   -2.1938330   -0.1541640  
N     1.7997050   -1.5402180   -0.1327650  
C     4.3096020   -1.6455160   -0.1545700  
C     5.3481490   -2.5994140   -0.1893340  
O     6.6459730   -2.2011990   -0.1963490  
C     5.0794870   -3.9924310   -0.2108960  
O     6.2245510   -4.7656760   -0.2372100  
C     3.7941110   -4.4977690   -0.2029450  
H     0.7386930   -4.6524790   -0.1587070  
H     1.7798000   -0.5266150   -0.1739560  
H     7.1934220   -3.0075450   -0.2148870  
H     5.9874120   -5.7043890   -0.2574690  
H     3.6237630   -5.5721250   -0.2202510  
C    -1.7521330   -2.7300820   -0.4065840  
C    -0.6192260   -2.0141370   -0.1368780  
C    -1.1232260   -0.6475630    0.1601440  
C    -2.5975710   -0.7565570   -0.0063700  
N    -2.9435870   -1.9772450   -0.3233500  
C    -3.4823620    0.3798800    0.1742870  
C    -2.8921960    1.5614340    0.5277810  
O    -3.5804560    2.6899710    0.7620180  
C    -1.4207450    1.6923030    0.7201520  
O    -0.9632860    2.7972500    1.0214240  
C    -0.5533610    0.5094270    0.5422970  
H    -2.9049020    3.3756970    0.9550530  
H     0.5023800    0.6641570    0.7389250  
H    -1.8171670   -3.7738610   -0.6883010  
C    -6.7472510   -2.1296870    1.8905410  
C    -5.5488240   -1.5627070    1.6031280  
C    -5.7708460   -0.5835030    0.5602920  
C    -7.2256740   -0.6254260    0.2638570  
N    -7.7568650   -1.5854700    1.1006550  
C    -7.8606120    0.1609000   -0.6430400  
C    -7.0649380    1.1193980   -1.3931270  
O    -7.5387170    1.8890180   -2.2153680  
C    -5.5142180    1.1622630   -1.1335360  
O    -4.8337060    1.8950030   -1.8284930  
C    -4.9332200    0.2863280   -0.0823010  
H    -4.5991460   -1.8117470    2.0488610  
H    -8.9302000    0.1207990   -0.8249460  
H    -6.9861940   -2.9026940    2.6089330  
H    -8.7316760   -1.8366250    1.1413520  
C     4.5478080   -0.2183740   -0.1073360  
C     5.7210190    0.4976260   -0.1257350  
C     5.3513610    1.8807140   -0.0350500  
C     3.8504330    1.8707910    0.0383590  
N     3.3901900    0.6559270   -0.0118220  
C     3.0834840    3.0824110    0.1544670  
C     3.7744080    4.2472270    0.1819670  
O     3.2131570    5.4540280    0.2879580  
C     5.2924530    4.2954040    0.0976490  
O     5.8063450    5.4153670    0.1310890  
C     6.0422740    3.0506130   -0.0096790  
H     6.7209480    0.1029970   -0.1922070  
H     2.0010560    3.0547350    0.2304720  
H     3.9686310    6.0874480    0.2791050  
H     7.1241580    3.1183370   -0.0628450  
