58


C    -0.0672760    1.8422860   -0.1511430  
C     1.1592140    1.2152180   -0.2088970  
C     0.8852810   -0.1895150   -0.2163670  
C    -0.6087690   -0.2753700   -0.1595320  
N    -1.1458150    0.9072920   -0.1072360  
C    -1.3364510   -1.5433130   -0.1537570  
C    -0.5487230   -2.6636710   -0.3039500  
O    -1.0134260   -3.9054070   -0.4281710  
C     0.9483330   -2.5985870   -0.4030900  
O     1.5230780   -3.6764760   -0.6090560  
C     1.6766240   -1.3153050   -0.2543670  
H     2.1187910    1.6888170   -0.3421630  
H    -0.2181490   -4.4733020   -0.5465690  
C     2.0924620    5.4209930    1.4109020  
C     1.7674700    4.1282410    1.1268240  
C     0.5161830    4.1990660    0.4062600  
C     0.2159620    5.6720620    0.3617530  
N     1.1496220    6.3740060    0.9435900  
C    -0.9751570    6.1842700   -0.2468090  
C    -1.8454310    5.2892240   -0.7728580  
O    -2.9936840    5.6304860   -1.3680420  
C    -1.5847550    3.7995030   -0.7635560  
O    -2.4223690    3.1033540   -1.3250590  
C    -0.3314360    3.2658590   -0.1359660  
H     2.3071640    3.2380260    1.4113470  
H    -1.1596010    7.2524540   -0.2712980  
H    -3.3959760    4.7856940   -1.6712240  
H     2.9634370    5.7773920    1.9489180  
C    -2.7819700   -1.5766510   -0.0355980  
C    -3.6680800   -0.5399980   -0.1842510  
C    -4.9770120   -1.1134350    0.0373080  
C    -4.7065800   -2.5557350    0.3322200  
N    -3.4378130   -2.8243240    0.2897230  
C    -5.7751630   -3.4784860    0.6248330  
C    -7.0405670   -2.9978880    0.6150510  
O    -8.1314760   -3.7373570    0.8633190  
C    -7.3441980   -1.5488340    0.3151130  
O    -8.5258960   -1.2052840    0.3302100  
C    -6.2379570   -0.6244180    0.0266040  
H    -3.4339850    0.4862060   -0.4192610  
H    -5.5533770   -4.5181760    0.8380440  
H    -8.8892760   -3.1156720    0.7832450  
H    -6.4935780    0.4107770   -0.1777200  
C     3.1232760   -1.3172680   -0.1544950  
C     3.9532240   -0.3329600    0.3492320  
C     5.3037770   -0.8113880    0.2798280  
C     5.2296040   -2.1737900   -0.3020440  
N     3.8956750   -2.4104070   -0.5513110  
C     6.3065970   -2.9714390   -0.5165600  
C     7.6297220   -2.4653220   -0.1612740  
O     8.6553070   -3.1091890   -0.3184690  
C     7.7319140   -1.0210960    0.4527680  
O     8.8285180   -0.5779250    0.7562930  
C     6.4956680   -0.2558490    0.6407190  
H     3.6392870    0.6036340    0.7815400  
H     6.2355180   -3.9678850   -0.9409290  
H     6.5769860    0.7393530    1.0673700  
H     3.4759300   -3.2893140   -0.8222630  
