60


C     3.3223950    0.2349080    0.2489860  
C     3.7871600    1.3581770    0.9267640  
C     2.6696680    2.1949940    1.1901680  
C     1.5265710    1.5382700    0.6521620  
N     1.9404710    0.3618140    0.0953360  
C     0.2375610    2.0936780    0.7361310  
C     0.1030910    3.3293350    1.3665770  
O    -1.1207440    3.9005210    1.4755770  
C     1.2456180    3.9968720    1.8949140  
O     0.9387900    5.2078520    2.4794060  
C     2.5087020    3.4494700    1.8199830  
H     4.8193500    1.5290810    1.1870950  
H     1.3706040   -0.3122590   -0.3961340  
H    -1.0038400    4.7574090    1.9234710  
H     1.7474470    5.6296260    2.8059230  
H     3.3647140    3.9772450    2.2342960  
C    -1.4905470    0.3025340    0.7775510  
C    -2.5691320   -0.1410010    0.0532540  
C    -2.7216600    0.7982410   -1.0604660  
C    -1.6190600    1.7810540   -0.9261040  
N    -0.8948720    1.4146670    0.2071280  
C    -1.3968550    2.8247650   -1.7606790  
C    -2.3202110    3.0323780   -2.8714110  
O    -2.2009310    3.9414340   -3.6792580  
C    -3.5260180    2.0382000   -3.0112860  
O    -4.3279400    2.2039230   -3.9180400  
C    -3.6451950    0.9391580   -2.0478700  
H    -0.5789710    3.5238280   -1.6255730  
H    -4.4708180    0.2531300   -2.1808810  
H    -1.1002370   -0.0952960    1.7018690  
C    -3.5184720   -1.7517870    4.0117030  
C    -4.3559310   -2.7713180    3.7204470  
C    -4.4505330   -2.7811720    2.2641230  
C    -3.5773270   -1.6450910    1.8283530  
N    -3.0398490   -1.0537950    2.8551470  
C    -3.3945890   -1.2906520    0.4179600  
C    -4.0259960   -2.1152510   -0.4746690  
O    -3.9048120   -2.0012870   -1.8130010  
C    -4.9009080   -3.2512110   -0.0630250  
O    -5.4224590   -3.9279960   -0.9523950  
C    -5.0976520   -3.5480310    1.3694310  
H    -4.8565160   -3.4454340    4.4014610  
H    -4.4712780   -2.7166960   -2.1808770  
H    -5.7441740   -4.3833280    1.6209860  
H    -3.1841770   -1.4162420    4.9859580  
C     7.6077480   -0.7705260    0.4013880  
C     7.6361520   -1.9558960   -0.2452110  
C     6.2496330   -2.2217350   -0.6155260  
C     5.4935800   -1.0415970   -0.0904080  
N     6.2939840   -0.2051930    0.4993630  
C     4.0386680   -0.9153420   -0.2578260  
C     3.4390840   -1.9567980   -0.9228630  
O     2.1039210   -2.0132880   -1.1683960  
C     4.1682010   -3.1312480   -1.4481020  
O     3.5168090   -4.0056670   -2.0309100  
C     5.6300170   -3.2234230   -1.2639830  
H     8.4884320   -2.5872960   -0.4543220  
H     1.9757800   -2.8570270   -1.6601080  
H     6.1279590   -4.1011550   -1.6649470  
H     8.4339570   -0.2216990    0.8363020  
