62


C    -0.1587220    1.9115950    0.3949700  
C     1.1775990    1.6456960    0.2477030  
C     1.2963540    0.2549570   -0.0877490  
C    -0.0209140   -0.2634320   -0.1649830  
N    -0.8963160    0.7695240    0.1208330  
C    -0.3328050   -1.5957430   -0.4977490  
C     0.7662560   -2.4106890   -0.7799480  
O     0.5763330   -3.7106170   -1.1367420  
C     2.0936750   -1.9176520   -0.7366380  
O     3.0444980   -2.8737740   -1.0302170  
C     2.3982320   -0.5983350   -0.3735790  
H     1.9742490    2.3640190    0.3581680  
H    -1.8626640    0.6419710    0.3837290  
H     1.4709390   -4.0680180   -1.3002950  
H     3.6572540   -2.5005340   -1.6987220  
C    -0.3746040    3.9171290    1.8243100  
C    -1.2202920    4.9829140    1.9459470  
C    -2.2404580    4.8354200    0.9445030  
C    -1.9524180    3.6464170    0.2279230  
N    -0.8020930    3.0877950    0.7873170  
C    -2.7312270    3.2112820   -0.8522760  
C    -3.8360060    3.9755940   -1.1959310  
O    -4.6318940    3.5872430   -2.2369700  
C    -4.1497560    5.1586140   -0.4785070  
O    -5.2811950    5.8065880   -0.9372120  
C    -3.3668420    5.5954300    0.5747670  
H    -1.1362890    5.7776590    2.6744880  
H    -2.4915340    2.3267780   -1.4309790  
H    -5.3262370    4.2618010   -2.3329330  
H    -5.4150410    6.6216090   -0.4313170  
H    -3.6188310    6.5122250    1.1042940  
H     0.4976680    3.6362620    2.3961380  
C     4.6057760    1.5232790    2.8234620  
C     5.8364460    1.6565180    2.2828150  
C     5.7436460    1.0271500    0.9678970  
C     4.3186680    0.5716370    0.8770070  
N     3.6687000    0.8577670    1.9642080  
C     3.7986570   -0.1357030   -0.2991960  
C     4.7258430   -0.3809390   -1.2688710  
O     4.4403950   -1.0537650   -2.4201580  
C     6.1461560    0.0593220   -1.2060590  
O     6.8725270   -0.2072430   -2.1670730  
C     6.6249170    0.7932040   -0.0209830  
H     6.7177690    2.1066390    2.7182090  
H     5.2886780   -1.0554160   -2.9233020  
H     7.6685040    1.0924070   -0.0056100  
H     4.2623180    1.8481870    3.7980410  
C    -2.7466100   -1.4686350   -1.2439750  
C    -1.7226070   -2.0751270   -0.5735120  
C    -2.3013440   -3.2591880    0.0650930  
C    -3.7388710   -3.2758880   -0.3020740  
N    -3.9409930   -2.1622180   -1.0920470  
C    -4.6285190   -4.2214290    0.0962770  
C    -4.1540140   -5.2992450    0.9560560  
O    -4.8761870   -6.1952850    1.3675910  
C    -2.6372700   -5.2933620    1.3727230  
O    -2.2214000   -6.1806800    2.1007960  
C    -1.7754140   -4.2168300    0.8694580  
H    -5.6763800   -4.2121350   -0.1879750  
H    -0.7278710   -4.2368540    1.1464560  
H    -2.7173730   -0.5785410   -1.8590270  
H    -4.8160540   -1.9116320   -1.5249720  
