58


C    -3.2076380    1.3461170    0.8841510  
C    -1.9113980    0.9782970    0.7786090  
C    -1.8583120   -0.2411930    0.0044960  
C    -3.2614780   -0.5685670   -0.3436930  
N    -4.0614020    0.4268600    0.2474440  
C    -3.6278250   -1.5812990   -1.1630390  
C    -2.5841600   -2.4575560   -1.6867380  
O    -2.8182490   -3.3793100   -2.4511930  
C    -1.1036250   -2.2025230   -1.2441150  
O    -0.2546190   -3.0132660   -1.5649270  
C    -0.8022810   -0.9942880   -0.4310290  
H    -1.0702490    1.4763370    1.2332860  
H    -4.6503870   -1.7894780   -1.4508430  
H    -3.6470960    2.1856760    1.4039150  
C     1.2757560   -0.4129990    3.4082810  
C     2.5693640   -0.3049620    3.0167680  
C     2.5425750   -0.4128360    1.5637380  
C     1.0990190   -0.5754090    1.2443330  
N     0.3670080   -0.5833180    2.3250290  
C     0.6098870   -0.7102340   -0.1203180  
C     1.5533420   -0.6173610   -1.1000000  
O     1.2581180   -0.6354760   -2.4077040  
C     3.0135120   -0.4442470   -0.8130550  
O     3.7618930   -0.3648850   -1.7868260  
C     3.5114320   -0.3916720    0.5984730  
H     3.4376580   -0.1420180    3.6382690  
H     2.1189920   -0.5980720   -2.8779340  
H     0.8782870   -0.3757900    4.4154040  
C     5.5392490   -1.0320350    1.9289480  
C     4.9361060   -0.3914500    0.8732380  
C     6.0638910    0.2632690    0.1716260  
C     7.2571780   -0.1018670    0.9943180  
N     6.9315270   -0.8669560    2.0063320  
C     8.5798960    0.3554210    0.6753850  
C     8.7265910    1.1579740   -0.4068810  
O     9.8950220    1.6616110   -0.8214590  
C     7.5445920    1.5600820   -1.2497430  
O     7.7535000    2.2992250   -2.2077520  
C     6.1947600    1.0637420   -0.9030570  
H     9.4175940    0.0607830    1.2973430  
H     9.6856910    2.2005180   -1.6164280  
H     5.3811640    1.3573800   -1.5540230  
H     5.0496570   -1.6679980    2.6566670  
C    -6.6777550    3.8787000   -0.6230120  
C    -5.5561360    3.1300670   -0.4730290  
C    -6.0362300    1.8017230   -0.1083540  
C    -7.5161350    1.9470060   -0.0783130  
N    -7.8854250    3.1614630   -0.3816720  
C    -8.3911750    0.8432810    0.2280980  
C    -7.8281100   -0.3559090    0.4964700  
O    -8.5248640   -1.4681680    0.7875890  
C    -6.3392360   -0.5489550    0.5054660  
O    -5.9066540   -1.6446570    0.8446530  
C    -5.4450190    0.6033100    0.1475870  
H    -4.5305000    3.4335290   -0.6268940  
H    -9.4652810    0.9904500    0.2331740  
H    -7.8595570   -2.1619490    0.9829290  
H    -6.7449290    4.9219370   -0.9074950  
