60


C    -1.8333640   -0.6387100    0.3728240  
C    -1.0767590    0.4059750   -0.0871290  
C    -1.9109470    1.2316760   -0.9224130  
C    -3.1858880    0.6192260   -0.9358500  
N    -3.1142960   -0.5396220   -0.1493250  
C    -4.2733500    1.1835770   -1.6106750  
C    -4.0578450    2.3676180   -2.2998500  
O    -5.0879040    2.9513990   -2.9716510  
C    -2.7768600    2.9803730   -2.3120200  
O    -2.7237470    4.1441270   -3.0460850  
C    -1.7058360    2.4281370   -1.6331680  
H    -5.2573020    0.7346130   -1.6236660  
H    -4.7494410    3.7710050   -3.3721860  
H    -1.8511970    4.5550300   -2.9535540  
H    -0.7349610    2.9170090   -1.6396750  
H    -1.5752270   -1.4373670    1.0492140  
C     1.3120480   -0.2623530   -0.1583340  
C     2.5437840    0.1797190    0.2573120  
C     2.3127780    1.4467730    0.9452630  
C     0.8506690    1.6829600    0.8851680  
N     0.2960810    0.5996910    0.1973240  
C     0.2168370    2.7502030    1.4279080  
C     1.0248360    3.7625300    2.1096190  
O     0.5461960    4.7698720    2.6048620  
C     2.5746650    3.5285760    2.2026090  
O     3.2669080    4.3527680    2.7774030  
C     3.1336680    2.3179600    1.5902870  
H    -0.8582610    2.8846000    1.3841450  
H     4.2000030    2.1544840    1.7056180  
H     1.0718790   -1.1476260   -0.7319450  
C     3.7957550   -0.5010210    0.0190860  
C     4.0418960   -1.8369260   -0.1753560  
C     5.4477150   -2.0052930   -0.4250430  
C     6.0385980   -0.6455390   -0.3665980  
N     5.0012630    0.2161770   -0.0412920  
C     7.3437250   -0.3659030   -0.5991330  
C     8.2477480   -1.4758710   -0.9005130  
O     9.4382300   -1.3176940   -1.1220950  
C     7.6519300   -2.9312320   -0.9288660  
O     8.3996400   -3.8681640   -1.1707780  
C     6.2232770   -3.0978340   -0.6761780  
H     3.3129830   -2.6307150   -0.0933830  
H     7.7579920    0.6370960   -0.5609560  
H     5.8193540   -4.1049680   -0.7155450  
H     5.0383770    1.2097320   -0.2165890  
C    -4.3726510   -2.1726260    3.6620600  
C    -5.4347160   -2.9258110    3.3004020  
C    -5.5356040   -2.7779480    1.8507680  
C    -4.4075860   -1.8584780    1.5042540  
N    -3.7325600   -1.5132880    2.5581530  
C    -4.1564220   -1.4460960    0.1292670  
C    -4.9647020   -1.9741320   -0.8339800  
O    -4.8269070   -1.7298760   -2.1460510  
C    -6.1057290   -2.8876540   -0.4987670  
O    -6.7817200   -3.3102400   -1.4351380  
C    -6.3581220   -3.2680590    0.9053460  
H    -6.0851650   -3.5149900    3.9315210  
H    -5.5508420   -2.2355190   -2.5804590  
H    -7.1919470   -3.9364770    1.0960810  
H    -3.9665260   -2.0170570    4.6538140  
