60


C    -2.4425300    3.8288700   -0.3058450  
C    -3.5660270    3.0699940   -0.5026170  
C    -3.1490200    1.6965240   -0.5009260  
C    -1.7408440    1.6964690   -0.3126230  
N    -1.3316220    3.0109090   -0.2335270  
C    -0.9599950    0.5187890   -0.2597490  
C    -1.6899850   -0.6810070   -0.2899050  
O    -1.0495210   -1.8720470   -0.1503330  
C    -3.0928720   -0.6943440   -0.4598660  
O    -3.6277350   -1.9766550   -0.5027390  
C    -3.8560400    0.4663950   -0.5874010  
H    -4.5728980    3.4422890   -0.6225860  
H    -0.4739880    3.2449750    0.2579460  
H    -1.7167290   -2.5658670   -0.3016760  
H    -4.4347530   -1.9659610   -1.0407590  
H    -2.3367460    4.9012760   -0.2184750  
C     2.0288400    2.7085300    2.1707150  
C     3.1844350    2.0934390    1.8182680  
C     2.8151170    1.1546020    0.7749030  
C     1.3246570    1.3028470    0.6549030  
N     0.8900230    2.2370570    1.4612170  
C     0.5193550    0.4900760   -0.2381320  
C     1.2415670   -0.3101250   -1.0861780  
O     0.6953590   -1.0262410   -2.0713660  
C     2.7399900   -0.4468110   -1.0345590  
O     3.2610040   -1.1400450   -1.9022360  
C     3.5279380    0.2997570   -0.0098280  
H     4.1723280    2.2521570    2.2235830  
H     1.4508900   -1.4763650   -2.5141610  
H     1.8877580    3.4838210    2.9146070  
C     4.9711540    0.1201200    0.0543420  
C     5.9243420    1.0769250    0.2689670  
C     7.1926430    0.3754140    0.2428530  
C     6.8139870   -1.0542860    0.0074520  
N     5.5278480   -1.2001460   -0.1081040  
C     7.8097000   -2.0936900   -0.0664020  
C     9.1078620   -1.7334920    0.0664750  
O    10.1375960   -2.5904130    0.0123690  
C     9.5195480   -0.2986770    0.2915390  
O    10.7214240   -0.0632190    0.4021830  
C     8.4847310    0.7463970    0.3748760  
H     5.7791020    2.1425860    0.3741570  
H     7.5093280   -3.1221050   -0.2323830  
H    10.9430170   -2.0415530    0.1395530  
H     8.8200190    1.7648610    0.5458320  
C    -6.0554610    1.1985280   -1.6374320  
C    -5.3067680    0.4276930   -0.7948470  
C    -6.3189600   -0.3759440   -0.0652240  
C    -7.6229960    0.0628430   -0.6430310  
N    -7.4557710    0.9743670   -1.5614280  
C    -8.8742400   -0.4862120   -0.1914270  
C    -8.8434820   -1.4000650    0.8083910  
O    -9.9338130   -1.9865170    1.3315740  
C    -7.5500100   -1.8407470    1.4302120  
O    -7.6004910   -2.6742440    2.3336520  
C    -6.2740190   -1.2755260    0.9374080  
H    -9.8035370   -0.1535180   -0.6405860  
H    -9.5951700   -2.5888380    2.0297710  
H    -5.3614690   -1.6311710    1.4038700  
H    -5.6867900    1.9334350   -2.3424870  
