64


C    -0.2342890    1.1702010    0.3275690  
C    -1.2806250    0.3109320    0.0883630  
C    -2.4700770    0.9578990    0.5540470  
C    -2.0831240    2.2330570    1.0438740  
N    -0.7129060    2.3402540    0.8912850  
C    -2.9927300    3.1661300    1.5420520  
C    -4.3345200    2.8126490    1.5408310  
O    -5.2598500    3.6835170    2.0344650  
C    -4.7591030    1.5619610    1.0301020  
O    -6.1200670    1.3804600    1.1334830  
C    -3.8508120    0.6082420    0.5426780  
H    -1.1963220   -0.6576270   -0.3801540  
H    -0.1281090    3.0644070    1.2801920  
H    -2.6944780    4.1385670    1.9199470  
H    -6.1311980    3.2620590    1.9328580  
H    -6.3993030    0.6020910    0.6247240  
C     1.8195580   -0.1929800    0.3938080  
C     3.1568440   -0.0482270    0.1055830  
C     3.3207920    1.3050650   -0.3835410  
C     2.0473530    1.9209420   -0.3727430  
N     1.1322590    0.9882080    0.1226750  
C     1.8332210    3.2235590   -0.8436030  
C     2.9366650    3.9235070   -1.3081480  
O     2.7857770    5.1981380   -1.7707450  
C     4.2236040    3.3256720   -1.3098570  
O     5.2209480    4.1489220   -1.7969460  
C     4.4241660    2.0329770   -0.8652980  
H     0.8539310    3.6868070   -0.8807590  
H     3.6643380    5.5065160   -2.0527550  
H     6.0688570    3.6820370   -1.7595090  
H     5.4165550    1.5924650   -0.8664400  
H     1.2933110   -1.0192810    0.8498050  
C     3.0811120   -4.2350190   -1.2321900  
C     4.3029480   -4.6205890   -0.7447400  
C     4.8842540   -3.4728060   -0.1070650  
C     3.9526350   -2.4105260   -0.2358060  
N     2.8592580   -2.9081520   -0.9153220  
C     4.1759270   -1.1028660    0.2508430  
C     5.4046810   -0.8994320    0.8827560  
O     5.7153970    0.3289380    1.4035620  
C     6.3490060   -1.9494710    1.0184840  
O     7.5105670   -1.5671690    1.6719130  
C     6.1086520   -3.2240730    0.5434970  
H     4.7387570   -5.6068170   -0.8283750  
H     2.0855350   -2.3421200   -1.2281530  
H     6.5715220    0.2299480    1.8559600  
H     8.0412810   -2.3535960    1.8658710  
H     6.8539520   -4.0082160    0.6612760  
H     2.3368860   -4.8002730   -1.7755170  
C    -6.9470860   -0.7341920   -2.4057950  
C    -6.1204190    0.0584060   -1.6765730  
C    -5.3197320   -0.8647210   -0.8738010  
C    -5.8212970   -2.2091510   -1.2741210  
N    -6.7724720   -2.1273140   -2.1649320  
C    -5.2754230   -3.4208350   -0.7196430  
C    -4.2773580   -3.3001970    0.1837260  
O    -3.6673020   -4.3412870    0.7756650  
C    -3.7545190   -1.9571960    0.6263810  
O    -2.8818080   -1.9642950    1.4889360  
C    -4.3252280   -0.6932030    0.0448710  
H    -6.0279890    1.1348980   -1.7105950  
H    -5.6615610   -4.3848070   -1.0317150  
H    -3.0220950   -3.9441840    1.4010350  
H    -7.6866060   -0.4259380   -3.1355480  
