58


C     2.0313020    2.0917880   -0.2675470  
C     2.2306210    0.7025130    0.0831060  
C     3.5717190    0.4158250    0.0407500  
C     4.2550720    1.6719900   -0.3171560  
N     3.2763050    2.6174120   -0.5127570  
C     5.6005400    1.8341320   -0.4103270  
C     6.4660310    0.7234590   -0.0419520  
O     7.6779610    0.7386990   -0.1675120  
C     5.8023530   -0.5177670    0.6393120  
O     6.5192640   -1.2220740    1.3207000  
C     4.3363060   -0.7754340    0.3867760  
H     1.4395410    0.0475070    0.4059670  
H     6.0621970    2.7732610   -0.6995500  
H     3.3805180    3.6144000   -0.6961410  
C    -2.3987560    1.0408400   -0.2586930  
C    -0.9771740    1.0317510   -0.5061010  
C    -0.4658270    2.2775690   -0.2248830  
C    -1.6036330    3.1315260    0.1448110  
N    -2.7162590    2.3111680    0.1947200  
C    -1.5408430    4.4743080    0.3335120  
C    -0.2772810    5.1676510    0.1198780  
O    -0.1502180    6.3758150    0.2355760  
C     0.9676570    4.3206600   -0.2770800  
O     2.0130710    4.9243190   -0.5165720  
C     0.8587440    2.8508900   -0.2802570  
H    -0.4530650    0.1542680   -0.8561790  
H    -2.4072570    5.0751530    0.5927260  
H    -3.6611050    2.6667310    0.2164220  
C    -3.0751720   -1.2111710   -1.1512410  
C    -3.3116160    0.0159380   -0.4267490  
C    -4.7090280   -0.0721910   -0.0133810  
C    -5.1452420   -1.3730500   -0.5363120  
N    -4.1423580   -2.0106250   -1.2030600  
C    -6.4478810   -1.8624440   -0.3466570  
C    -7.3181050   -1.0693580    0.3663110  
O    -8.5788030   -1.4066980    0.6206450  
C    -6.9162430    0.2545720    0.9357360  
O    -7.7832270    0.8773180    1.5741930  
C    -5.5578210    0.7141630    0.7159490  
H    -6.7444160   -2.8271260   -0.7427440  
H    -8.9331490   -0.6508490    1.1520990  
H    -5.2861610    1.6568160    1.1803800  
H    -2.1559380   -1.4928470   -1.6504910  
C     4.5318140   -3.2064000    1.1316520  
C     3.8366220   -2.0583930    0.4754900  
C     2.5561970   -2.6484620    0.0625990  
C     2.5839090   -3.9897500    0.5740730  
N     3.7978750   -4.2740460    1.2213360  
C     1.5449550   -4.8914620    0.3909990  
C     0.4438170   -4.4510780   -0.3434960  
O    -0.6276570   -5.2113920   -0.5601540  
C     0.3881310   -3.1166860   -0.9422890  
O    -0.6541530   -2.8237120   -1.6044940  
C     1.4982660   -2.2385300   -0.7292890  
H     1.5900670   -5.8965590    0.7955410  
H    -1.2197160   -4.6353560   -1.1076390  
H     1.4683770   -1.2797820   -1.2300820  
H     5.5246600   -3.1555570    1.5536850  
