64


C     2.5578610   -1.2142120   -1.2442300  
C     1.2629360   -0.8396040   -1.0081630  
C     1.2911170    0.1648680    0.0169460  
C     2.6551050    0.3682130    0.3549530  
N     3.4201320   -0.4944880   -0.4242550  
C     3.0710680    1.3204940    1.2980350  
C     2.0812510    2.0646720    1.9233750  
O     2.4239230    2.9948800    2.8612940  
C     0.7134500    1.8690390    1.6088290  
O    -0.1401210    2.6710100    2.3429170  
C     0.2894050    0.9384620    0.6588710  
H     0.3895320   -1.2273290   -1.5124150  
H     4.1147000    1.5106790    1.5242990  
H     1.5952510    3.3750600    3.2011580  
H    -1.0594600    2.4222740    2.1517990  
H     2.9636900   -1.9513430   -1.9217350  
C     6.5610160   -0.1023080   -3.5411400  
C     5.3608550   -0.0976360   -2.8792260  
C     5.6306440   -0.4821420   -1.5224670  
C     7.0286680   -0.7066110   -1.4187430  
N     7.5678450   -0.4697790   -2.6669230  
C     7.6560720   -1.0737220   -0.2217950  
C     6.8523090   -1.2270790    0.8965190  
O     7.4056440   -1.5845190    2.0909040  
C     5.4473540   -1.0347720    0.8217490  
O     4.7823170   -1.2766770    2.0036640  
C     4.8323560   -0.6628700   -0.3704590  
H     4.3995920    0.1548360   -3.3030470  
H     8.5457490   -0.5402160   -2.8997330  
H     8.7265970   -1.2305870   -0.1397030  
H     6.6811830   -1.6124590    2.7407290  
H     3.8929430   -0.8850400    1.9712860  
H     6.7880770    0.1291770   -4.5722060  
C    -1.8172440   -0.4345430    0.3369270  
C    -1.1441610    0.7580030    0.3640240  
C    -2.1196760    1.7811510    0.0225260  
C    -3.3571850    1.1367440   -0.2111270  
N    -3.1535400   -0.2419200   -0.0228420  
C    -4.5216100    1.8503710   -0.5090190  
C    -4.4238090    3.2299420   -0.6194940  
O    -5.5340360    3.9609090   -0.9169430  
C    -3.1810830    3.8861870   -0.4310670  
O    -3.2395930    5.2537500   -0.5875370  
C    -2.0343590    3.1806850   -0.1120450  
H    -5.4792950    1.3783790   -0.6829700  
H    -5.2633980    4.8937360   -0.9714790  
H    -2.3535150    5.6330710   -0.4881240  
H    -1.0899540    3.6977650    0.0356330  
H    -1.4511430   -1.4344460    0.5133850  
C    -4.0483570   -3.6745690    2.6147290  
C    -3.4864840   -2.5302370    2.1517860  
C    -4.1602630   -2.2640580    0.8846700  
C    -5.1194200   -3.3897020    0.7428600  
N    -5.0531980   -4.2094880    1.7565560  
C    -6.0142740   -3.5016830   -0.3822390  
C    -5.9623170   -2.5391390   -1.3292070  
O    -6.7430660   -2.5137410   -2.4251730  
C    -4.9962970   -1.3940160   -1.2436320  
O    -4.9575160   -0.6110190   -2.1872950  
C    -4.0961640   -1.2743590   -0.0476040  
H    -2.7255050   -1.9245800    2.6218630  
H    -6.7020830   -4.3374330   -0.4450750  
H    -6.4481290   -1.7356970   -2.9448640  
H    -3.8264790   -4.1962680    3.5379500  
