58


C     1.3680880    2.2733330    0.0216300  
C     0.2536850    1.4653490   -0.0720190  
C     0.7650550    0.0956220   -0.1858660  
C     2.2368730    0.2024800   -0.1405450  
N     2.5210640    1.5375490   -0.0186110  
C     3.1391070   -0.8478670   -0.2140850  
C     2.5377420   -2.1958220   -0.3472610  
O     3.1891600   -3.2230760   -0.4179090  
C     0.9716350   -2.3226180   -0.3996630  
O     0.4845650   -3.4369500   -0.4846290  
C     0.1527030   -1.1091700   -0.3322890  
H    -0.9239230   -1.2072730   -0.3955060  
H     1.4165110    3.3485030    0.1301530  
H     3.4997190    1.8356350    0.0360120  
C    -1.1140760    1.9101630   -0.0543850  
C    -1.6047730    3.1915550   -0.1155000  
C    -3.0300060    3.0771000   -0.0407000  
C    -3.2870910    1.5937840    0.0436840  
N    -2.1595180    0.9310380    0.0514840  
C    -4.6216870    1.0349940    0.1139850  
C    -5.6273400    1.9638780    0.2069900  
O    -6.9032480    1.6489000    0.3942770  
C    -5.3990330    3.4632530    0.1289240  
O    -6.4024140    4.1737890    0.2086810  
C    -4.0457260    3.9760960   -0.0165350  
H    -1.0466810    4.1121760   -0.2153520  
H    -7.3895420    2.5073400    0.3834490  
H    -3.9120620    5.0513150   -0.0735560  
C    -2.8529670   -2.5492960    2.0694770  
C    -3.7048740   -3.4971280    1.6037300  
C    -4.6493470   -2.8331960    0.7320460  
C    -4.2779300   -1.3945150    0.7499460  
N    -3.2085820   -1.2776950    1.6201580  
C    -4.9220190   -0.4089160    0.0511640  
C    -5.9742020   -0.8691160   -0.8887580  
O    -6.4701210   -0.1431910   -1.7325960  
C    -6.4495410   -2.3659190   -0.8306050  
O    -7.4209870   -2.6924530   -1.4952890  
C    -5.7003190   -3.2969170    0.0042360  
H    -3.6818900   -4.5530260    1.8305930  
H    -6.0097290   -4.3374980    0.0134470  
H    -1.9985660   -2.6627790    2.7240730  
H    -2.5470180   -0.5156200    1.4882800  
C     4.5639440   -0.6630310   -0.1673180  
C     5.5769450   -1.5915560   -0.2337430  
C     6.8018180   -0.8513240   -0.1380210  
C     6.3745890    0.5825860   -0.0109950  
N     5.0778260    0.6873130   -0.0281800  
C     7.3264120    1.6516660    0.1104500  
C     8.6390110    1.3156480    0.1058120  
O     9.6394770    2.1914960    0.2098150  
C     9.1076830   -0.1257390   -0.0211840  
O    10.3260800   -0.3059610   -0.0124760  
C     8.1181630   -1.1900260   -0.1427760  
H     5.4635140   -2.6581540   -0.3374580  
H     6.9956360    2.6803400    0.2008870  
H    10.4615110    1.6476790    0.1749330  
H     8.4817670   -2.2086110   -0.2318560  
