62


C     0.1286870    1.6549000   -0.0703870  
C    -1.0807870    1.0056420    0.0770160  
C    -0.8371210   -0.4007450    0.0136660  
C     0.5626200   -0.5664130   -0.1641050  
N     1.1125170    0.6879210   -0.2416890  
C     1.2142930   -1.8146640   -0.2014930  
C     0.3832250   -2.9252770   -0.0101550  
O     0.9088330   -4.1753920    0.0517490  
C    -1.0174030   -2.7915980    0.1724350  
O    -1.6705550   -4.0011760    0.3119230  
C    -1.6644750   -1.5509280    0.1583950  
H    -2.0264580    1.4923760    0.2555700  
H     2.0883190    0.8790300   -0.4034290  
H     0.1447330   -4.7652270    0.2056570  
H    -2.2546650   -3.9422950    1.0975540  
C    -1.9598190    5.3600110   -1.4730350  
C    -1.6100160    4.0579890   -1.2263220  
C    -0.3806660    4.0837310   -0.4837230  
C    -0.0264040    5.4476580   -0.3166470  
N    -1.0098790    6.2024360   -0.9232540  
C     1.1391350    5.8567720    0.3415110  
C     1.9624490    4.8611140    0.8435180  
O     3.1056090    5.1975530    1.5110250  
C     1.6348990    3.4895220    0.6917700  
O     2.5771120    2.6426000    1.2574680  
C     0.4731100    3.0724600    0.0330180  
H    -2.1495640    3.1796080   -1.5495450  
H    -1.0220730    7.2086620   -0.9730150  
H     1.4110540    6.8989970    0.4738560  
H     3.4986760    4.3602990    1.8155680  
H     2.2146270    1.7551440    1.4385440  
H    -2.8114900    5.7657770   -2.0008070  
C     4.6738090    0.0275740    1.8943660  
C     5.7129390   -0.6502500    1.3599490  
C     5.1191220   -1.5369070    0.3677860  
C     3.6424930   -1.2638060    0.4556180  
N     3.4017860   -0.3373900    1.3446940  
C     2.6745260   -1.9736190   -0.3728750  
C     3.2073360   -2.8309920   -1.2969820  
O     2.4745370   -3.5056780   -2.1882770  
C     4.6816690   -3.1037680   -1.4148790  
O     5.0473200   -3.8995690   -2.2791650  
C     5.6241260   -2.4151220   -0.5178250  
H     6.7644710   -0.5611820    1.5941240  
H     3.1173010   -4.0454230   -2.7005390  
H     6.6800860   -2.6404030   -0.6311730  
H     4.6966450    0.7940340    2.6593590  
C    -4.7117630    0.5857770   -2.2371310  
C    -5.8539260    0.2870580   -1.5803610  
C    -5.4405750   -0.5670240   -0.4701100  
C    -3.9509940   -0.6590330   -0.6100880  
N    -3.5395330    0.0077610   -1.6455990  
C    -3.1289190   -1.4522670    0.3124440  
C    -3.8351670   -2.1254170    1.2659800  
O    -3.2498680   -2.9354020    2.1949510  
C    -5.3112020   -2.0515540    1.4288940  
O    -5.8207030   -2.6925190    2.3529350  
C    -6.1009190   -1.2221750    0.5015580  
H    -6.8654160    0.5855090   -1.8186310  
H    -3.9997270   -3.2567240    2.7491200  
H    -7.1768470   -1.1971920    0.6454800  
H    -4.5878690    1.1886690   -3.1284880  
