60


C    -1.6831790    0.3807880    1.0715850  
C    -2.9595840    0.3366470    0.5640200  
C    -2.8559890    0.6393270   -0.8535730  
C    -1.4918360    0.8571650   -1.1493040  
N    -0.7938330    0.6942490    0.0475230  
C    -1.0195300    1.1889590   -2.4210910  
C    -1.9626380    1.3111330   -3.4311940  
O    -1.5650520    1.6283120   -4.6917390  
C    -3.3439270    1.1153920   -3.1581990  
O    -4.1533950    1.2861190   -4.2598890  
C    -3.7963750    0.7889820   -1.8925950  
H     0.0293020    1.3601980   -2.6362580  
H    -2.3633400    1.6917330   -5.2447240  
H    -5.0832650    1.1866520   -4.0067230  
H    -4.8597040    0.6624010   -1.7061240  
H    -1.3164340    0.1909110    2.0695880  
C     1.4555250   -0.2444690    0.0063860  
C     2.7465690    0.1646770    0.2214510  
C     2.6760740    1.5909290    0.5783270  
C     1.2459420    1.9643930    0.5469630  
N     0.5614070    0.7971440    0.1934940  
C     0.7389500    3.1892540    0.8144290  
C     1.6817110    4.2513740    1.1693400  
O     1.3316300    5.3901980    1.4314380  
C     3.2099160    3.8892290    1.2114350  
O     4.0139790    4.7576670    1.5047460  
C     3.6205010    2.5111030    0.8958400  
H    -0.3207120    3.4173850    0.7762350  
H     4.6735160    2.2599280    0.9250880  
H     1.0720560   -1.2161150   -0.2736540  
C     3.9215310   -0.6635800    0.1127240  
C     4.0171890   -1.9910020   -0.2285920  
C     5.4169450   -2.3084370   -0.1806960  
C     6.0753910   -1.0171180    0.2219390  
N     5.2015910   -0.0683220    0.3900870  
C     7.5008640   -0.9122370    0.3837510  
C     8.2365000   -2.0263480    0.1587620  
O     9.5673610   -2.0868440    0.2679780  
C     7.6026530   -3.3451610   -0.2489370  
O     8.3691260   -4.2928720   -0.4268460  
C     6.1528170   -3.4264270   -0.4067670  
H     3.2180010   -2.6724720   -0.4859110  
H     7.9506900    0.0303650    0.6747580  
H     9.8012320   -3.0173170    0.0442180  
H     5.7346810   -4.3844940   -0.6991330  
C    -4.4928340    0.5193890    2.5802440  
C    -4.1589030    0.0573810    1.3436680  
C    -5.2620380   -0.8643850    0.9978360  
C    -6.1766060   -0.8025510    2.1767680  
N    -5.7167570    0.0004180    3.0941540  
C    -7.3909600   -1.5747400    2.2301520  
C    -7.6733920   -2.3882190    1.1843100  
O    -8.7680830   -3.1634110    1.1043060  
C    -6.7577850   -2.4926720   -0.0023340  
O    -7.0811080   -3.2501090   -0.9157430  
C    -5.5174590   -1.6863080   -0.0370630  
H    -8.0411850   -1.5009720    3.0948530  
H    -8.6948530   -3.6338970    0.2454830  
H    -4.8778370   -1.7987390   -0.9070260  
H    -3.9409220    1.2327230    3.1810410  
