60


C     2.6392970   -1.9618550   -0.8920910  
C     3.6215220   -0.9916650   -0.8762630  
C     2.9851160    0.2139550   -0.3848050  
C     1.6297560   -0.1033840   -0.1216680  
N     1.4488610   -1.4312830   -0.4519590  
C     0.6842500    0.8504060    0.3204770  
C     1.1624380    2.1491550    0.5227170  
O     0.3349280    3.0984630    1.0295960  
C     2.5145380    2.4810070    0.2545920  
O     2.8130160    3.8052280    0.4985550  
C     3.4188990    1.5419730   -0.2037880  
H     0.6009490   -1.9546040   -0.2938540  
H     0.8244050    3.9398990    1.0376740  
H     3.7366280    3.9835960    0.2671910  
H     4.4440060    1.8302230   -0.4222290  
H     2.7160110   -3.0064440   -1.1579830  
C    -1.5279320   -2.2024290    2.7175280  
C    -0.5280510   -1.4613730    2.1850470  
C    -1.1912570   -0.4969690    1.3128800  
C    -2.6426570   -0.8123670    1.4538770  
N    -2.8239260   -1.8117000    2.2705200  
C    -3.6922040   -0.0660420    0.7484450  
C    -3.2276120    0.9601470   -0.0309550  
O    -4.0283560    1.7905230   -0.7321650  
C    -1.7810890    1.2759600   -0.2183900  
O    -1.5033770    2.1559010   -1.0319560  
C    -0.7328940    0.5150330    0.5339050  
H     0.5333260   -1.5321490    2.3758190  
H    -3.4080100    2.3877470   -1.2102790  
H    -1.4527050   -3.0186570    3.4259470  
C    -5.6393520   -1.0541870    2.0163620  
C    -5.0942070   -0.4194860    0.9283410  
C    -6.2464800   -0.2433330    0.0111460  
C    -7.3987620   -0.8243750    0.7654130  
N    -7.0305960   -1.2822900    1.9314510  
C    -8.7305710   -0.8665880    0.2248750  
C    -8.9211860   -0.3898960   -1.0280790  
O   -10.1022280   -0.3750670   -1.6651780  
C    -7.7793160    0.1659300   -1.8310870  
O    -8.0242500    0.5688840   -2.9673040  
C    -6.4237240    0.2130440   -1.2443350  
H    -9.5372050   -1.2859410    0.8158440  
H    -9.9163880    0.0202740   -2.5456420  
H    -5.6412150    0.6442260   -1.8542700  
H    -5.1080770   -1.3880020    2.8949230  
C     5.4644460   -1.8902760   -2.3736710  
C     4.9979850   -1.1853820   -1.3053930  
C     6.2283440   -0.7278000   -0.6190100  
C     7.3399230   -1.2608620   -1.4582470  
N     6.8849120   -1.9418820   -2.4722270  
C     8.7196850   -1.0272990   -1.1185040  
C     8.9876450   -0.3298580    0.0118550  
O    10.2276810   -0.0420570    0.4470360  
C     7.8909410    0.1900570    0.8933350  
O     8.2086810    0.8192360    1.9023090  
C     6.4801400   -0.0582930    0.5211370  
H     9.5067600   -1.4166340   -1.7549400  
H    10.1006430    0.4616530    1.2802750  
H     5.7169160    0.3223940    1.1928330  
H     4.8746540   -2.3840740   -3.1368240  
