62


C    -1.6954170    0.0295910    0.8010930  
C    -1.6055320    1.3008950    0.2895910  
C    -2.7628300    1.4740780   -0.5700030  
C    -3.5038900    0.2683470   -0.5333880  
N    -2.8239050   -0.6157040    0.3116120  
C    -4.7034540    0.1054450   -1.2321810  
C    -5.1479610    1.1679260   -2.0046830  
O    -6.3115040    1.0527820   -2.7066960  
C    -4.4023540    2.3723490   -2.0782290  
O    -4.9645270    3.3305830   -2.8965320  
C    -3.2218550    2.5363740   -1.3759510  
H    -5.2735190   -0.8142670   -1.2154420  
H    -6.4360780    1.8827510   -3.1984990  
H    -4.3779900    4.0999580   -2.9475990  
H    -2.6615010    3.4651130   -1.4483920  
H    -1.0475310   -0.4744340    1.5016160  
C     2.8995650    1.0318840    0.1858110  
C     1.5302600    0.7690370    0.0925560  
C     0.8435110    1.9404150    0.4852700  
C     1.8381480    2.9214040    0.8082240  
N     3.0598020    2.3403430    0.6228350  
C     1.5125970    4.2203420    1.2161140  
C     0.1661410    4.5303280    1.3019000  
O    -0.2197240    5.7679330    1.7069890  
C    -0.8410880    3.5678630    0.9871680  
O    -2.1207440    4.0502960    1.1598020  
C    -0.5407980    2.2761910    0.5798380  
H     1.0908710   -0.1616070   -0.2364130  
H     3.9766400    2.7440170    0.7570790  
H     2.2584720    4.9673530    1.4643690  
H    -1.1931590    5.7693060    1.7396120  
H    -2.7566760    3.3265030    1.0265380  
C     4.0484770    0.2364280   -0.0778340  
C     4.1644690   -1.0660220   -0.5177290  
C     5.5652010   -1.3240370   -0.6002640  
C     6.2105670   -0.0350350   -0.1615780  
N     5.3231900    0.8690330    0.1410020  
C     7.6398370    0.1106900   -0.1069210  
C     8.3863380   -0.9603370   -0.4670600  
O     9.7226100   -0.9843570   -0.4703520  
C     7.7667870   -2.2759870   -0.9148240  
O     8.5654350   -3.1723320   -1.2151770  
C     6.3255370   -2.3996530   -0.9618880  
H     3.3646250   -1.7531240   -0.7555500  
H     8.0848610    1.0467690    0.2116330  
H     9.9477270   -1.8956720   -0.7783590  
H     5.9111370   -3.3492000   -1.2853790  
C    -3.7634400   -4.1174150   -2.1077390  
C    -4.0483850   -5.0329550   -1.1552380  
C    -3.8788770   -4.3307490    0.1143850  
C    -3.4911600   -2.9425030   -0.2919120  
N    -3.4187450   -2.8261750   -1.5826120  
C    -3.2252390   -1.9094220    0.7003390  
C    -3.3020410   -2.2758440    2.0118380  
O    -3.0544370   -1.4417410    3.0354970  
C    -3.6786350   -3.6636040    2.4320100  
O    -3.7472080   -3.8887030    3.6399760  
C    -3.9674130   -4.6873290    1.4089970  
H    -4.3275500   -6.0695660   -1.2822820  
H    -3.2045340   -1.9797410    3.8453120  
H    -4.2327470   -5.6795150    1.7607730  
H    -3.7670610   -4.2449900   -3.1832210  
