60


C     0.5823930    0.6809800   -0.2945850  
C     0.7033670    2.0696870   -0.3403710  
C     2.0911820    2.3791690   -0.2888650  
C     2.7928100    1.1423620   -0.2095680  
N     1.8557860    0.1428830   -0.1956680  
C     4.2029430    1.0632000   -0.1087870  
C     4.8843810    2.2854130   -0.1305840  
O     6.2429140    2.3122320   -0.0788630  
C     4.1906230    3.5246000   -0.2286120  
O     5.0308980    4.6203900   -0.2380490  
C     2.8165800    3.5886990   -0.2987620  
H    -0.0948130    2.7807110   -0.5013340  
H     2.0088090   -0.8472820   -0.3476460  
H     6.5168440    3.2427310   -0.1656620  
H     4.5228200    5.4215410   -0.4335790  
H     2.3083730    4.5485130   -0.3614710  
C    -3.6155600    1.5246000    0.5730040  
C    -4.1951200    0.3306740    0.2231120  
C    -3.0969220   -0.5500560   -0.1910320  
C    -1.8653190    0.2505800   -0.0721710  
N    -2.2538260    1.5016200    0.3780650  
C    -0.5874580   -0.1736380   -0.3532670  
C    -0.4695720   -1.6048580   -0.7099090  
O     0.6018590   -2.1874030   -0.8136610  
C    -1.7781110   -2.4373390   -0.9669930  
O    -1.6559740   -3.5699910   -1.4060690  
C    -3.0640730   -1.8305250   -0.6529350  
H    -3.9496330   -2.4413070   -0.7711650  
H    -4.0948570    2.4060560    0.9772170  
H    -1.6013460    2.1639380    0.7748000  
C    -7.7902410    2.7420510   -0.8449240  
C    -6.5016320    2.3338920   -0.7370330  
C    -6.5684310    1.0163020   -0.1109430  
C    -8.0264340    0.7881700    0.0797940  
N    -8.7354840    1.7997360   -0.3416890  
C    -8.5393430   -0.4289280    0.6560060  
C    -7.6468390   -1.3783930    1.0150360  
O    -7.9830950   -2.5662470    1.5478980  
C    -6.1657670   -1.1800280    0.8500080  
O    -5.4351580   -2.0899490    1.2350350  
C    -5.6352850    0.0948050    0.2655020  
H    -5.6134330    2.8472400   -1.0763650  
H    -9.6081670   -0.5637670    0.7789300  
H    -7.1348290   -3.0290980    1.7202120  
H    -8.1611950    3.6675820   -1.2691250  
C     7.2197220   -0.6350520    2.7392300  
C     6.3354470    0.2069860    2.1578000  
C     5.8457780   -0.5038470    0.9805050  
C     6.5776680   -1.8086130    1.0217510  
N     7.3768770   -1.8807550    2.0467880  
C     6.3689440   -2.8306700    0.0290900  
C     5.4670340   -2.5794860   -0.9457780  
O     5.1607010   -3.4404780   -1.9299650  
C     4.7062480   -1.2818680   -1.0098180  
O     3.9022020   -1.1542780   -1.9319300  
C     4.9363220   -0.2153820    0.0129850  
H     6.0467280    1.1978250    2.4739710  
H     6.9165990   -3.7647070    0.0854830  
H     4.4689340   -2.9949780   -2.4660980  
H     7.7989060   -0.4745230    3.6408880  
