60


C     0.4091030    1.5702780   -0.0887130  
C     1.4942790    0.7781910    0.2388040  
C     2.6830660    1.5052560   -0.0844390  
C     2.2650490    2.7617670   -0.5987520  
N     0.8855790    2.7800520   -0.5774360  
C     3.1584620    3.7605100   -0.9974410  
C     4.5115450    3.4906350   -0.8628840  
O     5.4283740    4.4185130   -1.2525200  
C     4.9584560    2.2560000   -0.3261360  
O     6.3286650    2.1497070   -0.2620160  
C     4.0761690    1.2415510    0.0612720  
H     1.4322710   -0.1886400    0.7172720  
H     0.3105720    3.4806370   -1.0206070  
H     2.8368110    4.7164030   -1.3973540  
H     6.3096990    4.0339370   -1.1015320  
H     6.5620750    1.2229250   -0.0746960  
C    -1.6002560    0.0694570   -0.1470800  
C    -1.0108760    1.2909650    0.0091250  
C    -2.0901370    2.2354800    0.2854260  
C    -3.3486510    1.4544700    0.2594310  
N    -2.9879540    0.1268270   -0.0038320  
C    -4.5707330    1.9759540    0.5190020  
C    -4.6730830    3.4053440    0.8172130  
O    -5.7350600    3.9555030    1.0598760  
C    -3.3533310    4.2524110    0.8422590  
O    -3.4128640    5.4450210    1.0943660  
C    -2.0874170    3.5632530    0.5733920  
H    -5.4850140    1.3950610    0.5064900  
H    -1.1770020    4.1486360    0.6515790  
H    -1.1372930   -0.8744770   -0.3998530  
C    -2.9354620   -3.8164170    1.9072930  
C    -2.6775280   -2.5221550    1.5738860  
C    -3.6349270   -2.1443060    0.5602940  
C    -4.4818060   -3.3350230    0.3224190  
N    -3.9950920   -4.3165980    1.1661730  
C    -5.5289900   -3.3922990   -0.5414130  
C    -5.8496110   -2.2000780   -1.3111820  
O    -6.7984360   -2.1217510   -2.0748140  
C    -4.9231250   -0.9374920   -1.1518400  
O    -5.0953720    0.0184610   -1.8854820  
C    -3.8495840   -0.9794300   -0.1311300  
H    -1.9152350   -1.8930690    2.0079610  
H    -6.1430340   -4.2764100   -0.6791100  
H    -2.4436290   -4.4449960    2.6377170  
H    -4.3869350   -5.2409140    1.2571950  
C     5.5906220   -0.2622520    1.4763880  
C     4.5955350   -0.0323750    0.5670450  
C     4.1965990   -1.3954520    0.1365080  
C     5.0678500   -2.3057880    0.9302920  
N     5.8751410   -1.6371520    1.7065890  
C     4.9859940   -3.7368800    0.7954550  
C     4.1067570   -4.2402360   -0.1044470  
O     3.9279040   -5.5528020   -0.3335740  
C     3.2359790   -3.3466550   -0.9382650  
O     2.4511220   -3.8755460   -1.7249060  
C     3.3372070   -1.8786500   -0.7794940  
H     5.6262630   -4.3745930    1.3949350  
H     3.2417030   -5.6041290   -1.0342820  
H     2.6932830   -1.2636740   -1.3998950  
H     6.1341650    0.4783490    2.0525460  
