58


C     1.0292690   -0.5077070    0.6093440  
C     2.3778750   -0.4955380    0.6952830  
C     2.8385670    0.8481190    0.4253940  
C     1.6242030    1.6578100    0.1929610  
N     0.5249940    0.7651070    0.2910330  
C     1.6245840    2.9923690   -0.0448420  
C     2.9098450    3.6834190   -0.0430820  
O     3.0202480    4.8778020   -0.2651860  
C     4.2073420    2.8655900    0.2747130  
O     5.2541930    3.4733950    0.3974320  
C     4.1083300    1.3807260    0.4154590  
H     2.9939450   -1.3420200    0.9569400  
H     0.7200460    3.5566250   -0.2197080  
H     0.3442210   -1.3270810    0.7633790  
C    -0.8155540    1.0165190    0.1303710  
C    -1.8555150    0.1060200    0.2358410  
C    -3.0306200    0.8628380   -0.0186920  
C    -2.5277200    2.2616150   -0.2740980  
N    -1.2245930    2.3287470   -0.1812960  
C    -3.4030810    3.3455880   -0.5899030  
C    -4.7279780    3.0628000   -0.6553700  
O    -5.6705320    3.9601980   -0.9257800  
C    -5.2837160    1.6678530   -0.3969960  
O    -6.5115930    1.5751940   -0.4132000  
C    -4.3708790    0.5604740   -0.1046060  
H    -1.8098600   -0.9476900    0.4601590  
H    -3.0103500    4.3403730   -0.7662840  
H    -6.5213760    3.4609200   -0.8779070  
C    -4.2069900   -2.5875580    3.0946600  
C    -3.9921250   -1.4326280    2.4184900  
C    -4.7235860   -1.5842440    1.1656520  
C    -5.3433660   -2.9420420    1.2747440  
N    -5.0369200   -3.5216920    2.4012660  
C    -6.1867270   -3.4794700    0.2393800  
C    -6.4067650   -2.7128050   -0.8530010  
O    -7.1615990   -3.0886940   -1.8972680  
C    -5.7774870   -1.3542870   -1.0119310  
O    -5.9461530   -0.7804270   -2.0828370  
C    -4.9362190   -0.7830560    0.0887160  
H    -3.4160970   -0.5732310    2.7291760  
H    -6.6216680   -4.4664100    0.3508330  
H    -7.1037540   -2.3515120   -2.5437000  
H    -3.8351500   -2.8613730    4.0751720  
C     6.4977630    1.0020660    1.1707150  
C     5.3360440    0.6182570    0.5478630  
C     5.6700740   -0.6979930   -0.0394020  
C     7.0806090   -0.9434510    0.3944220  
N     7.5426590    0.0527350    1.1010990  
C     7.7983710   -2.1296070    0.0188400  
C     7.1745040   -3.0180320   -0.7928340  
O     7.7239920   -4.1615980   -1.2244200  
C     5.7766970   -2.7764310   -1.2935600  
O     5.2786830   -3.6198330   -2.0355250  
C     5.0554900   -1.5541020   -0.8783060  
H     8.8136860   -2.2793050    0.3685820  
H     7.0477520   -4.5811760   -1.8005010  
H     4.0574130   -1.4181540   -1.2815810  
H     6.6728670    1.9287690    1.6976400  
