58


C    -1.6115740   -0.6792810    2.8040190  
C    -2.7517740   -0.9426970    2.1118560  
C    -2.7035090   -0.1702800    0.8901330  
C    -1.4168220    0.5627860    0.9197920  
N    -0.8044750    0.2076310    2.1076190  
C    -0.9613110    1.4202460   -0.0429380  
C    -1.8234530    1.5802130   -1.2342330  
O    -1.4706900    2.1924720   -2.2248150  
C    -3.2263520    0.8831630   -1.2515900  
O    -4.0001590    1.1612880   -2.1503060  
C    -3.5790660   -0.0515350   -0.1598050  
H    -3.5517770   -1.5968700    2.4224320  
H    -1.2908440   -1.0595240    3.7649580  
H     0.0772570    0.5797300    2.4239110  
C     3.3108170    0.1182870    0.3957200  
C     1.9369420    0.1687940    0.3039750  
C     1.5409150    1.5434680    0.1795500  
C     2.7933500    2.3330440    0.2045160  
N     3.8316410    1.4150630    0.2934190  
C     2.8646170    3.6836440    0.1271900  
C     1.6199990    4.4314670   -0.0217370  
O     1.5828130    5.6461680   -0.1299780  
C     0.2713620    3.6291470   -0.0386560  
O    -0.7752890    4.2520780   -0.0327950  
C     0.3138340    2.1463850    0.0214700  
H     1.2862510   -0.6902730    0.2324750  
H     3.7994690    4.2356760    0.1342190  
H     4.7513250    1.6659040    0.6262950  
C     3.8686460   -2.2462540    1.0763010  
C     4.1742320   -1.0222100    0.5370250  
C     5.5864540   -1.1538130    0.1276150  
C     5.9468160   -2.5479800    0.5255670  
N     4.9294350   -3.1677860    1.0718990  
C     7.2535890   -3.0892490    0.2913480  
C     8.1658760   -2.2984040   -0.3283680  
O     9.4189570   -2.6755990   -0.6067130  
C     7.8271830   -0.8992450   -0.7689900  
O     8.7013590   -0.2432140   -1.3271770  
C     6.4689040   -0.3660960   -0.5158150  
H     7.4831630   -4.1033910    0.5982930  
H     9.8390570   -1.9115150   -1.0592870  
H     6.2609780    0.6335490   -0.8843710  
H     2.9208640   -2.5451790    1.5088710  
C    -7.2747800   -0.3795870    2.3820600  
C    -6.0350100   -0.0298900    1.9610960  
C    -5.8599080   -0.7145020    0.6847460  
C    -7.1508800   -1.4464200    0.4910070  
N    -7.9696850   -1.2490530    1.4858150  
C    -7.4097660   -2.2351080   -0.6851910  
C    -6.4393370   -2.2995210   -1.6251600  
O    -6.5380880   -3.0033770   -2.7639360  
C    -5.1135520   -1.6081120   -1.4485930  
O    -4.2508520   -1.8261160   -2.2924240  
C    -4.8683160   -0.7531830   -0.2429180  
H    -5.3251060    0.6244590    2.4457090  
H    -8.3577210   -2.7497050   -0.7958700  
H    -5.6758310   -2.8869460   -3.2200160  
H    -7.7786740   -0.0701640    3.2903130  
