60


C     1.0191270   -1.0352540   -0.3630050  
C     0.6906360    0.3015320   -0.1955450  
C     1.9457130    1.0293430   -0.1624060  
C     2.9766630    0.0712400   -0.3039160  
N     2.3755420   -1.1740100   -0.4036020  
C     4.3506930    0.3907520   -0.2706990  
C     4.6551700    1.7536300   -0.1754300  
O     5.9422760    2.1696680   -0.2620030  
C     3.6318160    2.7237100   -0.0144200  
O     4.1111370    4.0100340    0.1054730  
C     2.2927350    2.3818480    0.0164210  
H     2.8569730   -1.9855680   -0.7674260  
H     5.9568220    3.1225990   -0.0638250  
H     3.3863260    4.6160340    0.3196500  
H     1.5377650    3.1448800    0.1881290  
H     0.3669730   -1.8865130   -0.4966270  
C    -0.6496690    0.8137560   -0.1123190  
C    -1.8145350    0.1961590    0.2925440  
C    -2.8936470    1.1162320    0.1183290  
C    -2.2979420    2.3570750   -0.4282380  
N    -0.9281910    2.1375150   -0.4844750  
C    -3.0006680    3.4525650   -0.8022970  
C    -4.4503730    3.4415180   -0.6178220  
O    -5.1686220    4.3709910   -0.9473720  
C    -5.1098880    2.1806560    0.0520670  
O    -6.3064650    2.1987900    0.2919920  
C    -4.2434640    1.0356470    0.3629870  
H    -1.8833870   -0.7982160    0.7081560  
H    -2.5439970    4.3430720   -1.2229910  
H    -0.3266740    2.6466640   -1.1168340  
C    -4.4862900   -0.5606600    2.2642220  
C    -5.2078330   -1.6569400    2.6060690  
C    -6.0730210   -1.9670710    1.4888940  
C    -5.7931450   -0.9410280    0.4537030  
N    -4.8073970   -0.1056800    0.9802710  
C    -6.3861600   -0.9086920   -0.7647820  
C    -7.3743660   -1.9366980   -1.0843410  
O    -7.9457900   -1.9962900   -2.1626480  
C    -7.7012080   -3.0208740    0.0069530  
O    -8.5276250   -3.8849900   -0.2444600  
C    -6.9836760   -2.9547640    1.2807210  
H    -5.1560670   -2.1922890    3.5432080  
H    -6.1746320   -0.1527330   -1.5121290  
H    -7.2023050   -3.7160020    2.0236440  
H    -3.7455510   -0.0173470    2.8359200  
C     7.7062590   -0.2724860    2.4941390  
C     8.3763230   -1.2875560    1.9060880  
C     7.5900750   -1.6235750    0.7214770  
C     6.4596800   -0.6409980    0.7414490  
N     6.5219780    0.1259630    1.7857470  
C     5.4187350   -0.6322310   -0.2886010  
C     5.4839790   -1.6520250   -1.1883420  
O     4.5582190   -1.8611380   -2.1548820  
C     6.5968870   -2.6555700   -1.2212210  
O     6.5640050   -3.5055660   -2.1118540  
C     7.6683750   -2.5887220   -0.2132430  
H     9.2818100   -1.7771970    2.2363230  
H     4.9088020   -2.6214140   -2.6747240  
H     8.4507590   -3.3396300   -0.2656390  
H     7.9538940    0.2520270    3.4090070  
