62


C     3.1570500   -1.5631900    0.1452040  
C     4.0889300   -0.5344980    0.1738890  
C     3.3179150    0.6951240    0.2846650  
C     1.9515820    0.3255980    0.3367010  
N     1.8962540   -1.0540680    0.2663380  
C     0.8765430    1.2416300    0.3905950  
C     1.2381580    2.5928600    0.3747540  
O     0.2784580    3.5629500    0.4483780  
C     2.5961340    2.9832310    0.3070420  
O     2.7752780    4.3550370    0.3008480  
C     3.6306940    2.0678590    0.2610750  
H     1.0409280   -1.5863140    0.2067440  
H     0.7436830    4.4182330    0.4718330  
H     3.7194920    4.5563200    0.3790310  
H     4.6602440    2.4041480    0.2270140  
H     3.3252700   -2.6218330    0.0360020  
C    -1.0025420   -0.2314970    1.2543640  
C    -0.5123950    0.7761380    0.4789260  
C    -1.6885620    1.2291270   -0.2934970  
C    -2.8023040    0.3346450    0.1481380  
N    -2.3862110   -0.4922000    1.0718140  
C    -4.1504410    0.4259790   -0.3940140  
C    -4.3585260    1.4705680   -1.2563550  
O    -5.5512040    1.7800340   -1.7823150  
C    -3.2628960    2.3850320   -1.7089820  
O    -3.5535290    3.2839170   -2.5000140  
C    -1.8922380    2.2062240   -1.1920810  
H    -5.3807830    2.5540770   -2.3641480  
H    -1.1337110    2.9068780   -1.5192500  
H    -0.4634660   -0.8099980    1.9962160  
C    -5.6554620   -1.1643850    3.5007120  
C    -6.7287410   -1.8568170    3.0074700  
C    -6.6907900   -1.7217800    1.5780000  
C    -5.5682910   -0.9096160    1.2682780  
N    -4.9735780   -0.5537940    2.4625140  
C    -5.2235250   -0.5366940   -0.0532060  
C    -6.0070420   -1.1078890   -1.0666870  
O    -5.6904560   -0.9048820   -2.3765430  
C    -7.1260610   -1.9250000   -0.7657710  
O    -7.7959570   -2.3817270   -1.8895550  
C    -7.4908990   -2.2186780    0.5322650  
H    -7.4648640   -2.3966470    3.5876120  
H    -3.9899540   -0.3104100    2.4914650  
H    -6.3805290   -1.3425630   -2.9047940  
H    -8.5453340   -2.9295600   -1.6143210  
H    -8.3620210   -2.8387120    0.7359980  
H    -5.3169280   -1.0402750    4.5201110  
C     6.3466150   -3.7495850   -1.7777310  
C     7.6277130   -3.3883890   -1.5481130  
C     7.5401990   -2.1523180   -0.7768650  
C     6.0698940   -1.9045110   -0.6329020  
N     5.3868300   -2.8410230   -1.2243230  
C     5.5316300   -0.7379840    0.0826130  
C     6.4813300    0.0798930    0.6382630  
O     6.1913220    1.1699100    1.3895120  
C     7.9428820   -0.1467790    0.5068580  
O     8.7069650    0.6522300    1.0599700  
C     8.4451610   -1.3133930   -0.2455310  
H     8.5341440   -3.8885970   -1.8597520  
H     7.0718000    1.5186240    1.6576030  
H     9.5218070   -1.4354060   -0.3169020  
H     5.9798380   -4.6155420   -2.3155680  
