62


C    -0.3418400   -0.3764120    3.2027870  
C     0.4154710    0.4993900    2.4682560  
C    -0.4161800    0.9972400    1.4053270  
C    -1.6894110    0.3931190    1.5689630  
N    -1.6111480   -0.4381440    2.6661370  
C    -2.8019920    0.6453030    0.7308090  
C    -2.5651230    1.5789510   -0.2845660  
O    -3.5649920    1.9424140   -1.1339100  
C    -1.3051640    2.2071820   -0.4649210  
O    -1.2835810    3.0896760   -1.5183800  
C    -0.1986000    1.9174320    0.3368040  
H     1.4400270    0.7706080    2.6757460  
H    -2.3566720   -1.0436230    2.9730870  
H    -3.1765560    2.6450200   -1.6946230  
H    -0.7862140    3.8874620   -1.2084920  
H    -0.0878720   -0.9496880    4.0831950  
C     3.7602300    0.0191800   -0.0764190  
C     4.5325190    1.1545340   -0.1920610  
C     3.6630910    2.2953360   -0.1448850  
C     2.2887170    1.7590690    0.0210320  
N     2.4176610    0.3957240    0.0507010  
C     1.1374630    2.5136660    0.0981850  
C     1.3272730    3.9473270   -0.1198200  
O     0.3988340    4.7380520   -0.3065270  
C     2.7778740    4.5528130   -0.1543380  
O     2.8932340    5.7694300   -0.1615700  
C     3.9031650    3.6355390   -0.2089390  
H     5.6107220    1.1969690   -0.2220600  
H     4.9013840    4.0546350   -0.2858170  
H     1.6785400   -0.2544750    0.2829910  
C     7.3111520   -1.9104890   -1.8654820  
C     7.0566280   -3.1854120   -1.4392360  
C     5.8221440   -3.1440750   -0.7080840  
C     5.3785770   -1.7963270   -0.7104520  
N     6.3132450   -1.0654200   -1.4099040  
C     4.1652340   -1.3787080   -0.1030680  
C     3.3918870   -2.4034960    0.4681130  
O     2.1922390   -2.1095880    1.0491770  
C     3.8323880   -3.7478290    0.4851450  
O     2.9519600   -4.6037030    1.1169200  
C     5.0343320   -4.1269030   -0.0808110  
H     7.6702620   -4.0557360   -1.6252740  
H     6.1724620   -0.1160980   -1.7199710  
H     1.8146200   -2.9401430    1.3898000  
H     3.2871640   -5.5114750    1.0761910  
H     5.3526730   -5.1668430   -0.0558180  
H     8.1302440   -1.5191400   -2.4518290  
C    -4.6971230   -0.2639300    2.1607920  
C    -4.0998760    0.0117550    0.9627660  
C    -5.0385160   -0.5618300   -0.0335750  
C    -6.1394380   -1.1376950    0.7866940  
N    -5.9342000   -0.9532460    2.0625200  
C    -7.2649260   -1.8049110    0.1856270  
C    -7.2878270   -1.9186940   -1.1637930  
O    -8.2688540   -2.5226600   -1.8581070  
C    -6.1827300   -1.3668320   -2.0157270  
O    -6.2696480   -1.5139380   -3.2348940  
C    -5.0444690   -0.6726950   -1.3748000  
H    -8.0545040   -2.2045340    0.8124990  
H    -8.0033280   -2.4413880   -2.8005460  
H    -4.2843350   -0.2568170   -2.0252040  
H    -4.3506360    0.0258250    3.1463590  
