58


C     0.7238340    1.5965460   -0.0532510  
C    -0.5889010    1.1982530   -0.0589380  
C    -0.5595060   -0.2425560   -0.0427000  
C     0.9017790   -0.5778020   -0.0404330  
N     1.6372190    0.4972850   -0.0472630  
C     1.3846670   -1.9446760   -0.0292910  
C     0.4201970   -2.9079610    0.0643410  
O     0.6963240   -4.2099600    0.1587080  
C    -1.0580990   -2.6130090    0.0655650  
O    -1.8101880   -3.5807810    0.0622530  
C    -1.5345520   -1.1996620    0.0143600  
H    -1.4637190    1.8279350    0.0035990  
H    -0.1740870   -4.6686830    0.1442730  
C    -0.4147730    5.3860680   -2.1109840  
C    -0.3999020    4.0848930   -1.7239590  
C     0.6896210    3.9852830   -0.7668860  
C     1.2483880    5.3738260   -0.7148010  
N     0.5950430    6.1862200   -1.4973600  
C     2.3828160    5.7040830    0.1039020  
C     2.9407480    4.7111960    0.8342880  
O     3.9943240    4.8795380    1.6481030  
C     2.3907420    3.3064090    0.8360070  
O     2.9064760    2.5149400    1.6185860  
C     1.2285600    2.9617510   -0.0430680  
H    -1.0365940    3.2818310   -2.0640310  
H     2.7628940    6.7194210    0.1228950  
H     4.1381170    4.0041180    2.0706220  
H    -1.0836230    5.8584590   -2.8209180  
C    -2.9604370   -0.9189580    0.0038500  
C    -3.6108980    0.0489760   -0.7140580  
C    -5.0118860   -0.0882240   -0.3728970  
C    -5.0383610   -1.2155260    0.6125100  
N    -3.8508310   -1.6994200    0.8252850  
C    -6.2694200   -1.6558510    1.2181650  
C    -7.4118080   -1.0279140    0.8522320  
O    -8.6265040   -1.3363210    1.3273390  
C    -7.4171160    0.1019600   -0.1490250  
O    -8.5009170    0.6153910   -0.4205140  
C    -6.1457750    0.5440440   -0.7472490  
H    -3.1871060    0.7295360   -1.4386880  
H    -6.2614760   -2.4711570    1.9327200  
H    -9.2481110   -0.7187720    0.8819150  
H    -6.1893570    1.3649800   -1.4565190  
C     5.1098410   -0.8024450    2.1821560  
C     3.8271490   -0.8986330    1.7496360  
C     3.8169110   -1.8073120    0.6244380  
C     5.2272440   -2.2413140    0.4374210  
N     5.9567030   -1.5974550    1.4147630  
C     5.6590870   -3.1177260   -0.5054130  
C     4.6778860   -3.6748490   -1.4216760  
O     4.9536340   -4.4875460   -2.2911680  
C     3.1857900   -3.2005650   -1.2865830  
O     2.3870810   -3.5699410   -2.1290760  
C     2.8112660   -2.2924770   -0.1702430  
H     2.9845700   -0.3470510    2.1326910  
H     6.6936680   -3.4333170   -0.5992060  
H     5.5158140   -0.2119680    2.9927170  
H     6.9496840   -1.6992420    1.5516250  
