58


C    -0.0185160    0.6024340   -1.5097360  
C    -0.2761490    1.6730610   -0.6981460  
C     0.9974110    2.0036140   -0.0501340  
C     1.9931190    1.0412830   -0.5651120  
N     1.3187090    0.2451550   -1.4667880  
C     3.3150440    0.9563290   -0.1865580  
C     3.7366890    1.9133110    0.8565320  
O     4.8643240    1.9433500    1.3231400  
C     2.6931690    2.9562250    1.4055780  
O     3.0597530    3.7342450    2.2706630  
C     1.3303700    2.9365220    0.8795820  
H     0.6326620    3.6764070    1.2519690  
H    -0.6933080    0.0726360   -2.1698200  
H     1.7181430   -0.5820580   -1.8860200  
C    -4.2616360   -0.0532400   -0.0076360  
C    -4.9974020    1.1122610   -0.0094220  
C    -4.0903270    2.2110510   -0.1947820  
C    -2.7411660    1.6163800   -0.3220170  
N    -2.9149830    0.2563780   -0.2076650  
C    -1.5802970    2.3196170   -0.5128370  
C    -1.7136440    3.7882580   -0.5887540  
O    -0.7639810    4.5309710   -0.7759390  
C    -3.1408150    4.4372430   -0.4385210  
O    -3.2327640    5.6540120   -0.4765650  
C    -4.2917120    3.5583420   -0.2564310  
H    -6.0711960    1.1889430    0.0567510  
H    -5.2730310    4.0134420   -0.1661820  
H    -2.1951580   -0.4473970   -0.2750600  
C    -7.9517700   -2.0192540    1.6020760  
C    -7.0133930   -1.0751200    1.3352090  
C    -5.9320060   -1.7861460    0.6734550  
C    -6.4083130   -3.2062490    0.6422100  
N    -7.5924940   -3.3315620    1.1691450  
C    -5.6132370   -4.2670930    0.0863170  
C    -4.3836100   -3.9539900   -0.3814420  
O    -3.5263540   -4.8539120   -0.8897850  
C    -3.8594410   -2.5488340   -0.3455100  
O    -2.6955700   -2.3849820   -0.7225640  
C    -4.7270060   -1.4246960    0.1325490  
H    -7.0407150   -0.0305760    1.6044170  
H    -5.9942960   -5.2820040    0.0744080  
H    -2.7106340   -4.3595550   -1.1152450  
H    -8.9035330   -1.8841940    2.1018150  
C     4.2560300   -0.4335120   -2.0858450  
C     4.2451840    0.0090020   -0.7874930  
C     5.3531140   -0.7538840   -0.1540210  
C     5.8808290   -1.6080350   -1.2540430  
N     5.2395040   -1.4031210   -2.3751960  
C     6.9708180   -2.5251080   -1.0556010  
C     7.5099980   -2.6101100    0.1841520  
O     8.5226550   -3.4263750    0.5161440  
C     6.9935310   -1.7733370    1.3187280  
O     7.5219880   -1.9115250    2.4200610  
C     5.8829550   -0.8217510    1.0818340  
H     7.3296190   -3.1240720   -1.8852360  
H     8.6877310   -3.2620750    1.4707210  
H     5.5745460   -0.2044790    1.9161850  
H     3.6366900   -0.0767090   -2.9014820  
