62


C     0.9748980    2.3304720   -0.0963530  
C     1.3637370    0.9914270   -0.0106470  
C     2.7518040    0.9196000   -0.3002800  
C     3.1871790    2.2578450   -0.5400710  
N     2.0907090    3.0745820   -0.4402760  
C     4.5210920    2.5839480   -0.7762190  
C     5.4484200    1.5465660   -0.7286110  
O     6.7633880    1.8092430   -0.9331230  
C     5.0573060    0.2087470   -0.4658770  
O     6.1015270   -0.6863580   -0.4779920  
C     3.7128090   -0.1461960   -0.3011490  
H     0.7414960    0.1648280    0.2940840  
H     2.0562190    4.0884060   -0.4440030  
H     4.8566530    3.5997450   -0.9563860  
H     7.2278900    0.9582140   -0.8152130  
H     5.9594670   -1.3112110    0.2662510  
C    -3.1589680    0.7138240    0.2613800  
C    -3.7759170    1.8922420    0.6245350  
C    -2.7958780    2.9356440    0.6240990  
C    -1.5134740    2.2990600    0.2510900  
N    -1.7971340    0.9698830    0.0557880  
C    -0.3058360    2.9668470    0.1500030  
C    -0.3807580    4.4351060    0.3191140  
O     0.5691460    5.1855120    0.1167930  
C    -1.7258260    5.1077680    0.7781900  
O    -1.7126980    6.3111050    1.0004890  
C    -2.8982120    4.2711820    0.8980430  
H    -4.7968610    2.0055380    0.9554980  
H    -3.8321520    4.7361160    1.1972490  
H    -1.1515290    0.2551180   -0.2457130  
C    -7.3128680   -0.4486440   -0.6488920  
C    -7.1393210   -1.8043520   -0.5897970  
C    -5.7534500   -2.0366660   -0.2972640  
C    -5.1315560   -0.7687360   -0.1712130  
N    -6.1102140    0.1805740   -0.3740510  
C    -3.7424330   -0.6065710    0.0828830  
C    -2.9936410   -1.7978080    0.1504260  
O    -1.6454280   -1.7499720    0.3319520  
C    -3.6165000   -3.0684420    0.0602560  
O    -2.7478770   -4.1238580    0.2232490  
C    -4.9757420   -3.1995220   -0.1516940  
H    -7.9039440   -2.5539720   -0.7386430  
H    -5.9244680    1.1605180   -0.5226480  
H    -1.2693940   -2.6452480    0.1736510  
H    -3.1277990   -4.9281190   -0.1599630  
H    -5.4277070   -4.1870040   -0.2122800  
H    -8.1985710    0.1358900   -0.8533410  
C     0.3273950   -2.4691010   -1.9776660  
C     1.3499950   -1.5855370   -1.8874690  
C     2.1539100   -2.0409070   -0.7618910  
C     1.4628900   -3.2602340   -0.2907370  
N     0.3649610   -3.4852300   -0.9710480  
C     1.9618880   -4.0409430    0.8131500  
C     3.1259060   -3.6473280    1.3790510  
O     3.7465490   -4.3225410    2.3633130  
C     3.8530760   -2.4199040    0.9123130  
O     4.9548200   -2.2053850    1.4380660  
C     3.2409290   -1.5232300   -0.1108470  
H     1.5556350   -0.7326480   -2.5170290  
H     1.4351840   -4.9304980    1.1402760  
H     4.5666260   -3.8220030    2.5584790  
H    -0.4775370   -2.4912360   -2.7022630  
