60


C     1.1851770   -1.6892480   -0.6789210  
C     2.5329860   -1.4724430   -0.6204840  
C     2.7410430   -0.1237730   -0.1724870  
C     1.4605960    0.4457630   -0.0008630  
N     0.5060480   -0.5310320   -0.3072500  
C     1.2606490    1.7540070    0.4616150  
C     2.3811010    2.5221560    0.7092550  
O     2.2461510    3.8032990    1.1409820  
C     3.6924290    2.0027380    0.5264690  
O     4.6608110    2.8949290    0.8100270  
C     3.9113700    0.6595700    0.1061450  
H     3.2753830   -2.1936850   -0.9214390  
H     0.2788890    2.1886270    0.5961370  
H     3.1478800    4.1620510    1.2344320  
H     5.5472940    2.4480740    0.6222940  
H     0.6298190   -2.5535900   -1.0108760  
C    -2.4821080   -3.1132690    1.5569630  
C    -1.3170720   -2.5416090    1.1562260  
C    -1.6631010   -1.3875160    0.3549360  
C    -3.1340330   -1.3376940    0.3093360  
N    -3.5695190   -2.4263250    1.0274200  
C    -3.9016320   -0.3518290   -0.2783040  
C    -3.1549090    0.7103680   -0.9816610  
O    -3.6744720    1.5946130   -1.6323300  
C    -1.5778860    0.6776790   -0.9621700  
O    -0.9770730    1.5464480   -1.5649080  
C    -0.8911720   -0.4282770   -0.2534190  
H    -0.3200190   -2.8694970    1.4068030  
H    -2.6451320   -3.9769380    2.1872670  
H    -4.5349720   -2.5463460    1.3019480  
C    -5.3482830   -0.3494830   -0.2224520  
C    -6.2058130   -1.4282630   -0.2020150  
C    -7.5332270   -0.8726700   -0.1034770  
C    -7.3031100    0.6076260   -0.0407860  
N    -6.0399800    0.9074770   -0.1163270  
C    -8.3980520    1.5340460    0.0919580  
C    -9.6510590    1.0229760    0.1286410  
O   -10.7645950    1.7599580    0.2388150  
C    -9.9151510   -0.4644550    0.0465930  
O   -11.0915150   -0.8277860    0.0922600  
C    -8.7852700   -1.3897990   -0.0692430  
H    -5.9648910   -2.4694850   -0.3712830  
H    -8.2044210    2.5994970    0.1440200  
H   -11.5039440    1.1105640    0.2358160  
H    -9.0132480   -2.4504010   -0.1141140  
C     5.2502520    0.1402330    0.0076350  
C     5.7352850   -1.1328880   -0.2254570  
C     7.1576700   -1.0431540   -0.2092370  
C     7.4467800    0.4060530    0.0595320  
N     6.3378870    1.0756330    0.1888990  
C     8.7825090    0.9162980    0.1528870  
C     9.7900580    0.0231880   -0.0084250  
O    11.0842050    0.3309770    0.0492020  
C     9.5386660   -1.4573830   -0.2775410  
O    10.5494730   -2.1569230   -0.4017830  
C     8.1765610   -1.9382840   -0.3679900  
H     5.1746710   -2.0429420   -0.3559280  
H     8.9644850    1.9678700    0.3441030  
H    11.5505300   -0.5267010   -0.1058990  
H     8.0252120   -2.9954710   -0.5601590  
