64


C    -0.6300530    0.6539870   -0.5289150  
C    -0.7899150    2.0023020   -0.8155080  
C    -2.1711410    2.3206130   -0.6378420  
C    -2.8261830    1.1246810   -0.2352850  
N    -1.8717340    0.1414490   -0.1894670  
C    -4.2221250    1.0489730   -0.0100780  
C    -4.9361050    2.2429080   -0.1811590  
O    -6.2801750    2.2785650    0.0498200  
C    -4.2868220    3.4428580   -0.5674300  
O    -5.1452700    4.5228130   -0.6810830  
C    -2.9276300    3.4963610   -0.8026950  
H    -0.0319610    2.6643670   -1.2098430  
H    -2.0121820   -0.8264000    0.0558080  
H    -6.5635650    3.2024580   -0.0672110  
H    -4.6325310    5.3267230   -0.8501020  
H    -2.4569410    4.4277430   -1.1115020  
C     3.5937240    1.7645930    0.0197200  
C     4.1600320    0.5219250   -0.1778160  
C     3.0583020   -0.3822590   -0.4249790  
C     1.8655070    0.3787060   -0.3789530  
N     2.2237980    1.6875370   -0.1290670  
C     0.5719930   -0.1772860   -0.5349570  
C     0.5391710   -1.5685790   -0.6869580  
O    -0.6627900   -2.2228260   -0.8024320  
C     1.7249620   -2.3404950   -0.7376210  
O     1.4920350   -3.6933110   -0.9161240  
C     2.9775580   -1.7730870   -0.6217850  
H     1.5645370    2.4108140    0.1149370  
H    -0.4592170   -3.1661800   -0.9327970  
H     2.3381270   -4.1546130   -1.0120600  
H     3.8755260   -2.3798290   -0.6847660  
H     4.0744790    2.7171550    0.1953610  
C     7.1022370    1.6353440    2.8915740  
C     8.2103360    1.0644810    2.3210600  
C     7.7840580    0.4465130    1.0967640  
C     6.3913100    0.6864620    0.9742170  
N     6.0066910    1.4252780    2.0753550  
C     5.5994700    0.2144290   -0.0964300  
C     6.2795020   -0.5355900   -1.0583150  
O     5.6076680   -1.0337470   -2.1433080  
C     7.6717540   -0.7882270   -0.9511610  
O     8.1781560   -1.5471420   -1.9953840  
C     8.4308730   -0.3074530    0.0979080  
H     9.2138150    1.0822690    2.7240640  
H     5.0471520    1.6406460    2.2990030  
H     6.2748550   -1.4523950   -2.7149950  
H     9.1450170   -1.5571770   -1.9424450  
H     9.4967740   -0.5199400    0.1528290  
H     6.9997670    2.1887860    3.8145410  
C    -7.6886060   -1.3016810   -1.6022370  
C    -6.7358780   -0.3519850   -1.4649260  
C    -5.9925410   -0.7229850   -0.2638760  
C    -6.6693910   -1.9697380    0.2020050  
N    -7.6559330   -2.3057960   -0.5787740  
C    -6.2282190   -2.6848070    1.3729110  
C    -5.1577420   -2.1942430    2.0347740  
O    -4.6244000   -2.7563200    3.1350810  
C    -4.4416510   -0.9495630    1.5814290  
O    -3.4707650   -0.5985270    2.2512080  
C    -4.9130970   -0.1982030    0.3758410  
H    -6.5507630    0.5081190   -2.0902220  
H    -6.7451970   -3.5838200    1.6896150  
H    -3.8717950   -2.1746160    3.3808580  
H    -8.4434570   -1.3831350   -2.3752910  
