64


C     4.0485160    0.6108950   -0.0255980  
C     2.7775930    0.0976850   -0.1418700  
C     1.8872190    1.1745600   -0.4733350  
C     2.6702490    2.3505020   -0.5422210  
N     3.9792580    2.0086550   -0.2096070  
C     2.1375370    3.6033470   -0.8505820  
C     0.7713950    3.6664870   -1.0889550  
O     0.1960810    4.8589100   -1.4176000  
C    -0.0433300    2.5095900   -1.0047880  
O    -1.3765140    2.7709340   -1.2667040  
C     0.4864880    1.2506270   -0.6918770  
H     2.4995100   -0.9267480    0.0569350  
H     4.7701650    2.5210520   -0.5809780  
H     2.7376900    4.5053470   -0.9106980  
H    -0.7462950    4.6737750   -1.5787790  
H    -1.8855400    1.9594350   -1.4564190  
C     5.7858540   -3.3950660   -1.0748720  
C     4.9731670   -2.2948680   -0.9842320  
C     5.6340020   -1.3468500   -0.1315520  
C     6.8641510   -1.9356400    0.2622740  
N     6.9263020   -3.1844360   -0.3224150  
C     7.7952840   -1.2865310    1.0818570  
C     7.4734430   -0.0104450    1.5150580  
O     8.3325510    0.6691680    2.3307030  
C     6.2539120    0.6035390    1.1353950  
O     6.0851360    1.8700420    1.6670940  
C     5.3156720   -0.0355050    0.3178630  
H     4.0224560   -2.1663740   -1.4800200  
H     7.6897800   -3.8344110   -0.2233470  
H     8.7337570   -1.7388130    1.3857900  
H     7.8967950    1.5097310    2.5567200  
H     5.1555890    2.1385960    1.5493500  
H     5.6496170   -4.3198740   -1.6176120  
C    -0.3688240    0.0640810   -0.6554950  
C    -0.1812420   -1.2120540   -1.1489880  
C    -1.4110320   -1.9266400   -0.9864470  
C    -2.3337850   -1.0373810   -0.3770230  
N    -1.6727420    0.1498810   -0.1747180  
C    -3.6739520   -1.3724010   -0.0921470  
C    -4.0670880   -2.6650380   -0.4605820  
O    -5.3584180   -3.0624780   -0.2954670  
C    -3.1503370   -3.5719490   -1.0554180  
O    -3.7094140   -4.8035170   -1.3490690  
C    -1.8410980   -3.2259780   -1.3214280  
H     0.7138420   -1.5670270   -1.6397960  
H    -2.0477280    0.9384690    0.3282800  
H    -5.4171900   -3.9775860   -0.6218430  
H    -3.0558040   -5.3540710   -1.8044770  
H    -1.1643680   -3.9388620   -1.7882040  
C    -4.7971320    2.7899010   -1.1532100  
C    -5.8214600    3.0263630   -0.3048740  
C    -5.9268340    1.8221830    0.5092090  
C    -4.8533840    0.9132820   -0.0236190  
N    -4.1935550    1.5008570   -0.9857240  
C    -4.6348070   -0.4247640    0.5149290  
C    -5.4022510   -0.7553500    1.5980090  
O    -5.2826100   -1.9073220    2.2669130  
C    -6.4674580    0.1461510    2.1592820  
O    -7.1027040   -0.2585490    3.1321390  
C    -6.7045430    1.4641600    1.5471870  
H    -6.4347840    3.9127180   -0.2229260  
H    -5.9652180   -1.8704120    2.9737500  
H    -7.4834400    2.0848990    1.9791780  
H    -4.3920920    3.4465740   -1.9134430  
