58


C     0.4758930    1.6763780   -0.0486140  
C     1.5199780    0.8358840    0.2371740  
C     2.7391480    1.5261540   -0.0902400  
C     2.3304830    2.8615500   -0.5743630  
N     0.9416750    2.9062090   -0.5037810  
C     3.1682800    3.8401980   -0.9969280  
C     4.5980190    3.5867520   -0.9135300  
O     5.4460170    4.3826740   -1.2824830  
C     5.0746360    2.2260050   -0.2858420  
O     6.2682920    2.0850770   -0.0857750  
C     4.0701010    1.1700860    0.0252810  
H     1.4362280   -0.1277720    0.7135630  
H     2.8296990    4.8038430   -1.3639330  
H     0.3794490    3.5519570   -1.0397910  
C    -1.4429090    0.1501220   -0.0910070  
C    -2.7988330    0.1719250    0.0026740  
C    -3.1768240    1.5694890    0.2464890  
C    -1.9178110    2.3462680    0.2997910  
N    -0.8803140    1.4306140    0.0534070  
C    -1.8463210    3.6688740    0.5904570  
C    -3.0944120    4.3998410    0.8273620  
O    -3.1163650    5.5910760    1.0880400  
C    -4.4388240    3.6021640    0.7511120  
O    -5.4903590    4.1855140    0.9486220  
C    -4.3756590    2.1622370    0.4600750  
H    -0.9184670    4.2178530    0.6975560  
H    -5.3130760    1.6210480    0.4173680  
H    -0.7922170   -0.6823240   -0.3181740  
C    -2.6367640   -3.8923750    1.7863870  
C    -2.4067020   -2.5892350    1.4694030  
C    -3.4195390   -2.1879330    0.5195480  
C    -4.2755750   -3.3824610    0.3108950  
N    -3.7342500   -4.3827170    1.0967550  
C    -5.3678850   -3.4289910   -0.4928490  
C    -5.7434620   -2.2163240   -1.2055580  
O    -6.7222490   -2.1381470   -1.9298670  
C    -4.8412970   -0.9396710   -1.0312090  
O    -5.1269390    0.0593360   -1.6700670  
C    -3.6732310   -0.9983690   -0.1214790  
H    -1.6251030   -1.9670500    1.8773670  
H    -5.9797860   -4.3160140   -0.6228750  
H    -2.0977840   -4.5352540    2.4697070  
H    -4.1153060   -5.3115540    1.1882520  
C     5.6772850   -0.4324440    1.1587560  
C     4.5486850   -0.1369560    0.4375140  
C     3.9949830   -1.4683300    0.0923930  
C     4.9214360   -2.4345330    0.7553010  
N     5.8909360   -1.8166490    1.3721180  
C     4.7364910   -3.8568250    0.6568560  
C     3.7110680   -4.3138340   -0.1025970  
O     3.4219060   -5.6138610   -0.2822670  
C     2.7927820   -3.3726250   -0.8235470  
O     1.8747380   -3.8551740   -1.4872180  
C     3.0037680   -1.9146930   -0.7031330  
H     5.4212120   -4.5257130    1.1664350  
H     2.6494060   -5.6278210   -0.8885240  
H     2.3304990   -1.2768110   -1.2657290  
H     6.3866810    0.2714730    1.5679600  
