58


C     4.3110660    0.7272290    0.0982070  
C     4.4580530    2.0914140   -0.0160770  
C     3.1988730    2.6384770   -0.4417050  
C     2.2798730    1.4919180   -0.5978090  
N     3.0055400    0.3794360   -0.2670950  
C     0.9578560    1.5793040   -0.9760270  
C     0.4551700    2.9395360   -1.2909880  
O    -0.6404060    3.1578670   -1.7728440  
C     1.4069680    4.1698440   -1.0591740  
O     0.9625000    5.2947040   -1.2204830  
C     2.7940800    3.9201040   -0.6693910  
H     5.3672940    2.6518390    0.1330490  
H     3.4509900    4.7761020   -0.5487320  
H     2.6685870   -0.5726010   -0.2669780  
C     0.0950630    0.4214410   -1.0993080  
C     0.4093600   -0.8631170   -1.4641760  
C    -0.8301420   -1.6029510   -1.4114300  
C    -1.8439080   -0.5989710   -0.9588040  
N    -1.3006220    0.5628280   -0.7721460  
C    -3.2581230   -0.9382770   -0.7516090  
C    -3.5776340   -2.2399400   -1.0411740  
O    -4.8275400   -2.7416390   -0.9726960  
C    -2.5833760   -3.2567210   -1.5003790  
O    -3.0036890   -4.3957030   -1.7326300  
C    -1.1753030   -2.8825000   -1.6678660  
H     1.3550370   -1.2462840   -1.8235440  
H    -4.7296270   -3.6820010   -1.2525990  
H    -0.4855870   -3.6559630   -1.9911390  
C    -4.0587120    1.4446910   -0.4940530  
C    -4.1939810    0.0891170   -0.3151510  
C    -5.4591240   -0.0442300    0.4453840  
C    -5.9374690    1.3636410    0.5958360  
N    -5.1189690    2.2136240    0.0380550  
C    -7.1510570    1.6938030    1.2932600  
C    -7.8536850    0.6820620    1.8554590  
O    -8.9950000    0.8385830    2.5446060  
C    -7.3834450   -0.7415300    1.7564090  
O    -8.0664150   -1.6066700    2.3032990  
C    -6.1414970   -1.0545460    1.0196700  
H    -7.4643310    2.7293970    1.3652300  
H    -9.2533600   -0.0674690    2.8246070  
H    -5.8590420   -2.0971130    0.9576080  
H    -3.2400520    1.9547880   -0.9818520  
C     8.2211740    0.7885670    2.2837200  
C     7.0165270    1.1834880    1.7973050  
C     6.4498880    0.0008140    1.1715870  
C     7.4897940   -1.0548460    1.4020260  
N     8.5253920   -0.5836790    2.0352460  
C     7.3149540   -2.4101670    0.9572350  
C     6.1494330   -2.7278020    0.3491760  
O     5.8427190   -3.9619370   -0.0792950  
C     5.0722770   -1.7070120    0.1230200  
O     4.0169490   -2.1193220   -0.3642430  
C     5.2958780   -0.2708250    0.4866380  
H     6.5560070    2.1537310    1.9010520  
H     8.0925690   -3.1444380    1.1347110  
H     4.9345730   -3.9097590   -0.4449400  
H     8.9416330    1.3851390    2.8305160  
