60


C     1.2746720    2.3059190   -0.0963270  
C     1.7014860    0.9648200   -0.0042310  
C     3.0662540    0.9121380   -0.3264670  
C     3.4761920    2.2629580   -0.5839100  
N     2.3756410    3.0680280   -0.4458160  
C     4.7910630    2.6045610   -0.8837720  
C     5.7127310    1.5645270   -0.8923460  
O     7.0127580    1.8161200   -1.1470620  
C     5.3415020    0.2044180   -0.6319020  
O     6.4026870   -0.6537590   -0.6969880  
C     4.0187890   -0.1609010   -0.3865550  
H     1.0885870    0.1428700    0.3195630  
H     2.3243310    4.0798840   -0.4762530  
H     5.1138530    3.6222150   -1.0736720  
H     7.4671540    0.9520990   -1.0646240  
H     6.3158540   -1.2996810    0.0639780  
C    -2.8379480    0.5242870    0.1416660  
C    -1.4799600    0.7600380   -0.0835440  
C    -1.1951160    2.1136560    0.2031370  
C    -2.4718510    2.7271930    0.6065880  
N    -3.4244500    1.7273380    0.5393130  
C    -2.6462220    4.0279920    0.9654710  
C    -1.5059230    4.9185990    0.8836240  
O    -1.5418230    6.1039250    1.1787720  
C    -0.1475290    4.3321880    0.3569720  
O     0.7639470    5.1279320    0.1532180  
C    -0.0152290    2.8730760    0.1419740  
H    -0.8012610    0.0370190   -0.5076710  
H    -3.6002330    4.4369340    1.2825880  
H    -4.3303330    1.7960290    0.9768190  
C    -3.0753080   -1.9677240   -0.1409410  
C    -3.5744110   -0.6786970   -0.0105620  
C    -5.0439670   -0.8610350   -0.0605960  
C    -5.2163060   -2.3235420   -0.2038310  
N    -4.0478730   -2.9443770   -0.2530630  
C    -6.5063020   -2.9268510   -0.2992130  
C    -7.5964870   -2.1115190   -0.2748790  
O    -8.8627720   -2.5508320   -0.3545110  
C    -7.4629690   -0.6289320   -0.1663010  
O    -8.4924830    0.0526370   -0.1577280  
C    -6.1146840   -0.0362760   -0.0717270  
H    -6.5968510   -4.0029540   -0.3975460  
H    -9.4201280   -1.7419940   -0.3212520  
H    -6.0743720    1.0479240   -0.0378060  
H    -2.0321770   -2.2640850   -0.1408140  
C     5.8237220   -3.4675290    1.9372330  
C     4.8475050   -4.4023030    1.8980160  
C     3.8062050   -3.8398800    1.0485000  
C     4.3201710   -2.4893110    0.6667360  
N     5.5063820   -2.2970360    1.1845660  
C     3.5792970   -1.5587620   -0.1727480  
C     2.4283340   -2.0805080   -0.7120720  
O     1.6448350   -1.4285580   -1.5896920  
C     1.8905910   -3.4331030   -0.3594750  
O     0.8195520   -3.7709090   -0.8746120  
C     2.6368990   -4.3013270    0.5622970  
H     4.8317810   -5.3715000    2.3762040  
H     0.9277300   -2.0689590   -1.8057120  
H     2.2172840   -5.2775050    0.7843730  
H     6.7760710   -3.5074360    2.4507450  
