58


C    -0.5345520    3.0600220    0.1568150  
C    -0.1038380    4.3412090   -0.0661640  
C     1.3334210    4.3089530   -0.1717530  
C     1.7337550    2.9007640    0.0332780  
N     0.5640250    2.1941330    0.2058030  
C     3.0226150    2.4282970    0.0070660  
C     4.0889000    3.4263310   -0.2483460  
O     5.2738100    3.1596200   -0.2011320  
C     3.6694590    4.9142030   -0.5362520  
O     4.5367580    5.7246300   -0.8181500  
C     2.2539680    5.2763990   -0.4419180  
H    -0.7354370    5.2057450   -0.2096720  
H     1.9842150    6.3142270   -0.6116930  
H     0.5360690    1.2202580    0.4698940  
C    -1.8839540    2.5563590    0.2723370  
C    -3.0146700    3.2095310    0.6769980  
C    -4.1225650    2.2961220    0.5623980  
C    -3.5593610    1.0260610    0.0652180  
N    -2.1767710    1.2119680   -0.0261110  
C    -4.2879920   -0.0801080   -0.2821050  
C    -5.7680530    0.0715970   -0.1762910  
O    -6.5440050   -0.7714740   -0.5861560  
C    -6.3639810    1.3654740    0.4916020  
O    -7.5673840    1.4080140    0.6933080  
C    -5.4548580    2.4578960    0.8054540  
H    -3.0613070    4.2226900    1.0501370  
H    -5.8750280    3.3804120    1.1929490  
H    -1.6432840    0.7012430   -0.7192260  
C     3.3303990    1.0223630    0.2086720  
C     2.7476920    0.1597530    1.1025890  
C     3.3252540   -1.1353930    0.8276280  
C     4.2708130   -0.8808990   -0.3055380  
N     4.2850690    0.3730610   -0.6528290  
C     5.0255070   -1.9538410   -0.9037520  
C     4.8337900   -3.2049060   -0.4206740  
O     5.4495600   -4.2972630   -0.8929810  
C     3.8632750   -3.4872060    0.7029720  
O     3.6871960   -4.6648840    1.0211130  
C     3.1517260   -2.3742460    1.3388630  
H     2.0745630    0.3975060    1.9160840  
H     5.7094630   -1.7485500   -1.7195390  
H     5.0842740   -5.0504200   -0.3778360  
H     2.4719060   -2.6085750    2.1498270  
C    -4.2530760   -2.1550420   -1.7400990  
C    -3.7363500   -1.3353210   -0.7712190  
C    -2.5629860   -2.0792070   -0.2686250  
C    -2.5177710   -3.3102750   -1.1191640  
N    -3.5052400   -3.3370940   -1.9709640  
C    -1.5031010   -4.3127280   -0.9484340  
C    -0.6062430   -4.1530790    0.0566220  
O     0.3837720   -5.0209440    0.3074080  
C    -0.6789880   -2.9719210    0.9835360  
O     0.1254410   -2.9066680    1.9112170  
C    -1.7010600   -1.9261300    0.7555300  
H    -1.4827460   -5.1760490   -1.6041720  
H     0.8818040   -4.6913880    1.0844610  
H    -1.7112550   -1.0919860    1.4498970  
H    -5.1470550   -1.9840390   -2.3228980  
