60


C     0.7712540    1.3440560   -0.3942320  
C     1.6494390    0.3124130   -0.1302360  
C     2.9605410    0.7504780   -0.4884050  
C     2.8309650    2.0824820   -0.9600940  
N     1.4988230    2.4306770   -0.8706140  
C     3.9175710    2.8478840   -1.3931580  
C     5.1707340    2.2621130   -1.3296670  
O     6.2613170    2.9583660   -1.7475440  
C     5.3397890    0.9433660   -0.8253730  
O     6.6512770    0.5339890   -0.8549330  
C     4.2563520    0.1608190   -0.4086670  
H     1.3745710   -0.6376000    0.3040540  
H     1.0896050    3.2403740   -1.3119950  
H     3.8170930    3.8632320   -1.7621120  
H     7.0391650    2.3886360   -1.6135780  
H     6.7585240   -0.3055320   -0.3789670  
C    -1.5285480    0.3502730   -0.4063400  
C    -0.6710010    1.3935610   -0.2429480  
C    -1.4833240    2.5430960    0.1579920  
C    -2.8901030    2.0780540    0.1966760  
N    -2.8583250    0.7110410   -0.1206350  
C    -3.9471630    2.8859790    0.4579770  
C    -3.6906950    4.2923880    0.7851830  
O    -4.5874110    5.0822280    1.0278900  
C    -2.2042570    4.7827160    0.8265950  
O    -1.9621360    5.9375540    1.1326070  
C    -1.1522970    3.8193520    0.4769230  
H    -4.9799530    2.5609010    0.4226980  
H    -0.1268390    4.1733010    0.4956340  
H    -1.3108870   -0.6687780   -0.6913420  
C    -3.9219100   -0.1680540   -0.2365980  
C    -4.0370660   -1.2657310   -1.0428130  
C    -5.2977100   -1.8922790   -0.7364010  
C    -5.9226630   -1.0667640    0.3241240  
N    -5.0631720    0.0099040    0.5525600  
C    -7.1006500   -1.3503230    0.9241590  
C    -7.8348490   -2.5392610    0.4800000  
O    -8.9046690   -2.8698950    0.9638340  
C    -7.2136020   -3.4056000   -0.6747400  
O    -7.8204840   -4.3929550   -1.0612800  
C    -5.9231300   -2.9973020   -1.2275720  
H    -3.3438070   -1.5680280   -1.8138930  
H    -7.5404990   -0.7379310    1.7053740  
H    -5.4941950   -3.6130370   -2.0120860  
H    -5.0282230    0.4872340    1.4433010  
C     6.8750310   -1.7439920    2.6864690  
C     6.2469790   -0.8092510    1.9294090  
C     5.3527800   -1.5670750    1.0553920  
C     5.5891730   -2.9871500    1.4501890  
N     6.4798250   -3.0839370    2.3980410  
C     4.8835360   -4.0766050    0.8277700  
C     3.9840470   -3.7702360   -0.1337210  
O     3.2486520   -4.6808800   -0.7924950  
C     3.7253180   -2.3493490   -0.5663130  
O     2.9117590   -2.1871840   -1.4706710  
C     4.4674960   -1.2138700    0.0808490  
H     6.3420900    0.2660560    1.9836240  
H     5.0776950   -5.0979200    1.1356600  
H     2.7188580   -4.1710010   -1.4432790  
H     7.6080970   -1.5806020    3.4676090  
