58


C    -1.4879650   -2.0638240   -1.4977000  
C    -2.7638970   -1.7275690   -1.1825200  
C    -2.7085810   -0.4965040   -0.4252020  
C    -1.2764690   -0.1471950   -0.3169280  
N    -0.5888330   -1.1436060   -0.9657230  
C    -0.7649220    0.9988200    0.2568100  
C    -1.7480800    1.9223170    0.8568050  
O    -1.4432710    2.9275810    1.4689210  
C    -3.2760410    1.5574830    0.7713500  
O    -4.0698680    2.2991780    1.3200410  
C    -3.6944180    0.3137740    0.0757300  
H    -3.6556560   -2.2799560   -1.4313110  
H    -1.1180580   -2.9095830   -2.0616010  
H     0.4023100   -1.0957100   -1.1716390  
C     0.6524580    1.2851750    0.2417540  
C     1.6841170    0.3810570    0.3253420  
C     2.8856850    1.1242120    0.0729120  
C     2.4046700    2.5323400   -0.1198340  
N     1.1134820    2.6277920   -0.0032470  
C     3.3173900    3.6078540   -0.4031450  
C     4.6291280    3.2971790   -0.5092410  
O     5.5933100    4.1873660   -0.7853630  
C     5.1434780    1.8832990   -0.3571380  
O     6.3441010    1.7121450   -0.5649850  
C     4.2049120    0.7885410   -0.0137190  
H     1.6250750   -0.6691250    0.5662840  
H     2.9470720    4.6188060   -0.5299400  
H     6.4223720    3.6595450   -0.8304480  
C     3.2192860   -3.0691010   -1.9781500  
C     4.1580500   -3.8913110   -1.4604210  
C     4.9097220   -3.0639620   -0.5241480  
C     4.2606430   -1.7110040   -0.6186920  
N     3.2656170   -1.7327710   -1.4609010  
C     4.7488140   -0.5734640    0.1510010  
C     5.7804980   -0.8309770    1.0088440  
O     6.2977960    0.0840750    1.8339100  
C     6.4279380   -2.1849570    1.1345300  
O     7.3493590   -2.3006200    1.9391200  
C     5.9417130   -3.3011670    0.3064610  
H     4.3339400   -4.9349690   -1.6803610  
H     7.0270380   -0.3700760    2.3124990  
H     6.4384050   -4.2601850    0.4169300  
H     2.4662980   -3.3042680   -2.7213290  
C    -6.0482390   -3.1536240    1.4573230  
C    -7.3131270   -2.7755670    1.1652960  
C    -7.1812910   -1.4676450    0.5318640  
C    -5.7020860   -1.2101870    0.5284290  
N    -5.0517280   -2.1984330    1.0693660  
C    -5.1350100    0.0176810   -0.0102890  
C    -6.0256720    0.9094160   -0.5364670  
O    -5.6648790    2.0533320   -1.1254530  
C    -7.5123490    0.6685950   -0.5479510  
O    -8.2227650    1.5355560   -1.0525500  
C    -8.0536100   -0.5751740    0.0273300  
H    -8.2348140   -3.3072640    1.3563380  
H    -6.5038700    2.4980640   -1.3803950  
H    -9.1313950   -0.7051180    0.0094710  
H    -5.7192140   -4.0670020    1.9385080  
