58


C     0.2472300    1.4935950   -0.1271220  
C     1.5679890    1.1066770   -0.1035120  
C     1.6000190   -0.3270770   -0.0817130  
C     0.1889340   -0.7744020   -0.1218300  
N    -0.5684660    0.3659610   -0.1495970  
C    -0.2401020   -2.0839520   -0.1192720  
C     0.8229910   -3.1138550   -0.1447660  
O     0.6118840   -4.2935620   -0.3469690  
C     2.3113050   -2.6626570    0.0326660  
O     3.1521410   -3.5130670    0.2659450  
C     2.6467760   -1.2225530   -0.0431210  
H     2.4239120    1.7638970   -0.0890750  
H    -1.5766260    0.4206530   -0.0918280  
C    -0.3673600    2.7941180   -0.1339380  
C     0.2058080    4.0360210   -0.1227760  
C    -0.9003250    4.9660930   -0.1350540  
C    -2.1227880    4.0944250   -0.1525770  
N    -1.8048370    2.8321840   -0.1520740  
C    -3.4484040    4.6522970   -0.1672420  
C    -3.5604420    6.0022930   -0.1656620  
O    -4.7242400    6.6586450   -0.1784430  
C    -2.3470080    6.9089220   -0.1487360  
O    -2.5511170    8.1204520   -0.1485440  
C    -1.0021120    6.3152860   -0.1331800  
H     1.2577220    4.2843970   -0.1079010  
H    -4.3156990    4.0019360   -0.1785850  
H    -4.4917680    7.6144950   -0.1732030  
H    -0.1564370    6.9957300   -0.1207600  
C    -1.6398470   -2.4581220   -0.1404000  
C    -2.6934800   -1.8109250   -0.7418260  
C    -3.8659950   -2.5925310   -0.4254650  
C    -3.3408960   -3.7072950    0.4276610  
N    -2.0534750   -3.6310780    0.5872910  
C    -4.2174030   -4.7097770    0.9782780  
C    -5.5345350   -4.6259600    0.6776780  
O    -6.4643530   -5.4896490    1.1091640  
C    -6.0898340   -3.5227070   -0.1941390  
O    -7.3026550   -3.5309210   -0.4071920  
C    -5.1816940   -2.5028570   -0.7311130  
H    -2.6590120   -0.9635130   -1.4132620  
H    -3.8135480   -5.5023610    1.5980410  
H    -7.3120140   -5.1684490    0.7271080  
H    -5.6186160   -1.7199960   -1.3435090  
C     5.2496370    1.4068070    2.5220260  
C     4.1538080    0.7811450    2.0245380  
C     4.6386290    0.0152370    0.8834690  
C     6.1078400    0.3075820    0.8554010  
N     6.4543570    1.1234510    1.8116600  
C     6.9851540   -0.2906140   -0.1148380  
C     6.4416050   -1.1423570   -1.0148460  
O     7.1373380   -1.7614500   -1.9797580  
C     4.9653010   -1.4371840   -1.0410120  
O     4.5466700   -2.1194860   -1.9690030  
C     4.0623780   -0.8416340   -0.0023440  
H     3.1400430    0.8179940    2.3958290  
H     8.0439300   -0.0570280   -0.1059560  
H     6.4779560   -2.2801550   -2.4909870  
H     5.3026830    2.0668460    3.3801220  
