60


C    -2.0053780    1.6094450    0.1095960  
C    -0.6575120    1.4401340    0.4398240  
C     0.1058170    2.3475090   -0.3358240  
C    -0.8221370    3.1042560   -1.1116240  
N    -2.0785300    2.6066260   -0.8632360  
C    -0.4392360    4.1662220   -1.9319150  
C     0.9119630    4.4761160   -1.9528340  
O     1.3594260    5.5049220   -2.7046870  
C     1.8714280    3.7306710   -1.1974330  
O     3.1553260    4.1761050   -1.3779480  
C     1.5092200    2.6337480   -0.4185160  
H    -0.2921770    0.7244560    1.1562060  
H    -2.9374570    3.0727060   -1.1143840  
H    -1.1414200    4.7516060   -2.5155710  
H     2.3232490    5.5554560   -2.5467850  
H     3.5981400    4.1546620   -0.4985720  
C     2.1037400   -1.7981710   -0.0878320  
C     1.6577220   -0.5574380   -0.4756760  
C     2.4506350    0.3998320    0.2480210  
C     3.3662520   -0.4453970    1.0763030  
N     3.1686670   -1.7135210    0.8887760  
C     4.3329670    0.1386610    1.9713270  
C     4.4305250    1.4858690    1.9818370  
O     5.3134530    2.1670260    2.7311700  
C     3.5694120    2.3531980    1.1043270  
O     3.8334610    3.5686090    1.1290970  
C     2.4879110    1.7723480    0.2833230  
H     0.9251810   -0.3313060   -1.2341790  
H     4.9700640   -0.4950880    2.5773290  
H     5.1848030    3.1124990    2.5031220  
C    -1.9171510   -3.3092900   -1.2413610  
C    -0.8694680   -2.5230760   -0.8584820  
C     0.3074810   -3.3518590   -0.8306520  
C    -0.1439070   -4.7078870   -1.2167220  
N    -1.4985500   -4.6053400   -1.4772980  
C     0.6403280   -5.8161360   -1.2543320  
C     2.0439290   -5.6748470   -0.8875730  
O     2.8108190   -6.6212340   -0.8116720  
C     2.5916080   -4.2319910   -0.6054630  
O     3.7965390   -4.0816480   -0.5587920  
C     1.6270530   -3.0988740   -0.4951320  
H    -0.9296420   -1.4762610   -0.6064390  
H     0.2684810   -6.8037710   -1.5097340  
H    -2.9583380   -3.0435100   -1.3685780  
H    -2.0996370   -5.3812580   -1.7082240  
C    -6.2127330    1.0726910   -1.3875300  
C    -4.8946910    1.4125860   -1.3523290  
C    -4.4007170    0.9117160   -0.0746200  
C    -5.5892500    0.2783330    0.5310450  
N    -6.6499570    0.3818840   -0.2332480  
C    -5.5413620   -0.3867000    1.8088320  
C    -4.3517560   -0.4480400    2.4467420  
O    -4.1605810   -1.0676200    3.6281600  
C    -3.1151770    0.1777030    1.8768840  
O    -2.0828190    0.0537980    2.5337710  
C    -3.1819680    0.9237420    0.5678820  
H    -4.3281140    1.8791390   -2.1457360  
H    -6.4395760   -0.8350290    2.2192680  
H    -3.2107220   -0.9406990    3.8390850  
H    -6.9225230    1.2587520   -2.1851180  
