62


C    -2.5630730   -0.7921690   -0.1018110  
C    -3.8701950   -0.3417790   -0.1678690  
C    -3.7888990    1.0899060   -0.4159670  
C    -2.4152430    1.4240290   -0.4691360  
N    -1.6778240    0.2468140   -0.2763260  
C    -1.9526720    2.7220270   -0.7096900  
C    -2.9026460    3.7207950   -0.8609130  
O    -2.5085090    5.0022190   -1.0968020  
C    -4.2848320    3.4131890   -0.7780980  
O    -5.1094550    4.5057610   -0.9453400  
C    -4.7329640    2.1232420   -0.5627680  
H    -0.9004580    2.9678160   -0.7887380  
H    -3.3134830    5.5413310   -1.1875990  
H    -6.0344590    4.2174300   -0.9495360  
H    -5.7959250    1.9098990   -0.5459780  
H    -2.1925530   -1.7963490    0.0399200  
C     0.4203760   -0.8196580   -1.0529200  
C    -0.2843780    0.0979060   -0.3427610  
C     0.7138020    0.8223930    0.4580510  
C     2.0050020    0.1991080    0.0612720  
N     1.8152350   -0.7544050   -0.8080700  
C     3.2835420    0.6487620    0.6293510  
C     3.1796410    1.6309640    1.5909320  
O     4.2597230    2.1584360    2.2331840  
C     1.9117250    2.2215420    2.0293960  
O     1.9357570    3.0987360    2.9060860  
C     0.6471440    1.7697520    1.4093350  
H     3.8749430    2.8241380    2.8484100  
H    -0.2715980    2.2398210    1.7463290  
H     0.0380090   -1.5547280   -1.7501100  
C     4.5346550    0.0720610    0.2024820  
C     4.7962240   -0.9111950   -0.7551010  
C     6.1972360   -1.1110800   -0.7929510  
C     6.7753540   -0.2234970    0.1650220  
N     5.7524620    0.4744270    0.7482140  
C     8.1554580   -0.1559200    0.3913410  
C     8.9645530   -0.9950920   -0.3578540  
O    10.3121820   -0.9734800   -0.1812610  
C     8.4048750   -1.8903910   -1.3206150  
O     9.3528060   -2.6512330   -1.9750200  
C     7.0481750   -1.9570260   -1.5436360  
H     4.0388270   -1.4101750   -1.3379470  
H     5.8290250    1.1841890    1.4624540  
H     8.6028650    0.5154730    1.1165070  
H    10.6965990   -1.6263020   -0.7924480  
H     8.9171140   -3.2361620   -2.6125590  
H     6.6398360   -2.6448810   -2.2809460  
C    -4.6920460   -3.8684880    2.4444470  
C    -4.1078850   -2.7569300    1.9314100  
C    -5.0268770   -2.2786690    0.9013080  
C    -6.1456770   -3.2498540    0.9512150  
N    -5.9454840   -4.1826910    1.8442520  
C    -7.3030030   -3.1284970    0.0995730  
C    -7.3507440   -2.0755720   -0.7452260  
O    -8.3790890   -1.8203280   -1.5783110  
C    -6.2394210   -1.0687510   -0.8221800  
O    -6.3885260   -0.1437180   -1.6204060  
C    -5.0116570   -1.2255310    0.0280990  
H    -3.1834750   -2.2914720    2.2410240  
H    -8.1025300   -3.8585250    0.1609580  
H    -8.1201640   -1.0089600   -2.0659380  
H    -4.3257060   -4.5061560    3.2402240  
