60


C    -1.4875490   -1.2711090   -1.5554140  
C    -0.7108440   -0.4549080   -0.7575310  
C    -1.6358210    0.2912550    0.0718960  
C    -2.9437980   -0.1273450   -0.2754540  
N    -2.8196290   -1.0692770   -1.2769290  
C    -4.1113100    0.4279180    0.2962980  
C    -3.9145570    1.4150450    1.2668840  
O    -4.9849360    1.9387150    1.9198740  
C    -2.6111550    1.8496970    1.6161960  
O    -2.6008100    2.8354320    2.5816230  
C    -1.4812100    1.3139760    1.0280540  
H    -3.5830390   -1.6060800   -1.6603430  
H    -4.6539100    2.6436810    2.5037750  
H    -1.6904000    3.1194700    2.7515700  
H    -0.4948780    1.6814740    1.2998410  
H    -1.1790420   -2.0071570   -2.2840170  
C     1.5681340   -0.3938180   -1.8784070  
C     0.7407730   -0.3728430   -0.7975970  
C     1.6690760   -0.3439190    0.3562120  
C     3.0256190   -0.3143950   -0.2589350  
N     2.9561950   -0.3680120   -1.5572290  
C     4.2337120   -0.2853280    0.5467110  
C     4.0702420   -0.3693790    1.8961080  
O     5.0872220   -0.3572690    2.7742840  
C     2.7182880   -0.4490060    2.5356710  
O     2.6663890   -0.5021940    3.7650860  
C     1.5085770   -0.4433160    1.6880270  
H     4.6630990   -0.4244620    3.6580920  
H     0.5485520   -0.5222920    2.1885810  
H     1.2792860   -0.4133460   -2.9225050  
C     6.0057230    2.8985010   -1.8969480  
C     7.2114280    2.3818800   -2.2254540  
C     7.2559430    1.0793120   -1.5676910  
C     5.9276690    0.9735090   -0.8799880  
N     5.2120560    2.0423810   -1.0628460  
C     5.5629210   -0.1920450   -0.0912150  
C     6.5081630   -1.1628800    0.0309060  
O     6.3294260   -2.2962660    0.7245440  
C     7.8528980   -1.0723010   -0.6401580  
O     8.6304770   -2.0116530   -0.4787520  
C     8.1836330    0.1099540   -1.4553030  
H     7.9906390    2.8246850   -2.8300040  
H     7.1703190   -2.7956550    0.6234330  
H     9.1669530    0.1376080   -1.9149390  
H     5.5910930    3.8574280   -2.1845620  
C    -6.3148350   -3.4614820   -0.0371410  
C    -5.3425490   -2.5522530    0.2221940  
C    -5.9185750   -1.2630100   -0.1526890  
C    -7.2920240   -1.6099000   -0.6248010  
N    -7.5161380   -2.8934880   -0.5576420  
C    -8.2200520   -0.6032480   -1.0709900  
C    -7.8022920    0.6824480   -1.0585060  
O    -8.5539670    1.7233100   -1.4525200  
C    -6.4079850    1.0663660   -0.6316810  
O    -6.0880590    2.2407530   -0.7745290  
C    -5.4645550    0.0179280   -0.1172080  
H    -4.3640760   -2.7234380    0.6479180  
H    -9.2131270   -0.8869340   -1.4011660  
H    -7.9687010    2.5090780   -1.3791490  
H    -6.2782300   -4.5337210    0.1168610  
