60


C    -1.7603580   -0.3968320    0.3432650  
C    -3.1027120   -0.6623730    0.1988700  
C    -3.2064910   -2.0733890   -0.1350950  
C    -1.8987010   -2.6040450   -0.1704120  
N    -1.0134190   -1.5556820    0.1407320  
C    -1.6333540   -3.9278790   -0.5368430  
C    -2.7201270   -4.7400430   -0.8352650  
O    -2.5108320   -6.0373670   -1.1842470  
C    -4.0407870   -4.2253660   -0.7952320  
O    -5.0078470   -5.1459870   -1.1298220  
C    -4.2907900   -2.9055430   -0.4605890  
H    -0.6324170   -4.3316790   -0.6263610  
H    -3.3778150   -6.4331380   -1.3810200  
H    -5.8811940   -4.7263240   -1.1247750  
H    -5.3058110   -2.5183030   -0.4764830  
H    -1.2590020    0.4997570    0.6740940  
C     0.3640510   -1.6011220    0.2401520  
C     1.2727830   -0.6091500   -0.0002440  
C     2.5707730   -1.1189180    0.3421960  
C     2.3569680   -2.5141490    0.7932390  
N     0.9954720   -2.7787690    0.6540930  
C     3.3261740   -3.3470800    1.2366480  
C     4.6985760   -2.8505280    1.2525170  
O     5.6454670   -3.5307360    1.6131500  
C     4.9633410   -1.3781600    0.7735790  
O     6.0993640   -0.9438990    0.8630180  
C     3.8262420   -0.5680890    0.2802250  
H     1.0549010    0.3699110   -0.3942310  
H     3.1414100   -4.3690030    1.5530690  
H     0.5208470   -3.4648100    1.2255530  
C     2.3004970    3.3674030    1.6054970  
C     3.0227430    4.2225970    0.8474040  
C     3.8547930    3.3707250    0.0043140  
C     3.4829610    1.9734570    0.4121900  
N     2.5728540    1.9845250    1.3436340  
C     4.1059330    0.8029610   -0.1880990  
C     5.0269580    1.0522020   -1.1649800  
O     5.6492970    0.0899430   -1.8550440  
C     5.4115800    2.4427230   -1.5929070  
O     6.2491970    2.5520520   -2.4863220  
C     4.7780130    3.6058120   -0.9461810  
H     3.0065970    5.3035220    0.8523640  
H     6.2679960    0.5556480   -2.4603570  
H     5.0890960    4.5920080   -1.2770080  
H     1.5661380    3.6085060    2.3651350  
C    -5.4728830    0.0496230    0.7885560  
C    -4.1875200    0.2760310    0.3864500  
C    -4.1357180    1.7427420    0.1781220  
C    -5.5030330    2.2139320    0.5323320  
N    -6.2733460    1.2181200    0.8781540  
C    -5.8653780    3.6037020    0.4553950  
C    -4.9271930    4.4832110    0.0261930  
O    -5.1294580    5.8073940   -0.0862810  
C    -3.5516680    4.0348190   -0.3679640  
O    -2.7512510    4.8867450   -0.7516900  
C    -3.2051830    2.5978950   -0.2825880  
H    -6.8659490    3.9183880    0.7306860  
H    -4.2836380    6.1738560   -0.4245930  
H    -2.2103640    2.3129760   -0.6104240  
H    -5.9161620   -0.8968250    1.0714970  
