58


C    -0.6730490    1.3016180    0.1661270  
C    -1.7507410    0.4310840    0.1232160  
C    -2.9482580    1.2044730    0.0633030  
C    -2.5181850    2.6234740    0.0501750  
N    -1.1441460    2.6110720    0.1321110  
C    -3.3612670    3.6830210   -0.0457800  
C    -4.7925620    3.4218970   -0.1446040  
O    -5.6249550    4.3057640   -0.2729120  
C    -5.2851380    1.9335450   -0.0706120  
O    -6.4837450    1.7172910   -0.0036150  
C    -4.2788430    0.8501440   -0.0190980  
H    -1.7005390   -0.6433890    0.0784390  
H    -3.0217250    4.7135220   -0.0742870  
H    -0.5123310    3.3971750    0.0374030  
C     1.6606820   -2.3017950    1.3789610  
C     0.6661640   -1.3928870    1.1575430  
C     1.2677460   -0.2211050    0.5793610  
C     2.7103210   -0.5172480    0.4831160  
N     2.8761370   -1.8197280    0.9347760  
C     3.6864940    0.3363030    0.0468490  
C     3.2205250    1.6728240   -0.3807400  
O     3.9350610    2.4703200   -0.9553420  
C     1.7206210    2.0604790   -0.1532290  
O     1.4307240    3.2425210   -0.2921640  
C     0.7443570    1.0095580    0.1957920  
H    -0.3698180   -1.5306680    1.4232430  
H     1.5972080   -3.2841820    1.8280790  
H     3.7752960   -2.2135810    1.1709350  
C     5.8538550   -2.8972860   -2.0676710  
C     7.1235520   -2.5690670   -1.7257710  
C     7.0535930   -1.3985860   -0.8734510  
C     5.6132000   -1.0712090   -0.7403590  
N     4.9360340   -2.0375830   -1.4581900  
C     5.1116520    0.0016460   -0.0516890  
C     6.0950980    0.8574040    0.6542390  
O     5.7590560    1.7595760    1.3987610  
C     7.6241620    0.5407980    0.4926020  
O     8.4348440    1.2805650    1.0238120  
C     8.0132580   -0.6387630   -0.2828090  
H     8.0248560   -3.0787060   -2.0335690  
H     9.0733250   -0.8518550   -0.3800940  
H     5.4956560   -3.6988150   -2.6999460  
H     3.9596000   -1.9738540   -1.7048860  
C    -3.6875280   -2.7512740    2.6028070  
C    -3.6010610   -1.4867100    2.1178700  
C    -4.4085940   -1.4895530    0.9023750  
C    -4.9278900   -2.8867760    0.8235960  
N    -4.4967740   -3.6203660    1.8144850  
C    -5.8170170   -3.3110060   -0.2260850  
C    -6.1732370   -2.3952610   -1.1555800  
O    -6.9866040   -2.6509030   -2.1921290  
C    -5.6306320   -0.9896010   -1.1386500  
O    -5.8899590   -0.2818080   -2.1046780  
C    -4.7441610   -0.5398610   -0.0135980  
H    -3.0814820   -0.6413380    2.5452530  
H    -6.1817530   -4.3318790   -0.2501390  
H    -7.0192080   -1.8171710   -2.7111830  
H    -3.2359200   -3.1473150    3.5053860  
