58


C     0.1051630    2.8647330   -0.0260410  
C    -0.5331810    4.0771860    0.0158670  
C    -1.9329390    3.7795370    0.1929390  
C    -1.9956210    2.2832490    0.2349570  
N    -0.8159640    1.7651430    0.1013900  
C    -3.2603370    1.5476830    0.3968990  
C    -4.3653380    2.3477390    0.5446760  
O    -5.6109740    1.8791180    0.7636390  
C    -4.3236110    3.8394940    0.5076970  
O    -5.3917620    4.4424270    0.6588390  
C    -3.0453650    4.5346240    0.3140790  
H    -0.0952650    5.0628590   -0.0600220  
H    -6.1687500    2.6888700    0.8373070  
H    -3.0622540    5.6198070    0.2889320  
C     1.5137760    2.5976050   -0.1674200  
C     2.5315370    3.5075360   -0.3121660  
C     3.7423330    2.7273370   -0.4002570  
C     3.2720970    1.3077950   -0.2993130  
N     1.9845890    1.2373490   -0.1551740  
C     4.1968630    0.1885490   -0.3430680  
C     5.5165890    0.4971230   -0.4613190  
O     6.4899640   -0.4175790   -0.5400350  
C     6.0155240    1.9171540   -0.5493550  
O     7.2304220    2.0831610   -0.6568300  
C     5.0553870    3.0288140   -0.5135550  
H     2.4606620    4.5859770   -0.3460750  
H     7.3255850    0.0968620   -0.6051440  
H     5.4547120    4.0364050   -0.5757210  
C    -2.1830830   -0.7121070    0.7259260  
C    -3.2563020    0.0919070    0.4221740  
C    -4.3356370   -0.8727270    0.0945640  
C    -3.6971330   -2.2085720    0.2977390  
N    -2.4509550   -2.0962260    0.6727990  
C    -4.4015300   -3.4421760    0.0781800  
C    -5.6795560   -3.3720300   -0.3640670  
O    -6.4546920   -4.4359760   -0.6233250  
C    -6.3419210   -2.0478900   -0.6184630  
O    -7.5002790   -2.0600430   -1.0322520  
C    -5.5993090   -0.7948040   -0.3674550  
H    -3.8978500   -4.3865000    0.2521110  
H    -7.3111690   -4.0637800   -0.9301020  
H    -6.1294070    0.1309310   -0.5460350  
H    -1.1857060   -0.3826480    0.9766910  
C     4.8409650   -2.8447370    2.7606280  
C     4.1259900   -3.8957180    2.2989760  
C     3.5489550   -3.4366340    1.0390090  
C     4.0549760   -2.0321950    0.8987190  
N     4.7997720   -1.6916110    1.9082120  
C     3.7010200   -1.2003070   -0.2379930  
C     2.8777540   -1.7566910   -1.1668430  
O     2.4828770   -1.1307960   -2.2827740  
C     2.3532480   -3.1643540   -1.0447090  
O     1.6273620   -3.5763120   -1.9470280  
C     2.7294970   -3.9834910    0.1211180  
H     3.9913600   -4.8681170    2.7518040  
H     1.8885570   -1.7668740   -2.7401750  
H     2.3201830   -4.9875280    0.1761840  
H     5.4190540   -2.7826540    3.6750600  
