60


C     0.5854230    1.4990580   -0.4878980  
C    -0.7715490    1.2759790   -0.3902540  
C    -0.9646320   -0.1196690   -0.1826830  
C     0.3893550   -0.7230030   -0.1854520  
N     1.2822880    0.3070140   -0.4149530  
C     0.6649830   -2.0598660   -0.0271630  
C    -0.4957490   -2.8526450    0.4684200  
O    -0.3593650   -3.9042440    1.0650610  
C    -1.9402950   -2.3113380    0.2458270  
O    -2.8400090   -3.1312870    0.2180260  
C    -2.1217080   -0.8651120    0.0158050  
H    -1.5351650    2.0365620   -0.3842060  
H     2.2739940    0.1742980   -0.1885700  
C    -3.4486050   -0.2999280   -0.0388820  
C    -3.9067040    0.7681430   -0.7783820  
C    -5.2982020    0.9149800   -0.4454280  
C    -5.5454020   -0.1608050    0.5697270  
N    -4.4803920   -0.8666330    0.7998270  
C    -6.8395400   -0.3309600    1.1827620  
C    -7.8339980    0.4977410    0.7890320  
O    -9.0894220    0.4534370    1.2610600  
C    -7.6185000    1.5791100   -0.2460860  
O    -8.5923710    2.2821510   -0.5295640  
C    -6.2946540    1.7467410   -0.8426460  
H    -3.3673720    1.3300230   -1.5271130  
H    -6.9920200   -1.1108160    1.9204350  
H    -9.5621420    1.1729690    0.7836370  
H    -6.1738590    2.5415270   -1.5724950  
C     4.9293050   -0.9550260    0.9010760  
C     5.5417700   -2.1431350    0.7105330  
C     4.5045370   -3.0444110    0.2283280  
C     3.2529960   -2.2115780    0.2205410  
N     3.5286590   -0.9924910    0.5970970  
C     1.9574800   -2.7482240   -0.1746470  
C     2.0036690   -4.0163880   -0.7065220  
O     0.9514380   -4.6181380   -1.2591130  
C     3.2474640   -4.8613010   -0.7351630  
O     3.1557050   -5.9904270   -1.2133530  
C     4.5103730   -4.3142800   -0.2159910  
H     6.5838790   -2.3885560    0.8589900  
H     1.2544470   -5.5214430   -1.5052250  
H     5.3875740   -4.9527610   -0.2495370  
H     5.3565690   -0.0178950    1.2382130  
C     0.6619020    3.7678220   -1.4097170  
C     1.5374150    4.8073100   -1.4606610  
C     2.7155950    4.4198880   -0.7278740  
C     2.4981440    3.1076010   -0.2449320  
N     1.2266670    2.7048430   -0.6865460  
C     3.4163090    2.4543040    0.5823200  
C     4.6027520    3.1152400    0.8676070  
O     5.5391220    2.5011610    1.6510480  
C     4.8537120    4.4147540    0.3636520  
O     6.0750490    4.9334550    0.7359710  
C     3.9197300    5.0746180   -0.4175600  
H     1.3735580    5.7450640   -1.9735940  
H     3.2420840    1.4800890    1.0209410  
H     6.2836430    3.1189050    1.7564210  
H     6.1681720    5.8351970    0.3942290  
H     4.1139670    6.0831770   -0.7759390  
H    -0.3093220    3.6419500   -1.8633620  
