60


C     2.1832770   -0.8419280    0.1206260  
C     1.2286030    0.1288910    0.2613320  
C     1.9380570    1.3923170    0.3532180  
C     3.3218420    1.1117950    0.2843780  
N     3.4636730   -0.2829050    0.1507280  
C     4.2864630    2.1236160    0.2866620  
C     3.8473570    3.4339310    0.4066160  
O     4.7551650    4.4496750    0.4182560  
C     2.4648180    3.7274280    0.5187770  
O     2.1853080    5.0704500    0.6461110  
C     1.5117090    2.7246770    0.4962560  
H     5.3489540    1.9314460    0.2212530  
H     4.2585950    5.2826170    0.4964280  
H     1.2263030    5.2089120    0.6363740  
H     0.4553830    2.9671040    0.5739980  
H     2.0702130   -1.9114250    0.0269360  
C    -0.8203510   -1.0482160    1.1494830  
C    -0.2099620   -0.1101050    0.3658580  
C    -1.2814660    0.5730040   -0.3498120  
C    -2.5483550   -0.0731400    0.0822210  
N    -2.1937590   -1.0787500    0.9581620  
C    -3.7989010    0.2712260   -0.3670550  
C    -3.8534300    1.5071330   -1.1924320  
O    -4.8854390    2.1195790   -1.4006270  
C    -2.5219900    2.0894730   -1.7831970  
O    -2.5952710    2.9715790   -2.6251050  
C    -1.2583870    1.5668320   -1.2783540  
H    -0.3367610    1.9922160   -1.6613450  
H    -0.3611890   -1.7248700    1.8588900  
H    -2.8741830   -1.3655640    1.6680710  
C    -5.4682050   -1.5438960    3.3695530  
C    -6.7462170   -1.7767840    3.0003910  
C    -6.8124390   -1.4063110    1.5924210  
C    -5.4305720   -0.9119760    1.2668590  
N    -4.6561090   -1.0238010    2.3128490  
C    -5.0687270   -0.4083260   -0.0503610  
C    -6.0315570   -0.5809820   -1.0146620  
O    -5.8350830   -0.3151220   -2.3065950  
C    -7.4133630   -1.0992720   -0.7220830  
O    -8.1991290   -1.1866600   -1.6633210  
C    -7.7701370   -1.4915550    0.6519130  
H    -7.5557950   -2.1700100    3.5988920  
H    -6.6967600   -0.4823300   -2.7505380  
H    -8.7769840   -1.8584400    0.8249670  
H    -5.0097290   -1.7024020    4.3380150  
C     4.5971670   -3.5354670   -2.6213460  
C     3.8757470   -2.5451750   -2.0388740  
C     4.7320270   -2.0289270   -0.9755070  
C     5.9605020   -2.8565340   -1.0684410  
N     5.8789870   -3.7345220   -2.0318400  
C     7.0920530   -2.6564450   -0.1970350  
C     7.0113070   -1.6753990    0.7286120  
O     7.9934080   -1.3734370    1.5985970  
C     5.7829750   -0.8274610    0.8795510  
O     5.7598230   -0.0201960    1.8032310  
C     4.6265200   -1.0274520   -0.0583860  
H     2.8957140   -2.1842680   -2.3150910  
H     7.9723690   -3.2806590   -0.3018210  
H     7.6327140   -0.6628360    2.1707220  
H     4.3131540   -4.1564220   -3.4625080  
