60


C     2.1058240   -0.8444740   -1.4039270  
C     1.1200480    0.0884000   -1.2699600  
C     1.5588760    1.0493370   -0.2929700  
C     2.8588560    0.6528830    0.1153230  
N     3.1816300   -0.5200940   -0.5775340  
C     3.5975030    1.3530970    1.0689970  
C     3.0306270    2.5162030    1.5746980  
O     3.7129160    3.2599530    2.4862050  
C     1.7487310    2.9541470    1.1647570  
O     1.3297620    4.1143680    1.7812110  
C     0.9680490    2.2184440    0.2638580  
H     0.1846900    0.0909370   -1.8091240  
H     4.5859550    1.0548760    1.3914170  
H     3.1455720    4.0328760    2.6713750  
H     0.9601420    4.6940030    1.0811270  
H     2.1541790   -1.7271210   -2.0214100  
C    -2.9595980    0.0713250    0.1431260  
C    -1.6266920    0.3697940    0.3542020  
C    -1.4834940    1.7239270   -0.0582330  
C    -2.8627640    2.1244070   -0.5053620  
N    -3.7171460    1.1435130   -0.3852110  
C    -3.1598800    3.4398220   -0.9897770  
C    -2.1411540    4.3291680   -0.9775670  
O    -2.2546160    5.6009060   -1.3620200  
C    -0.7461830    3.9679330   -0.4806340  
O     0.0479350    4.9263290   -0.4507440  
C    -0.4185280    2.6045420   -0.0835680  
H    -0.8461350   -0.2596830    0.7489810  
H    -4.1583090    3.6984000   -1.3225030  
H    -1.3657350    5.9982640   -1.2090400  
C    -2.9279940   -2.2608020    0.8711070  
C    -3.7712550   -3.3024710    1.0374490  
C    -5.0958240   -2.8681070    0.6497120  
C    -4.9666420   -1.4525150    0.2293510  
N    -3.5978950   -1.1206440    0.3867310  
C    -6.0078240   -0.7036810   -0.2025270  
C    -7.3379070   -1.3273760   -0.2605710  
O    -8.3240860   -0.7181310   -0.6397530  
C    -7.4892490   -2.8233360    0.1793580  
O    -8.5873460   -3.3532590    0.1355410  
C    -6.2833660   -3.5237900    0.6294260  
H    -3.5026980   -4.2869650    1.3935330  
H    -5.8999490    0.3278500   -0.5068880  
H    -6.3836870   -4.5603210    0.9366040  
H    -1.8642560   -2.2091790    1.0483370  
C     3.6699340   -4.7893000   -0.0414010  
C     5.0151190   -4.9069250    0.0143910  
C     5.5247920   -3.5480670   -0.1491350  
C     4.2911620   -2.7147990   -0.2966170  
N     3.2156990   -3.4416080   -0.2324510  
C     4.3652270   -1.2697300   -0.4803780  
C     5.6131110   -0.7187690   -0.5488470  
O     5.8430820    0.5876350   -0.7640710  
C     6.8527770   -1.5372820   -0.3873500  
O     7.9346040   -0.9543260   -0.4653160  
C     6.7513460   -2.9968520   -0.1797020  
H     5.6059690   -5.8013570    0.1543750  
H     6.8220510    0.6809050   -0.7545990  
H     7.6806280   -3.5479700   -0.0730560  
H     2.9257930   -5.5723930    0.0383160  
