58


C    -1.6492140    0.4369230    1.0775650  
C    -1.5277210    1.6644170    0.5074370  
C    -2.5821650    1.7616580   -0.5096630  
C    -3.2998340    0.4679280   -0.5137980  
N    -2.6914640   -0.2951240    0.4810080  
C    -4.3351540    0.1480570   -1.3257810  
C    -4.7877900    1.1560840   -2.2849020  
O    -5.7096600    0.9674100   -3.0612960  
C    -4.0420800    2.5397990   -2.3058200  
O    -4.3934450    3.3896390   -3.1054570  
C    -2.9359930    2.7558770   -1.3591140  
H    -4.8387710   -0.8125690   -1.3050870  
H    -2.4455620    3.7229590   -1.3661410  
H    -1.0798180   -0.0155430    1.8783180  
C    -4.1858020   -1.8564950    1.6546770  
C    -4.2063830   -3.1733980    1.9567910  
C    -3.0272300   -3.7813080    1.3645470  
C    -2.2997690   -2.6975970    0.6615850  
N    -3.0693130   -1.5560920    0.8449770  
C    -1.1054690   -2.8352860    0.0296030  
C    -0.4763900   -4.1447170    0.0568030  
O     0.6459310   -4.3742050   -0.3832430  
C    -1.2657100   -5.3389660    0.7073020  
O    -0.7883060   -6.4586110    0.6570820  
C    -2.5438760   -5.0488640    1.3714990  
H    -4.9607100   -3.6852970    2.5366680  
H    -0.5843330   -2.0169220   -0.4510580  
H    -3.0565480   -5.8735260    1.8567780  
H    -4.8697560   -1.0596800    1.9130570  
C     2.8181650    1.2857520    0.2263380  
C     3.1783720    2.5235320    0.7176560  
C     1.9756190    3.2556950    1.0112010  
C     0.8526710    2.3475240    0.6830400  
N     1.4213310    1.1905060    0.2280590  
C    -0.4771530    2.6497050    0.8119210  
C    -0.8096150    4.0042360    1.2698280  
O    -1.9580560    4.4071930    1.3747800  
C     0.3689880    4.9790550    1.6455380  
O     0.0934130    6.0945550    2.0576320  
C     1.7474480    4.5139190    1.4830620  
H     4.1808000    2.8780360    0.8932560  
H     2.5462240    5.2028810    1.7397020  
H     0.9406160    0.3569070   -0.0776450  
C     7.1430450    0.7384520   -0.8320680  
C     5.9621620    1.3353150   -0.5136530  
C     4.9866590    0.2650140   -0.4979230  
C     5.7937590   -0.9548700   -0.8575750  
N     7.0533130   -0.6660290   -1.0340410  
C     5.2005280   -2.2507470   -0.9795490  
C     3.8596600   -2.3687240   -0.8014730  
O     3.2231650   -3.5279050   -0.9358270  
C     3.0135320   -1.1674130   -0.4683680  
O     1.7965950   -1.3460460   -0.4131040  
C     3.6445660    0.1778310   -0.2321810  
H     5.7895750    2.3888640   -0.3613910  
H     5.8160920   -3.1067100   -1.2319160  
H     2.2523200   -3.4550400   -0.7648120  
H     8.1087480    1.2162370   -0.9514370  
