62


C    -1.2672630   -0.9782050   -1.0346700  
C    -2.5992000   -1.1853750   -0.8449380  
C    -3.1111130   -0.0866140   -0.0683310  
C    -2.0213910    0.7829970    0.1800250  
N    -0.8846710    0.2213010   -0.4254950  
C    -2.1449810    1.9575950    0.9275560  
C    -3.4203420    2.2919850    1.3599190  
O    -3.6195500    3.4387000    2.0585780  
C    -4.5410870    1.4638020    1.0907190  
O    -5.7184700    1.9538150    1.5942620  
C    -4.4068720    0.2401200    0.4212020  
H    -3.1579620   -2.0250430   -1.2277060  
H    -1.3101040    2.5988620    1.1816570  
H    -4.5812170    3.4757810    2.2291870  
H    -6.4109880    1.8427040    0.8895050  
H    -0.5368280   -1.5481230   -1.5885030  
C     0.4042280    0.7207200   -0.4607920  
C     1.5909660    0.0437920   -0.5150640  
C     2.6489700    1.0194230   -0.5991340  
C     1.9855560    2.3402440   -0.5779290  
N     0.6231230    2.1004620   -0.4594470  
C     2.6137010    3.5411140   -0.6545760  
C     4.0632080    3.5370520   -0.7122140  
O     4.7418310    4.5534000   -0.7467250  
C     4.8073320    2.1470420   -0.7048080  
O     6.0275330    2.1699000   -0.7517940  
C     4.0212700    0.8901760   -0.6645620  
H     1.7120650   -1.0232870   -0.4153700  
H     2.0921050    4.4929230   -0.6424820  
H    -0.0836010    2.7702320   -0.7275960  
C     4.2196240   -1.4741410   -1.5097440  
C     4.6939600   -0.4052410   -0.7665160  
C     5.9231160   -0.8686630   -0.1444780  
C     6.1112440   -2.2154500   -0.5426380  
N     5.0595380   -2.5515900   -1.3768160  
C     7.1865940   -3.0016600   -0.1112290  
C     8.1001470   -2.4125000    0.7474970  
O     9.1760010   -3.1221550    1.1954930  
C     7.9280320   -1.0661490    1.1638730  
O     8.9184440   -0.6156720    2.0177930  
C     6.8621800   -0.2984660    0.7375230  
H     4.9633990   -3.4275230   -1.8663070  
H     7.3263430   -4.0313960   -0.4242250  
H     9.7005900   -2.5194480    1.7510020  
H     8.8281150    0.3421330    2.1331450  
H     6.7739970    0.7372550    1.0469820  
H     3.3614500   -1.5218950   -2.1642370  
C    -8.5767720    0.9441980   -0.9007500  
C    -9.0496400   -0.3141740   -1.0357650  
C    -7.9659590   -1.1833240   -0.5934020  
C    -6.8494400   -0.2452870   -0.2452620  
N    -7.2333680    0.9919630   -0.4120720  
C    -5.5474600   -0.6902880    0.2279510  
C    -5.4637040   -2.0365920    0.4692580  
O    -4.3815650   -2.6374140    0.9820750  
C    -6.5783670   -3.0022060    0.1669020  
O    -6.3818770   -4.1906440    0.4172040  
C    -7.8463200   -2.5091490   -0.3980150  
H   -10.0253490   -0.6285320   -1.3783210  
H    -4.6191560   -3.5903810    1.0478240  
H    -8.6245400   -3.2387840   -0.5985430  
H    -9.0807350    1.8794670   -1.1099510  
