58


C     4.2785410    0.9104210   -0.2016840  
C     4.7877430    2.1757810   -0.0409640  
C     3.7025090    3.0631640    0.2656990  
C     2.4811600    2.2310170    0.2817610  
N     2.8961220    0.9288280    0.0612300  
C     1.1982480    2.6961460    0.4434210  
C     1.0720930    4.1562580    0.6582790  
O    -0.0036350    4.7141620    0.8029090  
C     2.3705900    5.0440730    0.7237810  
O     2.2357340    6.2405450    0.9330600  
C     3.6582270    4.4061420    0.5071880  
H     5.8329610    2.4458270   -0.0884760  
H     4.5458070    5.0306800    0.5157240  
H     2.2569230    0.2325100   -0.3020340  
C    -0.0335060    0.5310610    0.9140720  
C     0.0345990    1.8166700    0.4473900  
C    -1.3248860    2.0572320   -0.1034540  
C    -2.0458560    0.7749540    0.1315650  
N    -1.2837280   -0.0990500    0.7313890  
C    -3.4220760    0.5667980   -0.2820720  
C    -4.0290680    1.6112740   -0.9141180  
O    -5.3015940    1.5912500   -1.3275920  
C    -3.3216290    2.9079950   -1.1768360  
O    -3.9494170    3.7887590   -1.7605760  
C    -1.9238240    3.0857410   -0.7309960  
H    -5.4542310    2.4654510   -1.7514910  
H    -1.4644950    4.0502480   -0.9060280  
H     0.7401620   -0.0132160    1.4430730  
C    -4.4681120   -1.9656390    3.2714000  
C    -3.9614440   -0.9647800    2.5160210  
C    -4.2927380   -1.3202330    1.1396820  
C    -5.0298710   -2.6178280    1.2713390  
N    -5.1320770   -2.9873260    2.5147960  
C    -5.5571380   -3.3126120    0.1253410  
C    -5.3639920   -2.7529500   -1.0899350  
O    -5.7880380   -3.2913750   -2.2457200  
C    -4.6176310   -1.4563140   -1.2614800  
O    -4.4359300   -1.0633560   -2.4103690  
C    -4.1081540   -0.7229120   -0.0630390  
H    -3.4126730   -0.0932020    2.8394880  
H    -6.0857710   -4.2504950    0.2541380  
H    -5.4836410   -2.6739820   -2.9465380  
H    -4.4276770   -2.0722620    4.3489260  
C     6.1205100   -0.4406500   -1.2638290  
C     4.9524010   -0.3101620   -0.5575650  
C     4.5612540   -1.6994310   -0.2516300  
C     5.6411840   -2.5224880   -0.8790000  
N     6.5419830   -1.7690390   -1.4581590  
C     5.6442810   -3.9546860   -0.8040270  
C     4.6363930   -4.5558040   -0.1233530  
O     4.5160970   -5.8794680    0.0250870  
C     3.5491210   -3.7558480    0.5463300  
O     2.6780610   -4.3674500    1.1556810  
C     3.5690760   -2.2779810    0.4505230  
H     6.4397790   -4.5199100   -1.2763260  
H     3.7066330   -6.0209110    0.5637390  
H     2.7796400   -1.7467580    0.9724460  
H     6.7122280    0.3611390   -1.6901410  
