58


C    -1.7724570   -2.0419950   -1.8070210  
C    -0.8668410   -1.0968020   -1.4307030  
C    -1.5480750   -0.1588820   -0.5731820  
C    -2.9474800   -0.6253090   -0.4953920  
N    -3.0111320   -1.7778870   -1.2494010  
C    -3.9767090    0.0281380    0.1346590  
C    -3.6224110    1.2574330    0.8684740  
O    -4.4292850    1.8808720    1.5339300  
C    -2.1287140    1.7396550    0.8685690  
O    -1.8397210    2.6600370    1.6051120  
C    -1.1241300    1.0009160    0.0505520  
H     0.1631680   -1.0444660   -1.7440940  
H    -1.6413820   -2.9029910   -2.4487120  
H    -3.8431200   -2.3375340   -1.3640260  
C     0.2331900    1.4943270   -0.0258000  
C     1.4036830    0.7615710   -0.0826580  
C     2.4676260    1.7207550   -0.1297730  
C     1.7614340    3.0431010   -0.1053490  
N     0.4687350    2.9061810   -0.0427690  
C     2.4788900    4.2861140   -0.1339640  
C     3.8310680    4.2267160   -0.1467500  
O     4.6265410    5.3024180   -0.1712600  
C     4.5878750    2.9170900   -0.1741250  
O     5.8068700    2.9975750   -0.2835780  
C     3.8393290    1.6285710   -0.1384050  
H     1.5079580   -0.3089840    0.0067450  
H     1.9393900    5.2264480   -0.1285150  
H     5.5433290    4.9463140   -0.2111020  
C     4.5711590    0.3754210   -0.1443840  
C     4.2195160   -0.7975160   -0.7620070  
C     5.2735260   -1.7364290   -0.4514270  
C     6.2163020   -0.9534090    0.4106800  
N     5.8131210    0.2699450    0.5814840  
C     7.4089920   -1.5513100    0.9556450  
C     7.6635280   -2.8442390    0.6454940  
O     8.7357200   -3.5257520    1.0733380  
C     6.7392770   -3.6534790   -0.2332850  
O     7.0522200   -4.8222480   -0.4587760  
C     5.5217780   -3.0278680   -0.7687130  
H     3.3709430   -0.9723590   -1.4076030  
H     8.0720500   -0.9655650    1.5822880  
H     8.6439880   -4.4253260    0.6872010  
H     4.8785680   -3.6442380   -1.3894110  
C    -6.1710020   -3.7823290    1.0737510  
C    -5.1639260   -2.8845710    0.9157710  
C    -5.8124970   -1.6688080    0.4388650  
C    -7.2619530   -2.0375000    0.3787820  
N    -7.4598670   -3.2744420    0.7455250  
C    -8.2711810   -1.0946560   -0.0213960  
C    -7.8687180    0.1527190   -0.3579100  
O    -8.6976930    1.1260210   -0.7600830  
C    -6.4136410    0.5463430   -0.3664670  
O    -6.1339810    1.6409480   -0.8385040  
C    -5.3722140   -0.4227700    0.1128240  
H    -4.1152060   -3.0176100    1.1408590  
H    -9.3134900   -1.3922490   -0.0453150  
H    -8.1235600    1.8917260   -0.9816950  
H    -6.0953270   -4.8047060    1.4259420  
