62


C     1.3234740   -0.0294920   -2.2265550  
C     2.6529210    0.2547120   -2.0787190  
C     2.9349310    0.2557100   -0.6707310  
C     1.7197030   -0.0497610   -0.0065210  
N     0.7358870   -0.2162130   -0.9779040  
C     1.6194980   -0.1818780    1.3814960  
C     2.7773240    0.0183830    2.1195260  
O     2.7360650   -0.0700480    3.4789720  
C     4.0017800    0.3279410    1.4800220  
O     5.0563130    0.5128930    2.3609760  
C     4.1200600    0.4443730    0.0928660  
H     3.3512920    0.4393400   -2.8820100  
H     0.6887840   -0.4130990    1.8868110  
H     3.6217210    0.1678580    3.8056890  
H     5.7230620    1.0818950    1.9453770  
H     0.7146400   -0.1022750   -3.1164400  
C    -1.2480410   -1.6839310   -1.1256510  
C    -0.6157700   -0.5341850   -0.7497790  
C    -1.6044780    0.3233040   -0.1156700  
C    -2.8674520   -0.4362230   -0.1447110  
N    -2.5754270   -1.6573800   -0.7431160  
C    -4.0804740    0.0039630    0.3172000  
C    -4.0817530    1.3802550    0.8684790  
O    -5.0856960    1.9216350    1.3007850  
C    -2.7330760    2.2019560    0.9129900  
O    -2.7730770    3.3388190    1.3589360  
C    -1.5202910    1.5793410    0.4037520  
H    -0.5935150    2.1420060    0.4359660  
H    -0.8356300   -2.5430140   -1.6378810  
H    -3.2954680   -2.2829060   -1.0759050  
C    -5.3060590   -2.1854050    0.5886500  
C    -5.2862640   -0.8265310    0.3078910  
C    -6.6563960   -0.4627270   -0.0050200  
C    -7.4341770   -1.6427030    0.0949270  
N    -6.5841650   -2.6712080    0.4597860  
C    -8.8101450   -1.6788890   -0.1638650  
C    -9.4184030   -0.4899260   -0.5307630  
O   -10.7566860   -0.4567250   -0.7848210  
C    -8.6559790    0.7044770   -0.6400670  
O    -9.4013860    1.8066980   -1.0113070  
C    -7.2986110    0.7313460   -0.3898870  
H    -6.8721550   -3.6119670    0.6803280  
H    -9.4017640   -2.5848250   -0.0813010  
H   -10.9859590    0.4672740   -0.9871790  
H    -8.8636410    2.6067720   -0.9125730  
H    -6.7475180    1.6635610   -0.4494390  
H    -4.5079390   -2.8236000    0.9417770  
C     5.6456310    1.6327330   -1.5688430  
C     5.4024500    0.7592550   -0.5491110  
C     6.7195420    0.1189030   -0.3162080  
C     7.6270070    0.7708490   -1.3063860  
N     6.9921040    1.6536520   -2.0262030  
C     9.0188650    0.4168780   -1.4040850  
C     9.4856180   -0.5564520   -0.5855080  
O    10.7569510   -0.9908240   -0.5752820  
C     8.5912720   -1.2489300    0.4036080  
O     9.0864790   -2.1235280    1.1122380  
C     7.1675720   -0.8560830    0.4987960  
H     9.6541880    0.9166840   -2.1269510  
H    10.7880480   -1.6916030    0.1123520  
H     6.5592360   -1.3695730    1.2359810  
H     4.9304290    2.2965890   -2.0392560  
