60


C     0.8375950   -0.7543020   -0.1745930  
C     0.3304890    0.5184180    0.0420940  
C     1.4875040    1.3745220    0.2391310  
C     2.6343450    0.5541110    0.1603480  
N     2.2039000   -0.7331230   -0.0949210  
C     3.9664440    1.0290500    0.2810540  
C     4.0977690    2.4131250    0.5017860  
O     5.3116250    2.9748550    0.6840170  
C     2.9484810    3.2420870    0.6022630  
O     3.2512100    4.5675320    0.8425840  
C     1.6654000    2.7505110    0.4855220  
H     2.8230710   -1.4911500   -0.3442780  
H     5.1697550    3.9337470    0.7874710  
H     2.4581270    5.1104950    0.7194620  
H     0.8149600    3.4202550    0.5440080  
H     0.3133600   -1.6649240   -0.4252030  
C    -3.1814600   -1.6600620    1.6403490  
C    -1.9291770   -1.2335350    1.3490360  
C    -2.0452370   -0.0020480    0.5947970  
C    -3.4934300    0.2719680    0.4913590  
N    -4.1493650   -0.7942700    1.1087640  
C    -4.0411640    1.3900550   -0.0579560  
C    -3.1401320    2.3815110   -0.6118100  
O    -3.5111390    3.4419180   -1.0940610  
C    -1.5935700    2.0878490   -0.5787200  
O    -0.8531120    2.9136850   -1.0849540  
C    -1.0943720    0.8370490    0.0572170  
H    -1.0107770   -1.7165090    1.6444800  
H    -5.1062020    1.5896110   -0.0762870  
H    -3.5100520   -2.5358860    2.1827600  
C    -6.1839850   -1.2509010    2.4486160  
C    -5.5302510   -0.9396950    1.2975200  
C    -6.5664220   -0.9556560    0.2472790  
C    -7.8135210   -1.2784440    1.0006210  
N    -7.5781880   -1.4510350    2.2732880  
C    -9.0856500   -1.3763630    0.3369850  
C    -9.1147180   -1.2167950   -1.0087300  
O   -10.2288440   -1.2977580   -1.7522090  
C    -7.8666080   -0.9360750   -1.7978420  
O    -7.9688370   -0.8121760   -3.0158290  
C    -6.5719820   -0.8068700   -1.0898600  
H    -9.9797290   -1.5913280    0.9115790  
H    -9.9425330   -1.1407780   -2.6784650  
H    -5.6986490   -0.5766230   -1.6916860  
H    -5.7565390   -1.3594990    3.4383300  
C     5.1028710    0.1313940    0.1711800  
C     5.1789320   -1.1881000    0.5552590  
C     6.4991590   -1.6330760    0.1873150  
C     7.1202000   -0.4285920   -0.4576140  
N     6.3154190    0.5918380   -0.4579720  
C     8.4569340   -0.4677220   -0.9942800  
C     9.1472220   -1.6252940   -0.8723200  
O    10.3992940   -1.8104430   -1.3132620  
C     8.5537940   -2.8503120   -0.2088230  
O     9.2685700   -3.8531840   -0.1519690  
C     7.1891540   -2.7933240    0.3141330  
H     4.4549610   -1.7513090    1.1284120  
H     8.8795810    0.4128360   -1.4649230  
H    10.6159410   -2.7414220   -1.0772470  
H     6.7945310   -3.6937150    0.7750330  
