58


C    -2.3787880   -0.9152820   -0.2286620  
C    -1.4957250    0.0694020   -0.5469440  
C    -2.2801720    1.2869610   -0.7295670  
C    -3.6959000    0.9112270   -0.4970900  
N    -3.6986150   -0.4419950   -0.1678560  
C    -4.7429690    1.7684680   -0.6386930  
C    -4.4676460    3.1556900   -1.0126960  
O    -5.3489310    3.9887810   -1.1533330  
C    -2.9736920    3.5760370   -1.2411270  
O    -2.7199580    4.7298620   -1.5432670  
C    -1.9353120    2.5485650   -1.0915830  
H    -5.7806430    1.4687000   -0.5452590  
H    -0.9093740    2.8398220   -1.2920770  
H    -2.1844650   -1.9558000   -0.0179910  
C    -7.0632240    0.1500710    2.5759560  
C    -7.7473610   -0.9880650    2.3029080  
C    -6.9830130   -1.7293260    1.3207050  
C    -5.7823160   -0.9051760    1.0368930  
N    -5.8730710    0.2030380    1.8465590  
C    -4.8154140   -1.2505020    0.1301380  
C    -4.9451640   -2.5482610   -0.5503420  
O    -4.1050040   -2.9695380   -1.3297330  
C    -6.2075100   -3.4342130   -0.2367130  
O    -6.3058030   -4.5102080   -0.8025160  
C    -7.1875310   -2.9336960    0.7225380  
H    -8.6838680   -1.2973200    2.7431120  
H    -8.0562150   -3.5508740    0.9276450  
H    -7.3072050    0.9559040    3.2550680  
H    -5.2824670    1.0180710    1.7659650  
C     0.5581120   -1.0386860   -1.5010030  
C    -0.0535510   -0.0964390   -0.7239360  
C     1.0148330    0.6602730   -0.0787940  
C     2.2870190    0.0847590   -0.5620400  
N     1.9370150   -0.9235750   -1.4378820  
C     3.5477740    0.4786440   -0.1749580  
C     3.5928590    1.5594980    0.8353940  
O     4.6341510    2.0023250    1.2915730  
C     2.2447950    2.1847270    1.3586820  
O     2.3085950    3.0648960    2.2017740  
C     0.9862020    1.6718780    0.8316740  
H     0.0641230    2.1047020    1.2044250  
H     0.1033110   -1.7903890   -2.1328260  
H     2.5974240   -1.5822500   -1.8241050  
C     4.9478950   -0.5448580   -2.0212730  
C     4.7616700   -0.0981500   -0.7376390  
C     6.0575710   -0.3991410   -0.0759330  
C     6.8707960   -1.0407670   -1.1471630  
N     6.2150030   -1.1086070   -2.2768180  
C     8.2115540   -1.5059500   -0.9163010  
C     8.7273610   -1.3597050    0.3277670  
O     9.9580240   -1.7533600    0.6885960  
C     7.9304340   -0.7294040    1.4343700  
O     8.4570500   -0.6407850    2.5411870  
C     6.5579520   -0.2416090    1.1638530  
H     8.7712130   -1.9617600   -1.7254390  
H    10.0411390   -1.5167080    1.6386350  
H     6.0380860    0.2459800    1.9789010  
H     4.2524120   -0.4576910   -2.8488610  
