58


C     2.9017970   -0.3260190   -0.4477500  
C     1.8260780   -1.0040580    0.0626400  
C     1.7401960   -2.2746320   -0.6092570  
C     2.8658140   -2.3070530   -1.5688350  
N     3.5671830   -1.1190980   -1.3943980  
C     3.1420450   -3.3303500   -2.4142940  
C     2.2903890   -4.5127020   -2.3633210  
O     2.4756460   -5.5004670   -3.0550800  
C     1.0761100   -4.5071640   -1.3692590  
O     0.2745940   -5.4201680   -1.4248940  
C     0.8887750   -3.3424880   -0.4557240  
H     1.1987520   -0.6674080    0.8742900  
H     3.9859350   -3.3313810   -3.0971110  
H     4.1470660   -0.7230270   -2.1216540  
C     3.4147460    0.9746150   -0.0947100  
C     2.7628170    2.0449640    0.4560340  
C     3.7138950    3.1171940    0.6015890  
C     5.0044900    2.5935780    0.0936120  
N     4.7523380    1.3072870   -0.3787050  
C     6.1695970    3.2825480    0.1131310  
C     6.1588790    4.6507330    0.6357700  
O     7.1594370    5.3467770    0.6869170  
C     4.7913120    5.2427040    1.1360660  
O     4.7604480    6.3873340    1.5595080  
C     3.6036760    4.3863670    1.0816100  
H     1.7079270    2.0916480    0.6858600  
H     7.1103300    2.8817630   -0.2517120  
H     2.6682360    4.7969270    1.4492320  
H     5.4773820    0.6016360   -0.3959500  
C    -2.7076380   -0.7736020    0.3188600  
C    -1.5374130   -1.3078360   -0.1775250  
C    -1.2277770   -2.4758390    0.5952020  
C    -2.3185640   -2.6097510    1.5953160  
N    -3.1603570   -1.5413850    1.3849080  
C    -2.4276860   -3.6216010    2.4947180  
C    -1.4100160   -4.6623980    2.4913210  
O    -1.4365070   -5.6305480    3.2346280  
C    -0.2095340   -4.5206040    1.4908720  
O     0.7257670   -5.2942090    1.5858030  
C    -0.2095970   -3.3993370    0.5114180  
H    -0.9691770   -0.9217760   -1.0102380  
H    -3.2496980   -3.7054370    3.1984270  
H    -4.0274610   -1.3379830    1.8620290  
C    -3.4716270    0.3749340   -0.0890120  
C    -3.2469230    1.2657580   -1.1041140  
C    -4.3458590    2.2001970   -1.0422060  
C    -5.1808280    1.7202180    0.1097970  
N    -4.6654710    0.6581150    0.6590860  
C    -6.3872930    2.3973340    0.5020550  
C    -6.7509120    3.4919000   -0.2086550  
O    -7.8436630    4.2192290    0.0402410  
C    -5.9311330    4.0009580   -1.3766940  
O    -6.3444620    5.0020860   -1.9578620  
C    -4.7021900    3.2929230   -1.7580270  
H    -2.4317240    1.2753300   -1.8139070  
H    -6.9732280    2.0315290    1.3376270  
H    -7.8429120    4.9387830   -0.6308110  
H    -4.1411220    3.6857470   -2.6001730  
