60


C    -0.8085760   -1.7827130   -0.3300190  
C     0.5617610   -1.9100900   -0.4495190  
C     1.0775390   -0.5773590   -0.4859970  
C    -0.1286330    0.2939010   -0.3663890  
N    -1.2198640   -0.4087140   -0.2874150  
C    -0.0476850    1.7444420   -0.3487940  
C     1.1947430    2.2742650   -0.4889720  
O     1.4471470    3.5885390   -0.4907490  
C     2.4396560    1.4325670   -0.6431320  
O     3.4937140    2.0427750   -0.8166400  
C     2.3347850   -0.0413460   -0.6052780  
H     1.1363950   -2.8240520   -0.4842130  
H     2.4175410    3.6639640   -0.6383560  
C    -1.6659880   -4.1687330   -0.2889520  
C    -1.8079220   -2.7979940   -0.2418000  
C    -3.2657360   -2.6015300   -0.0754250  
C    -3.8163180   -3.9796870   -0.0476450  
N    -2.8648950   -4.8801380   -0.1734950  
C    -5.2185640   -4.2351580    0.1026160  
C    -6.0435270   -3.1637390    0.2230770  
O    -7.3738180   -3.2494390    0.3692780  
C    -5.5157340   -1.7546860    0.2022560  
O    -6.3301930   -0.8402690    0.3188980  
C    -4.0627150   -1.5233850    0.0463180  
H    -5.5889790   -5.2541360    0.1180870  
H    -7.6889590   -2.3200460    0.4291020  
H    -3.6913840   -0.5054620    0.0372980  
H    -0.7426360   -4.7243100   -0.4057920  
C    -2.8621450    2.1385770    3.0034740  
C    -3.7607010    3.0304610    2.5286630  
C    -3.2864870    3.3690600    1.1899090  
C    -2.0511860    2.5357470    1.0199280  
N    -1.8041980    1.8313790    2.0836110  
C    -1.2558260    2.5817490   -0.1964900  
C    -1.6679350    3.4523340   -1.1577260  
O    -1.0415900    3.6183040   -2.3316510  
C    -2.8997290    4.3047270   -1.0055980  
O    -3.1930630    5.0472150   -1.9412600  
C    -3.6984510    4.2185380    0.2298400  
H    -4.6378580    3.4277130    3.0200350  
H    -1.5674450    4.2969320   -2.8110570  
H    -4.5750950    4.8551690    0.3009930  
H    -2.8545920    1.6501310    3.9706460  
C     3.5263970   -1.8855110   -1.7311810  
C     4.7566330   -2.4686010   -1.6971110  
C     5.5401640   -1.7636130   -0.7170940  
C     4.7268950   -0.7311950   -0.1901370  
N     3.4798920   -0.8118650   -0.8306270  
C     5.1632700    0.1067950    0.8410310  
C     6.4525410   -0.0770730    1.3184710  
O     6.9234760    0.7261830    2.3159670  
C     7.2868500   -1.0912900    0.7838190  
O     8.5398620   -1.1496320    1.3595940  
C     6.8441520   -1.9340190   -0.2205870  
H     5.0807570   -3.2974290   -2.3118380  
H     4.5540220    0.8956670    1.2623840  
H     7.8352470    0.4464620    2.5064810  
H     9.0561080   -1.8553600    0.9428470  
H     7.4898860   -2.7200830   -0.6068820  
H     2.6669940   -2.0918420   -2.3510710  
