60


C     2.1764570   -0.8444040    0.3569440  
C     1.2129790    0.1350740    0.3006170  
C     1.9201190    1.3967190    0.1799440  
C     3.3045260    1.1069570    0.1760520  
N     3.4451250   -0.2848300    0.2968350  
C     4.2777750    2.0985780    0.0268310  
C     3.8457670    3.4135910   -0.0805550  
O     4.7613730    4.4148410   -0.2233320  
C     2.4654480    3.7263390   -0.0361960  
O     2.1905420    5.0752710   -0.1339990  
C     1.5048930    2.7372820    0.0936110  
H     5.3383690    1.8875960    0.0120580  
H     4.2683680    5.2519170   -0.2728800  
H     1.2326910    5.2159740   -0.0999690  
H     0.4504530    2.9993100    0.1283810  
H     2.0600540   -1.9153860    0.3936010  
C    -0.8937080   -0.9896600    1.1588440  
C    -0.2185600   -0.1022330    0.3764350  
C    -1.2786790    0.5062880   -0.4612340  
C    -2.5372370   -0.1355460    0.0097000  
N    -2.2991030   -1.0193800    0.9354170  
C    -3.8282950    0.1864800   -0.5715180  
C    -3.8252760    1.0451990   -1.6285860  
O    -4.9355740    1.4396900   -2.2750570  
C    -2.5667920    1.6642640   -2.1529660  
O    -2.6631910    2.4453080   -3.1009100  
C    -1.2738210    1.3395210   -1.5174440  
H    -4.6184160    2.0531550   -2.9742510  
H    -0.3824330    1.7923160   -1.9399190  
H    -0.4761910   -1.6393990    1.9186240  
C    -5.7156750    0.5548460    3.3718910  
C    -6.7835080   -0.2680380    3.2661540  
C    -6.7237240   -0.7907020    1.9043110  
C    -5.4917510   -0.1605740    1.3264450  
N    -4.9196220    0.6334690    2.1809840  
C    -5.0663190   -0.4191980   -0.0395350  
C    -5.8707430   -1.2255720   -0.7836680  
O    -5.6205710   -1.5591040   -2.0581370  
C    -7.1186260   -1.8586160   -0.2286880  
O    -7.7681610   -2.5844650   -0.9801540  
C    -7.5096110   -1.5989600    1.1682590  
H    -7.5352720   -0.4932680    4.0097030  
H    -6.3613630   -2.1500540   -2.3199240  
H    -8.4206600   -2.0696860    1.5251640  
H    -5.4095910    1.1421980    4.2295350  
C     4.4748600   -3.8388640   -1.9631520  
C     5.7552590   -4.0426720   -1.5810600  
C     6.0442660   -2.9770060   -0.6252660  
C     4.7692780   -2.1983120   -0.5569200  
N     3.8603520   -2.7053120   -1.3343340  
C     4.6415990   -1.0217430    0.2964790  
C     5.7225860   -0.6952850    1.0654820  
O     5.7385770    0.3259350    1.9401230  
C     7.0030030   -1.4599160    1.0007250  
O     7.9228340   -1.0938610    1.7346510  
C     7.1185240   -2.6294610    0.1063090  
H     6.4371920   -4.8167950   -1.9041890  
H     6.6405850    0.3102540    2.3323090  
H     8.0684500   -3.1551220    0.0982350  
H     3.8837830   -4.4157910   -2.6637450  
