62


C     0.6872650    1.5253970   -0.4971810  
C    -0.6791540    1.3196490   -0.3702910  
C    -0.9016720   -0.0760900   -0.1944390  
C     0.3739240   -0.7031040   -0.2070800  
N     1.3231330    0.2900660   -0.3588430  
C     0.5692010   -2.0904980   -0.0715870  
C    -0.5963090   -2.8453800    0.1066470  
O    -0.5030600   -4.1846240    0.2853790  
C    -1.8794890   -2.2416050    0.1400910  
O    -2.9021710   -3.1499070    0.3228640  
C    -2.0720400   -0.8660810   -0.0082120  
H    -1.4236830    2.1014810   -0.3404400  
H     2.2641000    0.1074290   -0.6769560  
H    -1.4101580   -4.5404480    0.2817560  
H    -3.7486750   -2.7263500    0.0879110  
C     4.2372650   -1.5033640    2.3017000  
C     5.0549220   -2.3944760    1.6860300  
C     4.2957550   -3.0157590    0.6204270  
C     2.9464730   -2.4020840    0.6650250  
N     2.9862910   -1.4674950    1.6874220  
C     1.8988970   -2.7294950   -0.1487340  
C     2.1736370   -3.7448870   -1.1930060  
O     1.3654970   -4.0404920   -2.0543850  
C     3.5867310   -4.4371660   -1.2250870  
O     3.7802690   -5.3276520   -2.0381760  
C     4.6070450   -3.9830060   -0.2837930  
H     6.0852810   -2.5992490    1.9375010  
H     5.5829990   -4.4567460   -0.3250640  
H     4.4416500   -0.8505870    3.1401240  
H     2.1669830   -1.0089440    2.0569900  
C     1.0123010    3.9231140   -1.2479990  
C     1.4260820    2.7415850   -0.6939150  
C     2.8274140    3.0121640   -0.2791600  
C     3.0633740    4.4174770   -0.6932160  
N     1.9957080    4.9348360   -1.2479860  
C     4.3221960    5.0683370   -0.4586650  
C     5.2928630    4.3732230    0.1874500  
O     6.5126550    4.8688710    0.4721920  
C     5.0715160    2.9729750    0.6545820  
O     5.9847040    2.4007530    1.2542290  
C     3.7705670    2.3189880    0.3867100  
H     4.4703760    6.0923850   -0.7835940  
H     6.9815950    4.1475890    0.9445320  
H     3.6502380    1.3066140    0.7603120  
H     0.0442140    4.1359440   -1.6844450  
C    -3.4095980   -0.2796440   -0.0169530  
C    -3.9322150    0.7520590   -0.7632230  
C    -5.3148090    0.9023270   -0.4114170  
C    -5.6008330   -0.0749710    0.5720450  
N    -4.4489940   -0.8365070    0.7611080  
C    -6.8561340   -0.1988880    1.1727860  
C    -7.8506670    0.6776510    0.7609840  
O    -9.0925290    0.6029210    1.3166040  
C    -7.5889060    1.6499090   -0.2413010  
O    -8.6805200    2.4363610   -0.5493030  
C    -6.3434270    1.7693780   -0.8302270  
H    -3.3993290    1.2981980   -1.5290130  
H    -4.2480730   -1.2739350    1.6524670  
H    -7.0788490   -0.9437020    1.9299230  
H    -9.6408500    1.2869380    0.8946230  
H    -8.4383610    3.0766440   -1.2346400  
H    -6.1642500    2.5241740   -1.5930900  
