60


C    -0.2773410    2.2269580    0.0768130  
C     0.9349060    1.5831760    0.3430310  
C     0.7157450    0.1847840    0.2490710  
C    -0.6556370    0.0044960   -0.0939440  
N    -1.2224440    1.2460840   -0.1801710  
C    -1.2562910   -1.2536650   -0.3074810  
C    -0.4026940   -2.3510020   -0.1548830  
O    -0.8835460   -3.6091490   -0.3420330  
C     0.9657360   -2.1942250    0.1885070  
O     1.6340050   -3.4018730    0.3026910  
C     1.5668730   -0.9529740    0.3852280  
H     1.8841700    2.0664040    0.5099430  
H    -2.1735390    1.4795830   -0.4338480  
H    -0.1567910   -4.2267630   -0.1416220  
H     2.4103820   -3.2887030    0.8733190  
C     1.7181150    5.9440970    1.5486800  
C     1.3604950    4.6484680    1.3340750  
C     0.1711870    4.6516260    0.5152260  
C    -0.1493760    6.0728930    0.2760990  
N     0.8389980    6.8025490    0.9046500  
C    -1.2135520    6.5423010   -0.4357240  
C    -2.1345210    5.5742860   -0.9815910  
O    -3.1183280    5.8543120   -1.6523430  
C    -1.8666870    4.0499700   -0.6850570  
O    -2.7392750    3.2623220   -1.0327920  
C    -0.6109910    3.6322780   -0.0047100  
H     1.8578310    3.7866030    1.7475630  
H    -1.3961770    7.5972010   -0.6126770  
H     2.5423070    6.3429820    2.1244830  
H     0.8626700    7.8090180    0.9536450  
C     3.5470730    0.0329490    1.6451500  
C     2.9824000   -0.8149810    0.7344140  
C     4.1513440   -1.4814270    0.1083060  
C     5.3295530   -0.8915140    0.8088050  
N     4.9628270   -0.0150370    1.7044540  
C     6.6757190   -1.2783490    0.4821720  
C     6.8547410   -2.1797260   -0.5140780  
O     8.0542030   -2.6216100   -0.9258330  
C     5.6917450   -2.7693200   -1.2585340  
O     5.9299850   -3.5803920   -2.1515870  
C     4.3140160   -2.3690420   -0.8929790  
H     7.5095110   -0.8392730    1.0187700  
H     7.8656860   -3.2552970   -1.6522750  
H     3.5026090   -2.8272290   -1.4487910  
H     3.0236640    0.7043560    2.3150140  
C    -3.3166740   -0.6509700   -1.6383060  
C    -2.6749620   -1.3799650   -0.6759550  
C    -3.6944270   -2.2398650   -0.0716540  
C    -4.9656130   -1.9436870   -0.7782070  
N    -4.6610740   -0.9810420   -1.7196410  
C    -6.1590570   -2.5297030   -0.5034810  
C    -6.2148850   -3.5191790    0.5666240  
O    -7.2398690   -4.1020400    0.8873420  
C    -4.8844750   -3.8379370    1.3414710  
O    -4.9088720   -4.6555110    2.2480940  
C    -3.6574180   -3.1377570    0.9452960  
H    -7.0754740   -2.2940120   -1.0358230  
H    -2.7460260   -3.3809250    1.4781310  
H    -2.9068980    0.0917120   -2.3107040  
H    -5.3288000   -0.5399390   -2.3327840  
