60


C     0.7750820   -2.4540120   -0.0492600  
C     1.3302430   -3.7227940   -0.0092800  
C     2.7507990   -3.5697090   -0.0508190  
C     3.0138430   -2.1747140   -0.1059300  
N     1.8076590   -1.5347070   -0.1082470  
C     4.3212740   -1.6115440   -0.1465490  
C     5.3728390   -2.5526830   -0.1500480  
O     6.6673000   -2.1374740   -0.1929680  
C     5.1204480   -3.9444410   -0.0981510  
O     6.2727510   -4.7108770   -0.1032030  
C     3.8390790   -4.4631330   -0.0443970  
H     0.7833800   -4.6527420    0.0675040  
H     1.7710960   -0.5232660   -0.1812760  
H     7.2235550   -2.9371160   -0.1674220  
H     6.0412310   -5.6486600   -0.0365350  
H     3.6836710   -5.5394440   -0.0029860  
C    -1.6989210   -2.7906750   -0.3859210  
C    -0.6127030   -2.0261630   -0.0568700  
C    -1.1393470   -0.7011380    0.2681600  
C    -2.6090390   -0.7735700    0.0467000  
N    -2.8754140   -2.0602250   -0.3637520  
C    -3.4863150    0.2731900    0.2025620  
C    -2.9107680    1.4917890    0.8293240  
O    -3.5929600    2.3745440    1.3184550  
C    -1.3558790    1.6291920    0.9233390  
O    -0.8763980    2.7229470    1.1850380  
C    -0.5405170    0.4432110    0.6953720  
H     0.5238290    0.5438410    0.8726010  
H    -1.7220130   -3.8324490   -0.6772720  
H    -3.8117430   -2.4446190   -0.2034400  
C    -6.7540220   -2.7518760    0.7178400  
C    -7.8455630   -2.0041320    0.4471310  
C    -7.3285490   -0.7025030    0.0441450  
C    -5.8368230   -0.8318620    0.1727430  
N    -5.5232120   -2.0452870    0.5422120  
C    -4.9281370    0.2710580   -0.1076550  
C    -5.5227910    1.3726550   -0.6749380  
O    -4.8393800    2.4212180   -1.1363610  
C    -7.0088810    1.5159650   -0.8452830  
O    -7.4280960    2.5590860   -1.3440600  
C    -7.8995410    0.4174950   -0.4340640  
H    -8.8856110   -2.2946710    0.4937260  
H    -5.5137840    3.0716140   -1.4355930  
H    -8.9672300    0.5576790   -0.5710320  
H    -6.7107380   -3.7856170    1.0383630  
C     4.5406530   -0.1816850   -0.1554350  
C     5.7018650    0.5515760   -0.2293980  
C     5.3133080    1.9300150   -0.1616380  
C     3.8152400    1.8992580   -0.0389190  
N     3.3731110    0.6769670   -0.0491820  
C     3.0319510    3.1003740    0.0789140  
C     3.7049640    4.2757720    0.0528280  
O     3.1295740    5.4770810    0.1511240  
C     5.2179870    4.3458250   -0.0883330  
O     5.7137890    5.4751670   -0.1023580  
C     5.9845930    3.1119030   -0.1895510  
H     6.7051990    0.1693490   -0.3150890  
H     1.9545820    3.0544650    0.2053350  
H     3.8758000    6.1193840    0.1016260  
H     7.0628850    3.1956140   -0.2807670  
