58


C    -0.7867270    1.0011060   -0.0820320  
C    -1.9053590    0.2033750   -0.0040410  
C    -3.0282370    1.1031070    0.0325260  
C    -2.4118430    2.4667030   -0.0434160  
N    -1.1179060    2.4065810   -0.1098290  
C    -3.2119720    3.6636470   -0.0562690  
C    -4.5554320    3.5185430    0.0030630  
O    -5.4238290    4.5400270    0.0135200  
C    -5.2130020    2.1645200    0.0956760  
O    -6.4352260    2.1465620    0.2270390  
C    -4.3820890    0.9341770    0.0746090  
H    -1.9212560   -0.8733120    0.0211630  
H    -2.7357490    4.6361640   -0.1092670  
H    -6.3121440    4.1250230    0.0879620  
C     0.9603930   -3.0126390   -0.1967440  
C     2.2847350   -2.7459830   -0.3004680  
C     2.3833350   -1.2955940   -0.3176790  
C     0.9731760   -0.8289280   -0.1993380  
N     0.1541800   -1.8424810   -0.1401370  
C     0.5996160    0.5901470   -0.1524700  
C     1.6658470    1.4660200   -0.1712480  
O     1.5758890    2.7918060   -0.0903150  
C     3.0978310    1.0065770   -0.2834460  
O     3.9524090    1.8942140   -0.2847310  
C     3.4425090   -0.4363420   -0.4069490  
H     3.1028790   -3.4504210   -0.3262210  
H     2.5060980    3.1144260   -0.1392980  
H     0.4734170   -3.9786320   -0.1424420  
C     5.1804510   -1.8955560   -1.4767770  
C     4.8093560   -0.8461090   -0.6707010  
C     6.0981810   -0.3131320   -0.1750170  
C     7.1189860   -1.2101690   -0.7981080  
N     6.5637890   -2.1173210   -1.5630030  
C     8.5254880   -1.0583510   -0.5566910  
C     8.9186660   -0.0680320    0.2810930  
O    10.1917020    0.1894220    0.6011170  
C     7.9170890    0.8451950    0.9398170  
O     8.3478520    1.7126170    1.6941950  
C     6.4742370    0.6707800    0.6636610  
H     9.2309080   -1.7289750   -1.0341700  
H    10.1623900    0.9506940    1.2223330  
H     5.7955190    1.3667080    1.1402130  
H     4.5165450   -2.5175910   -2.0651430  
C    -4.2896680   -2.6690590    2.7468770  
C    -3.9973930   -1.4567760    2.2188120  
C    -4.8565540   -1.3366950    1.0464450  
C    -5.6300240   -2.6201310    1.0338520  
N    -5.2956280   -3.3910540    2.0285390  
C    -6.6245250   -2.8987420    0.0310430  
C    -6.8451610   -1.9573280   -0.9147790  
O    -7.7297690   -2.0873320   -1.9160890  
C    -6.0750780   -0.6643710   -0.9459280  
O    -6.2774320    0.0880920   -1.8936150  
C    -5.0723770   -0.3652760    0.1229370  
H    -3.2805300   -0.7294170    2.5703660  
H    -7.1655440   -3.8382190    0.0494270  
H    -7.6437370   -1.2678660   -2.4508430  
H    -3.8593310   -3.1300300    3.6280930  
