62


C    -1.2443750    0.3037760    0.9103890  
C    -2.4224430   -0.1535570    0.3351360  
C    -2.8749620    0.9155260   -0.5438480  
C    -1.9263220    1.9602140   -0.4538500  
N    -0.9217610    1.5487620    0.4331890  
C    -2.0431570    3.1590970   -1.1605160  
C    -3.1673710    3.3258860   -1.9550910  
O    -3.3324830    4.4766320   -2.6649500  
C    -4.1539930    2.3101790   -2.0248810  
O    -5.2261170    2.6244120   -2.8345560  
C    -4.0219390    1.1185100   -1.3339390  
H    -1.3217530    3.9620590   -1.0787310  
H    -4.1944590    4.4202480   -3.1123140  
H    -5.8969370    1.9283110   -2.7704500  
H    -4.7950520    0.3594110   -1.4055340  
H    -0.6144870   -0.1716120    1.6438590  
C     3.3027500    0.3683270    0.1361350  
C     1.9243090    0.4323320    0.0427380  
C     1.4965880    1.6729490    0.6138580  
C     2.7250750    2.3653290    1.0668330  
N     3.7695350    1.5171340    0.7730370  
C     2.7544720    3.5968390    1.6367830  
C     1.4919320    4.2988220    1.8269910  
O     1.4139710    5.4238450    2.2945940  
C     0.1580480    3.5742490    1.4077370  
O    -0.9062090    4.1274660    1.6295450  
C     0.2609950    2.2490510    0.7759720  
H     1.2848700   -0.2645930   -0.4752960  
H     3.6700710    4.0879370    1.9501910  
H     4.7511130    1.7504270    0.8190900  
C     2.5908780   -3.9280660   -0.6463340  
C     3.8449440   -4.2366800   -1.0972620  
C     4.6224380   -3.0326410   -1.0277790  
C     3.7700350   -2.0094400   -0.5356140  
N     2.5365540   -2.5827410   -0.3236680  
C     4.2089790   -0.6770270   -0.3123910  
C     5.5720010   -0.4397500   -0.5652580  
O     6.1099640    0.8020610   -0.3582600  
C     6.4243890   -1.4521660   -1.0624950  
O     7.7199380   -1.0217710   -1.2704880  
C     5.9681150   -2.7333740   -1.3064170  
H     4.1816420   -5.2064690   -1.4356910  
H     1.7757190   -2.1378570    0.1658030  
H     7.0484720    0.7566150   -0.6173090  
H     8.2536400   -1.7406550   -1.6398150  
H     6.6426970   -3.4959610   -1.6893950  
H     1.7147460   -4.5503520   -0.5326150  
C    -4.7425710   -3.2240060   -2.0200670  
C    -4.0070850   -2.1217140   -1.7235160  
C    -3.7461110   -2.2037790   -0.2884080  
C    -4.4130070   -3.4611200    0.1131930  
N    -5.0041640   -4.0511590   -0.8949050  
C    -4.3607950   -3.9652170    1.4637490  
C    -3.6254660   -3.2759220    2.3625250  
O    -3.4516870   -3.6518460    3.6464880  
C    -2.9059320   -2.0147080    1.9915100  
O    -2.2258160   -1.4907310    2.8739940  
C    -3.0367820   -1.4384110    0.6017350  
H    -3.6451970   -1.3650600   -2.4035820  
H    -4.8760080   -4.8844540    1.7202480  
H    -2.8743360   -2.9627860    4.0398590  
H    -5.1201980   -3.5307540   -2.9885390  
