58


C    -3.8142540   -1.3623460    0.4784690  
C    -4.0627310   -2.6701650    0.7963280  
C    -2.8473930   -3.4068610    0.5751530  
C    -1.8330060   -2.4183820    0.1143210  
N    -2.4679030   -1.2042700    0.1301040  
C    -0.5166460   -2.6971280   -0.2168030  
C    -0.1714800   -4.1255690   -0.1417670  
O     0.9389460   -4.5764050   -0.4152920  
C    -1.2352780   -5.1879360    0.3348200  
O    -0.8829590   -6.3544070    0.3986010  
C    -2.5667510   -4.7318880    0.6949240  
H    -5.0098580   -3.0865720    1.1064940  
H    -3.2921070   -5.4655830    1.0312170  
H    -2.1048050   -0.4572020   -0.4557420  
C    -4.7169550   -0.2352930    0.4447320  
C    -5.9099970   -0.0733260    1.0980760  
C    -6.4348520    1.2209930    0.7466420  
C    -5.4540480    1.8229560   -0.1889280  
N    -4.4077430    0.9164910   -0.2955500  
C    -5.6095650    3.0272190   -0.7899570  
C    -6.8081180    3.8072670   -0.4799820  
O    -7.0326650    4.9020250   -0.9701170  
C    -7.8430640    3.2049130    0.5394100  
O    -8.8430100    3.8469060    0.8192950  
C    -7.5674570    1.8831580    1.1097500  
H    -6.3475640   -0.7715950    1.7970210  
H    -4.8863990    3.4500610   -1.4804070  
H    -8.2959010    1.4684700    1.7998090  
H    -3.7658550    0.9240360   -1.0773550  
C     3.8155840   -2.2626610    0.6764300  
C     4.0916560   -1.0779000    0.0618380  
C     2.8433250   -0.6617590   -0.5742370  
C     1.8244240   -1.6992560   -0.2440360  
N     2.4778270   -2.6168030    0.5348290  
C     0.4876890   -1.6764710   -0.6256170  
C     0.1265770   -0.5338230   -1.4717240  
O    -1.0138200   -0.2978890   -1.8778450  
C     1.2145440    0.5177910   -1.9089170  
O     0.8706100    1.4139540   -2.6598350  
C     2.5643450    0.3928640   -1.3778110  
H     3.3010650    1.1346110   -1.6661390  
H     4.4782700   -2.8965940    1.2503820  
H     2.1365940   -3.5735020    0.5829730  
C     6.6061100   -0.9598920   -0.2245350  
C     5.3840890   -0.4061540    0.0125700  
C     5.6825060    1.0136630    0.2892180  
C     7.1686910    1.1069650    0.1551620  
N     7.6950540   -0.0489850   -0.1390560  
C     7.8677850    2.3493380    0.3525700  
C     7.1402210    3.4399570    0.6940670  
O     7.6620870    4.6564180    0.9127190  
C     5.6470840    3.3702190    0.8668700  
O     5.0560350    4.3985980    1.1863440  
C     4.9487540    2.0839640    0.6469070  
H     8.9452040    2.3877930    0.2367910  
H     6.9020930    5.2343920    1.1430260  
H     3.8718730    2.0793380    0.7834080  
H     6.8142400   -1.9930170   -0.4783810  
