58


C    -2.2631380    1.4822720    2.7773350  
C    -3.3979060    1.0736670    2.1573820  
C    -3.0102700    0.4137870    0.9286390  
C    -1.5299370    0.4620740    0.8911340  
N    -1.1351070    1.0906100    2.0587790  
C    -0.7347910   -0.0324540   -0.1059650  
C    -1.4330280   -0.7051740   -1.2183040  
O    -0.8465850   -1.3072310   -2.0990520  
C    -3.0028890   -0.7056440   -1.2389670  
O    -3.5596450   -1.1293100   -2.2355010  
C    -3.7429100   -0.1748360   -0.0678450  
H    -4.4079370    1.2380940    2.4964100  
H    -2.1451470    2.0259020    3.7053750  
H    -0.2004470    1.4375920    2.2132720  
C     2.2632930   -1.4852880    2.7757810  
C     3.3980170   -1.0760140    2.1561970  
C     3.0103100   -0.4148960    0.9281400  
C     1.5299870   -0.4632220    0.8906320  
N     1.1351890   -1.0928390    2.0577400  
C     0.7347840    0.0321920   -0.1059730  
C     1.4329650    0.7060600   -1.2176650  
O     0.8464790    1.3089300   -2.0978240  
C     3.0028240    0.7064230   -1.2384700  
O     3.5595400    1.1314980   -2.2344280  
C     3.7428920    0.1747510   -0.0677760  
H     4.4080690   -1.2407190    2.4950320  
H     2.1453680   -2.0298640    3.7032770  
H     0.2006910   -1.4405820    2.2115490  
C    -6.8670820    2.9478070    0.1484770  
C    -7.9993230    2.2294820   -0.0244440  
C    -7.5553890    0.8442120   -0.1418230  
C    -6.0617490    0.9259240   -0.0100160  
N    -5.6721450    2.1551860    0.1608230  
C    -5.2155060   -0.2560900   -0.0877850  
C    -5.8631570   -1.4447700   -0.2622180  
O    -5.2375900   -2.6273200   -0.3014870  
C    -7.3586290   -1.5510730   -0.3906400  
O    -7.8374120   -2.6740660   -0.5380290  
C    -8.1833490   -0.3314300   -0.3295420  
H    -9.0193210    2.5840970   -0.0753840  
H    -5.9417580   -3.2928520   -0.4678430  
H    -9.2572720   -0.4495300   -0.4371760  
H    -6.7690460    4.0198910    0.2712220  
C     6.8675190   -2.9475490    0.1467680  
C     7.9996520   -2.2289600   -0.0257600  
C     7.5555150   -0.8436860   -0.1423270  
C     6.0618900   -0.9256940   -0.0105350  
N     5.6724670   -2.1551100    0.1596040  
C     5.2154740    0.2562400   -0.0876070  
C     5.8629490    1.4451240   -0.2612850  
O     5.2371890    2.6275940   -0.2999150  
C     7.3584150    1.5517390   -0.3895190  
O     7.8369990    2.6748490   -0.5366630  
C     8.1832960    0.3321570   -0.3293900  
H     9.0197000   -2.5833980   -0.0769280  
H     5.9412650    3.2933440   -0.4657850  
H     9.2571900    0.4504650   -0.4370900  
H     6.7696400   -4.0197190    0.2688880  
