62


C     1.9643730   -2.9173470    0.5497770  
C     3.1126210   -2.1959540    0.4577490  
C     2.7687520   -0.8729450    0.0024880  
C     1.3614570   -0.8415760   -0.1504920  
N     0.8700200   -2.1234310    0.1880680  
C     0.6787750    0.2976860   -0.5764700  
C     1.4380820    1.4427010   -0.7813690  
O     0.8290200    2.6002440   -1.1536620  
C     2.8436030    1.4513810   -0.6070330  
O     3.4264670    2.6680020   -0.8581220  
C     3.5453170    0.2879570   -0.2577340  
H     4.0980660   -2.5631580    0.6991200  
H    -0.3916950    0.3154520   -0.7171880  
H     1.5471110    3.2603330   -1.2130710  
H     4.0792290    2.8382790   -0.1286580  
H     1.8047330   -3.9314200    0.8810370  
C    -0.4242490   -2.5887330    0.1803440  
C    -0.8557690   -3.8890450    0.2616060  
C    -2.2850630   -3.8083280    0.2488630  
C    -2.5837270   -2.3348140    0.1667690  
N    -1.4862190   -1.6399430    0.1156940  
C    -3.9537570   -1.8138800    0.1454090  
C    -4.9268900   -2.7820510    0.1440460  
O    -6.2527390   -2.5064590    0.1036730  
C    -4.6579310   -4.2466320    0.2053550  
O    -5.6472870   -4.9949840    0.2102080  
C    -3.2835590   -4.7257400    0.2645770  
H    -0.2658380   -4.7928390    0.2810250  
H    -6.6790250   -3.3980590    0.1231930  
H    -3.1240860   -5.7979680    0.3145800  
C    -4.2231160   -0.3907950    0.1129560  
C    -3.3583510    0.6949740    0.2166740  
C    -4.1383530    1.8783460    0.1267080  
C    -5.4963250    1.4746820   -0.0269200  
N    -5.5183730    0.1035930   -0.0321650  
C    -6.5455570    2.3951720   -0.1456810  
C    -6.2186060    3.7414900   -0.1114990  
O    -7.1981070    4.6828010   -0.2241940  
C    -4.8649000    4.1628690    0.0374160  
O    -4.7123770    5.5374030    0.0478960  
C    -3.8324460    3.2575510    0.1560310  
H    -2.2930950    0.6239860    0.3578800  
H    -6.3325550   -0.4886220   -0.1008240  
H    -7.5821280    2.0969510   -0.2633510  
H    -6.7648820    5.5532880   -0.1872220  
H    -3.7706130    5.7545520    0.1122730  
H    -2.8037660    3.5962980    0.2611330  
C     6.4470590    3.0579410    1.6232750  
C     7.6076960    2.3758750    1.5097910  
C     7.2734950    1.1672580    0.7658460  
C     5.7961290    1.2662100    0.5306110  
N     5.3371830    2.3863870    1.0210120  
C     5.0259320    0.2469820   -0.1669480  
C     5.7825620   -0.7528090   -0.7205040  
O     5.2776400   -1.7450530   -1.4676120  
C     7.2713110   -0.8614390   -0.5372790  
O     7.8428470   -1.8084310   -1.0768610  
C     7.9914500    0.1503500    0.2558670  
H     8.5868890    2.6574900    1.8704680  
H     6.0518600   -2.2935540   -1.7288230  
H     9.0656090    0.0347330    0.3611920  
H     6.2721140    4.0158160    2.0969970  
