58


C     0.1893250    1.4643720   -0.0337550  
C    -1.1404140    1.0994890   -0.0519050  
C    -1.1588420   -0.3308080   -0.0846240  
C     0.2875300   -0.7173120   -0.0593580  
N     1.0561240    0.3267230   -0.0366580  
C     0.7255110   -2.1143170   -0.0427180  
C    -0.2917940   -3.0336780   -0.0360130  
O    -0.0991030   -4.3658080   -0.0268350  
C    -1.7491540   -2.6818480   -0.0832530  
O    -2.5290870   -3.6311080   -0.1611390  
C    -2.1707660   -1.2595790   -0.0915410  
H    -2.0007270    1.7510840   -0.0196790  
H    -1.0094950   -4.7500180   -0.0659150  
C     0.7510230    2.7853260   -0.0000560  
C     0.0746460    3.9844220    0.0204100  
C     1.0910360    5.0052650    0.0551470  
C     2.3800230    4.2392970    0.0494890  
N     2.1798020    2.9556210    0.0170020  
C     3.6531320    4.9130190    0.0775390  
C     3.6496100    6.2668730    0.1102810  
O     4.7556030    7.0213930    0.1390450  
C     2.3668740    7.0650810    0.1172450  
O     2.4622550    8.2910780    0.1463660  
C     1.0773250    6.3589040    0.0873010  
H    -0.9948390    4.1432840    0.0137740  
H     4.5722850    4.3380970    0.0727250  
H     4.4398650    7.9522490    0.1588160  
H     0.1771170    6.9658470    0.0928590  
C    -3.5839510   -0.9286890   -0.1326830  
C    -4.1756470    0.0965460   -0.8237750  
C    -5.5922760   -0.0120530   -0.5427210  
C    -5.6921210   -1.1854160    0.3817290  
N    -4.5290820   -1.7189440    0.6126750  
C    -6.9584070   -1.6139550    0.9182300  
C    -8.0660130   -0.9308150    0.5430640  
O    -9.3060260   -1.2230160    0.9571070  
C    -7.9975260    0.2469640   -0.3986910  
O    -9.0523040    0.8094880   -0.6847390  
C    -6.6900530    0.6754900   -0.9269170  
H    -3.7035950    0.7972730   -1.4976800  
H    -7.0039170   -2.4633790    1.5903480  
H    -9.8930630   -0.5649420    0.5232250  
H    -6.6804830    1.5311410   -1.5952640  
C     2.1346260   -2.4629700   -0.0323070  
C     3.2361880   -1.6355070   -0.0398650  
C     4.4084280   -2.4663160   -0.0244470  
C     3.9284220   -3.8705690   -0.0075870  
N     2.5563340   -3.8014860   -0.0131150  
C     4.7426320   -4.9583690    0.0090900  
C     6.1853530   -4.7466010    0.0110510  
O     6.9962590   -5.6611710    0.0249400  
C     6.7175330   -3.2656930   -0.0063640  
O     7.9234740   -3.0687450   -0.0058740  
C     5.7399210   -2.1750800   -0.0238430  
H     3.2007210   -0.5578060   -0.0515600  
H     4.3737680   -5.9793540    0.0210570  
H     6.1164940   -1.1567830   -0.0360190  
H     1.9220320   -4.5858140   -0.0058990  
