60


C    -0.3379850   -0.5342950    3.1141610  
C     0.4108760    0.3548570    2.3838620  
C    -0.4364030    0.8857830    1.3527580  
C    -1.7106350    0.2899270    1.5324880  
N    -1.6174900   -0.5709730    2.6059660  
C    -2.8415300    0.5727580    0.7309450  
C    -2.6232350    1.5319060   -0.2680590  
O    -3.6421860    1.9115070   -1.0845510  
C    -1.3716950    2.1691620   -0.4546000  
O    -1.3807560    3.0684740   -1.4897460  
C    -0.2383440    1.8464560    0.3082470  
H     1.4423990    0.6098320    2.5744930  
H    -2.3555900   -1.1901740    2.9037310  
H    -3.2724280    2.6296890   -1.6379700  
H    -0.8561600    3.8541170   -1.1945960  
H    -0.0675150   -1.1336400    3.9718920  
C     3.8094200    0.0200410   -0.0990620  
C     2.4502130    0.2679760   -0.0164610  
C     2.2494090    1.6792950    0.0085640  
C     3.5991570    2.2826020   -0.0881940  
N     4.4919680    1.2369240   -0.1190670  
C     3.8529470    3.6171180   -0.1191300  
C     2.7163280    4.5156680   -0.0958950  
O     2.8059570    5.7332620   -0.0807870  
C     1.2716530    3.8892600   -0.1316030  
O     0.3472880    4.6761910   -0.3370680  
C     1.0875630    2.4395190    0.0619850  
H     1.6716040   -0.4754340   -0.0299350  
H     4.8520450    4.0390470   -0.1432750  
H     5.4768270    1.2934060   -0.3404850  
C     2.7546460   -4.2276980    0.8625640  
C     2.7027980   -2.8685750    0.8225140  
C     3.9360360   -2.4609920    0.1770540  
C     4.6402110   -3.7512090   -0.0946790  
N     3.9368210   -4.7797490    0.2930980  
C     5.9391240   -3.7979190   -0.7074700  
C     6.5425050   -2.6232350   -1.0029350  
O     7.7703740   -2.5276260   -1.5406090  
C     5.8834590   -1.3069030   -0.7250820  
O     6.5504370   -0.2945000   -0.9635220  
C     4.4875890   -1.2563600   -0.1888370  
H     1.9339790   -2.2305820    1.2332090  
H     6.4157150   -4.7532610   -0.8968150  
H     7.9589160   -1.5686060   -1.6193010  
H     2.0190090   -4.9045400    1.2809540  
C    -4.7053570   -0.3425070    2.1918410  
C    -4.1386310   -0.0508440    0.9805300  
C    -5.1201730   -0.5780420    0.0020350  
C    -6.2071190   -1.1504860    0.8452480  
N    -5.9568820   -1.0003300    2.1187590  
C    -7.3644820   -1.7814560    0.2693790  
C    -7.4350710   -1.8626890   -1.0811880  
O    -8.4499880   -2.4291090   -1.7536230  
C    -6.3462920   -1.3124490   -1.9580990  
O    -6.4771620   -1.4282100   -3.1755120  
C    -5.1717090   -0.6580960   -1.3402990  
H    -8.1400560   -2.1801490    0.9138750  
H    -8.2177440   -2.3347020   -2.7036680  
H    -4.4237230   -0.2464790   -2.0070940  
H    -4.3215370   -0.0809650    3.1715520  
