64


C    -1.7198650   -1.2681630   -1.5672100  
C    -1.0122860   -0.2450630   -0.9832880  
C    -1.9458660    0.5393140   -0.2162630  
C    -3.2142620   -0.0698340   -0.3765340  
N    -3.0502240   -1.1501160   -1.2183580  
C    -4.3928410    0.4521260    0.2070930  
C    -4.2374640    1.5988040    0.9921590  
O    -5.3090170    2.1107130    1.6532920  
C    -2.9682340    2.2107470    1.1596020  
O    -3.0005050    3.3315470    1.9644040  
C    -1.8300840    1.7060930    0.5627160  
H    -3.7739800   -1.8114670   -1.4549050  
H    -5.0092680    2.9143940    2.1134380  
H    -2.1002300    3.6639610    2.0967070  
H    -0.8657910    2.1880090    0.7011720  
H    -1.3743280   -2.0706170   -2.2023160  
C     0.9933010    0.2145240   -2.3820520  
C     2.3309140    0.4257110   -2.1894710  
C     2.5723750    0.3617840   -0.7746430  
C     1.3245530    0.0938460   -0.1555460  
N     0.3617860    0.0133920   -1.1579960  
C     1.1847210   -0.0838040    1.2269510  
C     2.3311590    0.0375450    1.9960600  
O     2.2581810   -0.1021570    3.3547860  
C     3.5852830    0.3192380    1.3988250  
O     4.6198050    0.4350240    2.3103310  
C     3.7411250    0.4800600    0.0224050  
H     3.0643720    0.6004970   -2.9635310  
H     0.2347710   -0.3078650    1.6984880  
H     3.1553730    0.0489330    3.6996850  
H     5.4205830    0.7224890    1.8402030  
H     0.4048290    0.2033840   -3.2884120  
C     5.3490470    1.8005450   -1.4438710  
C     5.0629720    0.7824630   -0.5590290  
C     6.3174330    0.0910710   -0.3273020  
C     7.3116870    0.7483860   -1.0977370  
N     6.6899560    1.7827500   -1.7670020  
C     8.6482670    0.3309710   -1.1255470  
C     8.9894030   -0.7756570   -0.3640560  
O    10.2783590   -1.2228490   -0.3523170  
C     8.0061850   -1.4560100    0.4034510  
O     8.4982450   -2.5441180    1.0987600  
C     6.6874860   -1.0427570    0.4292420  
H     7.1454950    2.4290760   -2.3920790  
H     9.4096840    0.8313550   -1.7152350  
H    10.3051380   -2.0070680    0.2227140  
H     7.7742420   -2.9778430    1.5743010  
H     5.9505800   -1.5861960    1.0155330  
H     4.6901280    2.5518980   -1.8549880  
C    -6.1452890   -3.6468190    0.6865010  
C    -5.2684010   -2.6125660    0.7081480  
C    -6.0182960   -1.4679310    0.1958630  
C    -7.3740880   -2.0261440   -0.0829660  
N    -7.4416690   -3.2976180    0.2025710  
C    -8.4461110   -1.2065080   -0.5863450  
C    -8.1822550    0.1002050   -0.8103160  
O    -9.0792450    0.9806810   -1.2846380  
C    -6.8132410    0.6897050   -0.5837900  
O    -6.6451330    1.8513230   -0.9368560  
C    -5.7158790   -0.1577080   -0.0071910  
H    -4.2460150   -2.6104300    1.0583220  
H    -9.4220210   -1.6411280   -0.7719480  
H    -8.5846630    1.8232850   -1.3886220  
H    -5.9720470   -4.6698700    0.9997120  
