64


C     1.0717420    0.9613870   -0.1761390  
C    -0.3006710    1.1691980   -0.1428680  
C    -0.9406690   -0.1030910   -0.0765670  
C     0.0928910   -1.0701700   -0.0728260  
N     1.3019200   -0.4017660   -0.0987890  
C    -0.1092090   -2.4647030   -0.0840910  
C    -1.4408410   -2.8822620   -0.0966990  
O    -1.7407920   -4.2049670   -0.0782370  
C    -2.5160900   -1.9550960   -0.0866330  
O    -3.7270730   -2.5544520   -0.0785920  
C    -2.3101570   -0.5458380   -0.0484210  
H    -0.7581610    2.1449440   -0.1559990  
H     2.1727520   -0.8507790   -0.3454080  
H    -2.7145240   -4.2623640   -0.0999320  
H    -4.4245070   -1.8243370   -0.1043570  
C     2.1589080    1.9064730   -0.2364600  
C     2.1941610    3.2013860   -0.7155080  
C     3.5260680    3.6919000   -0.5436330  
C     4.2817120    2.6463170    0.0519090  
N     3.4408440    1.5567480    0.1952080  
C     5.6328070    2.7853110    0.3851250  
C     6.2393370    4.0003950    0.1020630  
O     7.5547630    4.1905940    0.4081370  
C     5.5049080    5.0523400   -0.5097030  
O     6.2519740    6.1931140   -0.7339000  
C     4.1693750    4.9127340   -0.8355140  
H     1.3664950    3.7167440   -1.1832450  
H     3.6239160    0.7868260    0.8225010  
H     6.2128890    1.9909220    0.8435050  
H     7.7877510    5.0930350    0.1292830  
H     5.6954580    6.8679450   -1.1498230  
H     3.6268100    5.7330360   -1.3011480  
C    -3.4246440    0.3538800    0.0237920  
C    -3.4931090    1.7270010    0.1949160  
C    -4.8718850    2.0744600    0.1956140  
C    -5.5952910    0.7711150    0.0103920  
N    -4.7481240   -0.2144080   -0.0818450  
C    -7.0245870    0.6915910   -0.0448260  
C    -7.7059710    1.8572280    0.0841430  
O    -9.0335440    1.9602960    0.0567550  
C    -7.0095370    3.2008510    0.2785310  
O    -7.7620630    4.1784210    0.3820620  
C    -5.5681940    3.2454580    0.3273560  
H    -2.6780160    2.4154680    0.3421570  
H    -7.5244190   -0.2606720   -0.1826050  
H    -9.2038400    2.9277680    0.1764570  
H    -5.0950450    4.2120160    0.4666110  
C     3.1257060   -2.9634150    2.8773160  
C     3.8133620   -3.9652940    2.2437350  
C     3.1060150   -4.2614660    1.0292500  
C     1.9874050   -3.3908600    0.9779560  
N     2.0312630   -2.6020060    2.1108040  
C     1.0344010   -3.4055610   -0.0657750  
C     1.2518410   -4.3382880   -1.0823640  
O     0.4090380   -4.3894730   -2.1482130  
C     2.3690920   -5.2148710   -1.0447300  
O     2.4381630   -6.0644530   -2.1337950  
C     3.2907980   -5.1877280   -0.0163900  
H     4.7165700   -4.4409070    2.6007290  
H     1.3080440   -1.9549130    2.3849920  
H     0.7063320   -5.1226140   -2.7146930  
H     3.1765260   -6.6801850   -2.0173190  
H     4.1380920   -5.8706390   -0.0172990  
H     3.3237820   -2.4661980    3.8165180  
