62


C     0.4575170    1.2699270   -0.1669220  
C     0.4933540    2.6584860   -0.3098490  
C     1.8556270    3.0545370   -0.3031960  
C     2.6342250    1.8684420   -0.1563270  
N     1.7667560    0.8214570   -0.0813140  
C     4.0615510    1.8756020   -0.1096290  
C     4.6564350    3.1490110   -0.2172930  
O     6.0081340    3.2794000   -0.1844660  
C     3.8827320    4.3290070   -0.3657940  
O     4.6487390    5.4766910   -0.4558940  
C     2.5047080    4.3014360   -0.4114700  
H    -0.3558160    3.3055240   -0.4665640  
H     2.0638840   -0.1500780   -0.0320150  
H     6.2064830    4.2285620   -0.2822830  
H     4.0730950    6.2452510   -0.5808460  
H     1.9361920    5.2221450   -0.5256940  
C    -3.8783350    1.8514300    0.6654730  
C    -2.5351920    2.0152910    0.5607280  
C    -1.9707620    0.7574500    0.1294310  
C    -3.1116910   -0.1732130    0.0101760  
N    -4.2576630    0.5540520    0.3095820  
C    -3.0224980   -1.4929250   -0.3289170  
C    -1.7062110   -2.0401600   -0.5691860  
O    -1.4939220   -3.2016250   -0.8902030  
C    -0.4633210   -1.0910510   -0.3937760  
O     0.6423720   -1.6068740   -0.4596870  
C    -0.6723100    0.3618860   -0.1382480  
H    -1.9914980    2.9099510    0.8165780  
H    -3.8812490   -2.1510260   -0.3922710  
H    -4.6384810    2.5496040    0.9841110  
C    -6.6146490   -1.3019270   -2.8967730  
C    -7.7694610   -1.4641210   -2.1788940  
C    -7.5215030   -0.9585550   -0.8577750  
C    -6.1789180   -0.4963310   -0.8426070  
N    -5.6552640   -0.7006470   -2.1005280  
C    -5.5934130    0.0709740    0.3057110  
C    -6.3874090    0.1750740    1.4474960  
O    -5.8704550    0.7221670    2.5854570  
C    -7.7338620   -0.2676770    1.4308250  
O    -8.3856560   -0.0788680    2.6351370  
C    -8.3056460   -0.8290550    0.3047400  
H    -8.6929420   -1.8895870   -2.5462610  
H    -4.6844300   -0.5812450   -2.3467420  
H    -6.5647460    0.6676690    3.2658610  
H    -9.2461680   -0.5228070    2.6120320  
H    -9.3430210   -1.1561740    0.3187930  
H    -6.3873090   -1.5605700   -3.9211440  
C     4.8374760    0.6623950    0.0287740  
C     6.1957580    0.4600260    0.1048860  
C     6.3810630   -0.9590950    0.2239290  
C     4.9898070   -1.5253340    0.2055840  
N     4.1030340   -0.5846750    0.0971270  
C     4.7384930   -2.9394940    0.2997660  
C     5.8156880   -3.7510840    0.4122500  
O     5.7532590   -5.0844510    0.5096030  
C     7.2359370   -3.2130740    0.4383610  
O     8.1374130   -4.0482300    0.5451670  
C     7.4609780   -1.7754250    0.3375550  
H     6.9692280    1.2088550    0.0791100  
H     3.7216440   -3.3158050    0.2745170  
H     6.6923740   -5.3755590    0.5754660  
H     8.4886390   -1.4264490    0.3582060  
