64


C     3.5402610    1.8265750    0.0857090  
C     3.3401820    3.1894250    0.1166340  
C     1.9389100    3.4258580   -0.0603800  
C     1.3181260    2.1605070   -0.2166710  
N     2.3157830    1.2013970   -0.1628950  
C    -0.0764120    1.9828660   -0.3731420  
C    -0.8302930    3.1650350   -0.3381020  
O    -2.1979010    3.1134720   -0.4438340  
C    -0.2221970    4.4358710   -0.2065680  
O    -1.1271110    5.4836210   -0.2198670  
C     1.1452050    4.5884410   -0.0802910  
H     4.1170480    3.9351130    0.2149780  
H     2.1208660    0.2449460    0.1021870  
H    -2.5213400    4.0307300   -0.4161530  
H    -0.6502870    6.3218100   -0.1324450  
H     1.5875770    5.5766060    0.0252940  
C     4.7508450    1.0494930    0.2276920  
C     5.9194870    1.3247320    0.9066340  
C     6.8036230    0.2145720    0.7175160  
C     6.1186310   -0.7293770   -0.0934270  
N     4.8575310   -0.2190080   -0.3471510  
C     6.6950820   -1.9381780   -0.4972490  
C     7.9861310   -2.2075590   -0.0670630  
O     8.5971520   -3.3721560   -0.4352690  
C     8.6805540   -1.2844920    0.7586480  
O     9.9523000   -1.6991790    1.1112330  
C     8.1088910   -0.0896090    1.1549110  
H     6.0973110    2.2033790    1.5113550  
H     4.2676220   -0.5272370   -1.1063330  
H     6.1769980   -2.6599090   -1.1206040  
H     9.4825580   -3.3703260   -0.0326050  
H    10.3681440   -1.0236360    1.6667610  
H     8.6626140    0.6027210    1.7862570  
C    -0.6699210    0.6572820   -0.5476790  
C    -0.0963010   -0.5163380   -1.0143760  
C    -1.1048510   -1.5277680   -0.9996240  
C    -2.2888930   -0.9223740   -0.5013190  
N    -1.9917580    0.3892410   -0.2150190  
C    -3.4940060   -1.6372070   -0.3091460  
C    -3.4798380   -2.9795510   -0.7041540  
O    -4.6154610   -3.7277900   -0.6225280  
C    -2.3042170   -3.5878720   -1.2161590  
O    -2.4711980   -4.9221420   -1.5462730  
C    -1.1218970   -2.8910160   -1.3544780  
H     0.9070980   -0.6255050   -1.3998440  
H    -2.6838910    1.1221240   -0.1305580  
H    -4.3854140   -4.6252440   -0.9198910  
H    -1.6436140   -5.2688500   -1.9102280  
H    -0.2304950   -3.3842130   -1.7376480  
C    -5.7832970    1.9943370   -1.3224280  
C    -6.8146240    1.9452140   -0.4490170  
C    -6.5756390    0.7492270    0.3522740  
C    -5.3080380    0.1748810   -0.2119860  
N    -4.8535880    0.9143670   -1.1833550  
C    -4.7069660   -1.0471810    0.3002410  
C    -5.3420850   -1.6109900    1.3709980  
O    -4.9010150   -2.7021590    2.0110800  
C    -6.6087850   -1.0536990    1.9574900  
O    -7.0994440   -1.6418820    2.9213280  
C    -7.2086930    0.1658000    1.3859380  
H    -7.6445720    2.6308550   -0.3489820  
H    -5.5609110   -2.8692490    2.7202620  
H    -8.1232950    0.5330310    1.8415210  
H    -5.5922390    2.7351440   -2.0898720  
