60


C     0.5011780    0.9771940    0.0233590  
C     0.3604920    2.3682980    0.0086690  
C     1.6666140    2.9270570   -0.0128810  
C     2.5846540    1.8375300   -0.0147570  
N     1.8524710    0.6867280    0.0097370  
C     4.0008570    2.0110130   -0.0342930  
C     4.4367210    3.3500070   -0.0502170  
O     5.7625230    3.6382060   -0.0679100  
C     3.5232310    4.4379900   -0.0438660  
O     4.1460320    5.6702610   -0.0627390  
C     2.1578340    4.2491030   -0.0250150  
H    -0.5614690    2.9216870    0.1190130  
H     2.2729060   -0.2383910    0.0711700  
H     5.8467380    4.6092970   -0.0575670  
H     3.4867960    6.3751040    0.0183690  
H     1.4809850    5.1007650   -0.0208790  
C    -3.7205200    1.0223940   -1.1599200  
C    -4.0708060   -0.2365110   -0.7656090  
C    -2.8845260   -0.8743650   -0.2181470  
C    -1.8170460    0.1298810   -0.3147660  
N    -2.3983080    1.2755540   -0.8424900  
C    -0.5070030   -0.0622630    0.0569400  
C    -0.1727700   -1.4475540    0.4785430  
O     0.9723850   -1.8315740    0.6547670  
C    -1.3332480   -2.4915700    0.7010580  
O    -1.0398780   -3.5752450    1.1822080  
C    -2.6794220   -2.1199920    0.2995520  
H    -3.4742720   -2.8477950    0.4246730  
H    -4.3304010    1.7815240   -1.6305850  
H    -1.8507990    2.0266280   -1.2387050  
C    -5.6388050   -2.0136000   -1.5338220  
C    -6.9505560   -2.3372800   -1.4334940  
C    -7.5914270   -1.3072040   -0.6431710  
C    -6.5246100   -0.3416340   -0.2797140  
N    -5.3475860   -0.8207100   -0.8541150  
C    -6.7239610    0.7702180    0.4715660  
C    -8.0738850    1.0499610    0.9556930  
O    -8.3452520    2.0271720    1.6365550  
C    -9.2217250    0.0459570    0.5734060  
O   -10.3578600    0.2697870    0.9599060  
C    -8.8754710   -1.1246120   -0.2378510  
H    -7.4315190   -3.2024480   -1.8663100  
H    -5.9312430    1.4613420    0.7367650  
H    -9.6732090   -1.8169590   -0.4893090  
H    -4.8380620   -2.5276980   -2.0485160  
C     4.9171450    0.8894910   -0.0254000  
C     6.2900960    0.8446110   -0.0496840  
C     6.6434610   -0.5487080   -0.0114280  
C     5.3284130   -1.2718020    0.0368610  
N     4.3352670   -0.4364750    0.0236510  
C     5.2464900   -2.7074630    0.0895370  
C     6.4137090   -3.3930110    0.0884060  
O     6.5079030   -4.7265350    0.1330730  
C     7.7614840   -2.6949590    0.0357420  
O     8.7576190   -3.4204990    0.0382480  
C     7.8138930   -1.2359830   -0.0131890  
H     6.9703160    1.6786890   -0.0869270  
H     4.2804640   -3.1983490    0.1338140  
H     7.4750120   -4.9137420    0.1204230  
H     8.7941230   -0.7710770   -0.0484160  
