60


C     3.7406340    0.0095890   -0.1798410  
C     4.4143050    1.1941510   -0.4594390  
C     3.4689660    2.2510220   -0.3875750  
C     2.2110970    1.6703830   -0.0547590  
N     2.4020960    0.3213140    0.0626540  
C     1.0244930    2.4327520    0.0577850  
C     1.1536880    3.8120770   -0.1410310  
O     0.0763960    4.6175490    0.0315900  
C     2.4078710    4.4016290   -0.4596560  
O     2.3431180    5.7720300   -0.6069260  
C     3.5530880    3.6459130   -0.5888140  
H     5.4655850    1.2593330   -0.6894810  
H     1.7045520   -0.3731190    0.2908900  
H     0.3474830    5.5232820   -0.2020390  
H     3.2084130    6.1145760   -0.8757730  
H     4.5025240    4.1158170   -0.8357710  
C    -0.6331800   -0.1833080    3.2944090  
C     0.2194760    0.5683990    2.5588100  
C    -0.5571000    1.0200030    1.4074730  
C    -1.8997760    0.4229470    1.6309360  
N    -1.9424980   -0.2727090    2.7312790  
C    -3.0049740    0.6450870    0.7093750  
C    -2.7655400    1.4708140   -0.3486300  
O    -3.6946230    1.8059310   -1.2600470  
C    -1.4110820    2.0443640   -0.6198890  
O    -1.2785690    2.6725680   -1.6661420  
C    -0.2839410    1.8278140    0.3493930  
H     1.2538610    0.8018770    2.7655620  
H    -3.2142050    2.3485070   -1.9256500  
H    -0.4394940   -0.6943670    4.2294930  
C    -4.8758020   -0.0471850    2.1928980  
C    -6.0470520   -0.7228020    2.1212930  
C    -6.2112900   -1.1723370    0.7580750  
C    -5.0187080   -0.6907190    0.0173940  
N    -4.2411000    0.0171130    0.9408310  
C    -4.7746240   -0.9738250   -1.2855160  
C    -5.7603470   -1.7637420   -2.0241380  
O    -5.6170890   -2.0618130   -3.2000660  
C    -7.0495160   -2.2459200   -1.2682340  
O    -7.8874250   -2.8932160   -1.8776040  
C    -7.1799840   -1.9051040    0.1482350  
H    -6.7306780   -0.9011030    2.9387510  
H    -3.8971230   -0.6354720   -1.8202030  
H    -8.0552910   -2.2700220    0.6770960  
H    -4.3964190    0.4157590    3.0414340  
C     7.7778130   -1.6251330   -0.8306740  
C     7.5752640   -2.9461800   -0.6361040  
C     6.1551520   -3.0724390   -0.3236860  
C     5.6381840   -1.6689230   -0.3777410  
N     6.5912580   -0.8364490   -0.6725840  
C     4.2262450   -1.3518660   -0.1194850  
C     3.4334070   -2.4343160    0.1738680  
O     2.1051610   -2.3328620    0.4412210  
C     3.9256770   -3.8272470    0.2354990  
O     3.1145360   -4.7176300    0.5144560  
C     5.3497750   -4.1090670   -0.0328130  
H     8.2934320   -3.7521810   -0.6941010  
H     1.8128220   -3.2580630    0.6104540  
H     5.6709350   -5.1449890    0.0206090  
H     8.6999520   -1.1161600   -1.0828810  
