60


C     2.4851850   -1.9433460    0.3391740  
C     3.5091520   -1.1161090   -0.0762370  
C     2.8950230    0.1586010   -0.3899430  
C     1.5074290    0.0226850   -0.1354710  
N     1.2897900   -1.2617490    0.3162740  
C     0.5946110    1.0745840   -0.3451390  
C     1.1062960    2.2824610   -0.8187260  
O     0.2683640    3.3356460   -1.0252740  
C     2.4929880    2.4238220   -1.0777250  
O     2.8343550    3.6763190   -1.5447760  
C     3.3839680    1.3855930   -0.8793670  
H     0.3845180   -1.6614160    0.5124670  
H     0.8055710    4.0627130   -1.3871320  
H     3.7679950    3.6883950   -1.8030170  
H     4.4392930    1.5192910   -1.1015530  
H     2.5312630   -2.9672550    0.6813040  
C    -1.5136750    1.7639710    0.8108570  
C    -2.8084580    1.3783950    0.8991130  
C    -2.9843070    0.2408670    0.0252480  
C    -1.6576790   -0.0072560   -0.5936380  
N    -0.7895810    0.9402330   -0.0646440  
C    -1.3962830   -0.9923830   -1.4943870  
C    -2.4826260   -1.8855040   -1.8705790  
O    -2.3441830   -2.8133480   -2.6534090  
C    -3.8996170   -1.6452380   -1.2366340  
O    -4.8224730   -2.3522140   -1.6000690  
C    -4.0675860   -0.5477910   -0.2498720  
H    -3.5774850    1.8516100    1.4886200  
H    -0.4261560   -1.1370170   -1.9565220  
H    -1.0002330    2.5802490    1.2982600  
C    -6.8237160    2.9009600   -0.3448780  
C    -7.9098270    2.4182920    0.2998080  
C    -7.5472300    1.0588200    0.6879610  
C    -6.1476980    0.8918670    0.1706190  
N    -5.7357560    1.9704690   -0.4285790  
C    -5.4063200   -0.3487340    0.3399920  
C    -6.0502830   -1.3446940    1.0135530  
O    -5.4908930   -2.5275860    1.2967980  
C    -7.4516150   -1.1993390    1.5431550  
O    -7.9349410   -2.1590360    2.1408660  
C    -8.1807480    0.0650090    1.3382320  
H    -8.8523570    2.9119290    0.4914410  
H    -6.1889820   -3.0456930    1.7557330  
H    -9.1925030    0.1257620    1.7274740  
H    -6.6928720    3.8796490   -0.7910960  
C     5.4376830   -2.6619520   -0.6588350  
C     4.9093870   -1.5009420   -0.1818880  
C     6.0898370   -0.7423230    0.2907900  
C     7.2475100   -1.6328200   -0.0131190  
N     6.8571350   -2.7500150   -0.5584840  
C     8.5987490   -1.2464360    0.3019690  
C     8.7928550   -0.0544210    0.9158930  
O     9.9982590    0.4279800    1.2677420  
C     7.6449780    0.8474920    1.2635440  
O     7.8975220    1.9174190    1.8168480  
C     6.2656780    0.4315500    0.9255190  
H     9.4216430   -1.9092300    0.0577460  
H     9.8180230    1.2958910    1.6901640  
H     5.4624960    1.1059470    1.2060060  
H     4.8986200   -3.4889450   -1.1056140  
