62


C     1.5721070   -1.6049900    3.3044850  
C     0.5538440   -1.5654110    2.3885110  
C     1.1437060   -1.2478440    1.1192110  
C     2.5405200   -1.1165660    1.3288630  
N     2.7722510   -1.3511310    2.6674940  
C     3.4663250   -0.7853690    0.3091880  
C     2.9069880   -0.5855610   -0.9578900  
O     3.7067080   -0.2643350   -2.0189240  
C     1.5164810   -0.7274880   -1.1887260  
O     1.1501290   -0.4986850   -2.4990650  
C     0.6109050   -1.0646010   -0.1824860  
H    -0.4941540   -1.7361450    2.5870230  
H     3.6655410   -1.2281380    3.1192090  
H     3.1212100   -0.1624320   -2.7909120  
H     0.1788560   -0.4686970   -2.5510880  
H     1.5483510   -1.8043830    4.3665030  
C    -2.9951030    1.2735510    1.1385780  
C    -1.7302340    0.7965060    0.9665520  
C    -1.8156130   -0.3393150    0.0889080  
C    -3.1826860   -0.5144070   -0.2395430  
N    -3.9037350    0.4852370    0.4254480  
C    -3.6208940   -1.4888000   -1.1414430  
C    -2.6620360   -2.3251090   -1.6947640  
O    -3.0412780   -3.3079950   -2.5628240  
C    -1.2927270   -2.1762900   -1.3686090  
O    -0.4629350   -3.0882390   -1.9857040  
C    -0.8405530   -1.1892110   -0.4870570  
H    -0.8327610    1.2009870    1.4116440  
H    -4.6610950   -1.6284170   -1.4031040  
H    -2.2400500   -3.8086980   -2.7955620  
H     0.4216400   -3.0260210   -1.5856170  
H    -3.3545120    2.1163320    1.7065510  
C     5.6478520   -1.4918380    1.3993620  
C     4.9020020   -0.6885940    0.5846590  
C     5.8695630    0.3373260    0.1259930  
C     7.1500500   -0.0437750    0.7861410  
N     7.0116450   -1.1130370    1.5208760  
C     8.3572720    0.7187020    0.5989340  
C     8.2952630    1.8218690   -0.1840550  
O     9.3387120    2.6299420   -0.4405110  
C     7.0145090    2.2437520   -0.8442710  
O     7.0342030    3.2595900   -1.5386130  
C     5.7909050    1.4363290   -0.6464950  
H     9.2743040    0.4070210    1.0866900  
H     8.9832840    3.3308340   -1.0300660  
H     4.8943230    1.7571880   -1.1629980  
H     5.3165970   -2.3857820    1.9156110  
C    -6.0961390    4.1783930   -0.1511000  
C    -7.3754890    3.7436810   -0.1249370  
C    -7.2856180    2.3026450    0.0965140  
C    -5.8151910    2.0413770    0.1820220  
N    -5.1293570    3.1351800    0.0379900  
C    -5.2906950    0.6960440    0.3956420  
C    -6.2076020   -0.3043140    0.5551820  
O    -5.8818040   -1.5845830    0.8106290  
C    -7.6763830   -0.0593090    0.4593740  
O    -8.4277110   -1.0226590    0.6196160  
C    -8.1825900    1.3077300    0.2164690  
H    -8.2829290    4.3187810   -0.2455870  
H    -6.7414110   -2.0589930    0.8668240  
H    -9.2593330    1.4345650    0.1593860  
H    -5.7341210    5.1892790   -0.2932870  
