62


C     0.6939590   -1.2770240   -0.2867980  
C     0.8373010   -2.6562400   -0.1302160  
C     2.2199530   -2.9479500   -0.1951860  
C     2.9085530   -1.7069230   -0.3844170  
N     1.9595570   -0.7243610   -0.4350100  
C     4.3146110   -1.6088420   -0.5142310  
C     5.0037410   -2.8259970   -0.4850030  
O     6.3541180   -2.8447950   -0.6273930  
C     4.3295590   -4.0703680   -0.2916270  
O     5.1876300   -5.1494060   -0.2687850  
C     2.9653390   -4.1488270   -0.1398910  
H     0.0280180   -3.3599280    0.0070980  
H     2.0862390    0.2624290   -0.6138060  
H     6.6441490   -3.7692560   -0.5262200  
H     4.6895790   -5.9626480   -0.0979390  
H     2.4727400   -5.1077090    0.0025430  
C    -0.4444970   -0.4232770   -0.3218560  
C    -1.7884010   -0.7037420   -0.2091410  
C    -2.4613450    0.5486510   -0.3386010  
C    -1.3543070    1.5441150   -0.5361480  
N    -0.1818650    0.9785070   -0.5194430  
C    -1.6151970    2.9453940   -0.7264630  
C    -2.9114790    3.3219970   -0.7707760  
O    -3.3204960    4.5806390   -0.9727500  
C    -4.0498880    2.3301720   -0.6274400  
O    -5.1846940    2.8231460   -0.7801020  
C    -3.7921910    0.9216370   -0.3333810  
H    -2.2492650   -1.6680880   -0.0603420  
H    -0.8000380    3.6490740   -0.8494760  
H    -4.3036550    4.5306180   -0.9857970  
C    -4.4196150   -2.0060010    3.0129690  
C    -3.9251440   -1.0236510    2.1945770  
C    -4.8425640   -0.8757680    1.0979640  
C    -5.8952560   -1.8047510    1.3234120  
N    -5.6014800   -2.4892500    2.4853430  
C    -7.0088300   -1.9182280    0.4869190  
C    -7.0728620   -1.0479950   -0.5907090  
O    -8.1368100   -1.0855540   -1.4378700  
C    -6.0452850   -0.1009350   -0.8390340  
O    -6.2624260    0.6674230   -1.9650010  
C    -4.9017880   -0.0123170   -0.0375950  
H    -3.0101700   -0.4737040    2.3557700  
H    -6.1950620   -3.1802840    2.9160950  
H    -7.8131000   -2.6253020    0.6631630  
H    -7.9756750   -0.3724660   -2.0858800  
H    -6.0816080    1.5987200   -1.7112700  
H    -4.0239890   -2.4077730    3.9351680  
C     6.0543200   -0.0259690   -1.5023430  
C     5.0144040   -0.3301600   -0.6758850  
C     4.7933370    0.9157260    0.0895460  
C     5.7986390    1.8723220   -0.4693700  
N     6.5260990    1.3128080   -1.3938170  
C     5.9123890    3.2223690    0.0170760  
C     5.1050040    3.6002210    1.0365400  
O     5.1097180    4.8223810    1.5931250  
C     4.1186270    2.6477100    1.6534500  
O     3.4339070    3.0569700    2.5885960  
C     4.0047050    1.2715100    1.1228140  
H     6.6408360    3.8946050   -0.4226080  
H     4.4318270    4.7887480    2.3033680  
H     3.2811580    0.6206830    1.6031530  
H     6.5395350   -0.6892300   -2.2060360  
