62


C    -1.3263860   -1.4647040    0.4796040  
C    -0.5462020   -0.3781800    0.1372070  
C    -1.4700630    0.7121130   -0.1131390  
C    -2.7766660    0.2184340    0.1128270  
N    -2.6531190   -1.1037890    0.4786350  
C    -3.9552980    0.9785680   -0.1013940  
C    -3.7584060    2.2920660   -0.5626230  
O    -4.8066830    3.1258330   -0.7353780  
C    -2.4483290    2.7936730   -0.7991890  
O    -2.4388520    4.1002560   -1.2403190  
C    -1.3161270    2.0347140   -0.5847220  
H    -3.4363400   -1.7264070    0.6130900  
H    -4.4556430    3.9680420   -1.0769620  
H    -1.5315890    4.3762820   -1.4380520  
H    -0.3301820    2.4482810   -0.7793580  
H    -1.0229440   -2.4637710    0.7572870  
C     2.4003870   -3.0916170   -1.8822530  
C     1.2558170   -2.5018850   -1.4189280  
C     1.6542810   -1.3790460   -0.6167530  
C     3.0721220   -1.3465610   -0.6246090  
N     3.4984020   -2.4105210   -1.3878510  
C     3.8365360   -0.3407980    0.0209570  
C     3.0815040    0.6687560    0.6399700  
O     3.7072130    1.6977730    1.2926320  
C     1.6705170    0.6437090    0.6595150  
O     1.1164550    1.6992570    1.3612970  
C     0.9226600   -0.3664500    0.0555870  
H     0.2447090   -2.8124870   -1.6372770  
H     4.4495600   -2.5359270   -1.6991060  
H     3.0083460    2.2296680    1.7160560  
H     0.1749070    1.5153280    1.5195730  
H     2.5345410   -3.9514420   -2.5230280  
C     5.2908480   -0.3677440    0.0425300  
C     6.1516870   -1.4340760   -0.1164290  
C     7.4988340   -0.9454990   -0.0095820  
C     7.3844110    0.5154590    0.2276820  
N     6.0369620    0.8002810    0.2254320  
C     8.4426080    1.3478910    0.4025330  
C     9.7871900    0.7825580    0.3522530  
O    10.7977860    1.4545270    0.4996750  
C     9.9330790   -0.7630780    0.0949000  
O    11.0547650   -1.2488050    0.0457060  
C     8.7172900   -1.5537960   -0.0753990  
H     5.8721440   -2.4738330   -0.1973280  
H     8.3396040    2.4145200    0.5772330  
H     8.8309420   -2.6199570   -0.2481020  
H     5.6164040    1.6689090    0.5219760  
C    -5.2740240    0.4104990    0.1334420  
C    -5.6382130   -0.5014430    1.0945390  
C    -7.0382300   -0.7729440    0.8716430  
C    -7.3838170    0.0668970   -0.3226280  
N    -6.3645260    0.7552510   -0.7432290  
C    -8.7091780    0.0625210   -0.8877310  
C    -9.6445360   -0.7095240   -0.2870220  
O   -10.9175970   -0.8087450   -0.6929670  
C    -9.3295000   -1.5528420    0.9299200  
O   -10.2512810   -2.2209800    1.4000330  
C    -7.9709150   -1.5450870    1.4784180  
H    -5.0437860   -0.8610330    1.9237220  
H    -8.9313570    0.6712140   -1.7569910  
H   -11.3398570   -1.4352290   -0.0622220  
H    -7.7812390   -2.1691580    2.3464000  
