60


C    -1.7908380   -0.3370280    0.5099880  
C    -3.0791390   -0.2260970    0.0156950  
C    -3.2848170    1.1910770   -0.2504630  
C    -2.0875700    1.8602510    0.1005060  
N    -1.1781150    0.8992920    0.5539450  
C    -1.9141990    3.2410460   -0.0251960  
C    -2.9908460    3.9796120   -0.4899180  
O    -2.8814870    5.3313320   -0.6277620  
C    -4.2097720    3.3359480   -0.8194570  
O    -5.1958960    4.1970560   -1.2608030  
C    -4.3697950    1.9676050   -0.7024480  
H    -1.0002070    3.7463820    0.2609220  
H    -3.7467220    5.6611280   -0.9258930  
H    -6.0106490    3.6976110   -1.4189990  
H    -5.3061560    1.5011400   -0.9850040  
H    -1.2931370   -1.2080600    0.9051200  
C     2.3802660   -0.8743620   -1.0922620  
C     3.3311920   -0.3390510   -0.2678890  
C     2.6134730    0.5302770    0.6719160  
C     1.1850280    0.4416500    0.3023020  
N     1.1100280   -0.4211830   -0.7691070  
C     0.1683830    1.1067370    0.9274140  
C     0.5172100    1.9864100    2.0531900  
O    -0.3086810    2.5991370    2.7061370  
C     2.0431470    2.1350150    2.4155230  
O     2.3526560    2.9236000    3.2923740  
C     3.0296970    1.3370080    1.6808140  
H     4.0663150    1.4128980    1.9862450  
H     2.5082530   -1.5877870   -1.8961330  
H     0.2454020   -0.7217940   -1.1945490  
C     6.1105470   -0.1718280   -3.6627810  
C     7.2534350   -0.5666440   -3.0469380  
C     6.9331860   -0.8091840   -1.6553720  
C     5.4859040   -0.5244530   -1.5113920  
N     5.0367440   -0.1822920   -2.7747510  
C     4.7761260   -0.5883720   -0.3428410  
C     5.5352590   -0.9852990    0.8604220  
O     5.0203770   -1.0882600    1.9616770  
C     7.0709230   -1.3073790    0.7223110  
O     7.6866500   -1.6288440    1.7260530  
C     7.6911650   -1.1978330   -0.5948350  
H     8.2247000   -0.6808100   -3.5057820  
H     8.7511260   -1.4169350   -0.6771980  
H     5.9485720    0.1110150   -4.6946140  
H     4.1433060    0.2568020   -2.9418700  
C    -3.2867630   -3.9777720    2.2869290  
C    -4.3565300   -4.5924030    1.7370720  
C    -4.8176170   -3.6866310    0.6896910  
C    -3.8763650   -2.5229910    0.7607170  
N    -2.9898580   -2.7070710    1.6947700  
C    -3.9933800   -1.3572080   -0.1280620  
C    -4.9870030   -1.4529170   -1.0677880  
O    -5.2070250   -0.5262800   -2.0301430  
C    -5.9273560   -2.6009140   -1.1592490  
O    -6.7808430   -2.5801350   -2.0528970  
C    -5.8085710   -3.7298440   -0.2169380  
H    -4.7930740   -5.5459560    1.9998710  
H    -5.9656730   -0.8868260   -2.5435810  
H    -6.5203250   -4.5434260   -0.3199460  
H    -2.6555950   -4.3240150    3.0963640  
