60


C    -2.9061280    0.9149220   -0.0762590  
C    -1.5498190    1.0534730    0.2263780  
C    -1.1594080    2.3660770   -0.1330880  
C    -2.3303880    3.0167920   -0.6454100  
N    -3.3533320    2.1130640   -0.6108010  
C    -2.3380220    4.3537440   -1.0538130  
C    -1.1533810    5.0549910   -0.9103160  
O    -1.0871940    6.3595750   -1.2586930  
C     0.0321420    4.4403840   -0.3931410  
O     1.1001430    5.2963040   -0.3444340  
C     0.0751520    3.0929880   -0.0407180  
H    -0.9327410    0.2835790    0.6654900  
H    -4.3191160    2.2460070   -0.8784810  
H    -3.2231820    4.8496660   -1.4368410  
H    -0.1820280    6.6521090   -1.0321370  
H     1.5733570    5.1209030    0.5044860  
C     2.0156090   -0.6508340   -1.3694880  
C     1.2369200    0.4500270   -1.2392900  
C     1.7264880    1.2077730   -0.1126050  
C     2.8795570    0.4459340    0.4216250  
N     2.9951260   -0.7115360   -0.3672100  
C     3.6658500    0.8638530    1.4410800  
C     3.3446920    2.1431060    2.0589390  
O     3.9537610    2.5975930    3.0124660  
C     2.1821990    2.9983900    1.4436570  
O     2.0863510    4.1585880    1.8411630  
C     1.3100080    2.4132580    0.4132400  
H     0.3969930    0.7108180   -1.8636130  
H     4.4906140    0.2952110    1.8502900  
H     1.9604730   -1.4527160   -2.0924810  
C     5.6469230   -2.6471280   -3.3230150  
C     4.7463060   -1.7890780   -2.7827160  
C     4.6592020   -2.1720220   -1.3781970  
C     5.6019330   -3.3209910   -1.2543530  
N     6.1765570   -3.5915300   -2.3926020  
C     5.8288040   -3.9960820   -0.0016600  
C     5.1513860   -3.5610210    1.0847180  
O     5.2748410   -4.0931330    2.3118660  
C     4.1694550   -2.4272190    1.0053900  
O     3.5316470   -2.1474720    2.0144250  
C     3.9759550   -1.7119500   -0.2983620  
H     4.2303790   -0.9742410   -3.2701460  
H     6.5283710   -4.8227920    0.0477200  
H     4.6368970   -3.6157430    2.8836510  
H     5.9991460   -2.6799220   -4.3469820  
C    -3.8168690   -0.1700560    0.0709170  
C    -3.6338050   -1.4406600    0.5710130  
C    -4.9065840   -2.0835120    0.4689820  
C    -5.8065320   -1.0395230   -0.1380360  
N    -5.1665740    0.0714640   -0.3671750  
C    -7.1939980   -1.3041650   -0.4057900  
C    -7.6635680   -2.5345360   -0.0895400  
O    -8.9251360   -2.9325650   -0.2772460  
C    -6.7819650   -3.6111360    0.5241410  
O    -7.3332430   -4.6907310    0.7645380  
C    -5.3847810   -3.3207600    0.7858730  
H    -2.7232990   -1.8688700    0.9660930  
H    -7.8248060   -0.5382350   -0.8429290  
H    -8.9418520   -3.8634360    0.0509480  
H    -4.7809900   -4.1080880    1.2258270  
