60


C    -1.0434460   -0.4846640    1.1469320  
C    -2.2603470   -0.5527690    0.5006200  
C    -2.3591830   -1.9009570   -0.0309360  
C    -1.1666300   -2.5771390    0.3232240  
N    -0.3740350   -1.6895360    1.0557290  
C    -0.9073550   -3.9063800   -0.0257700  
C    -1.8669880   -4.5671010   -0.7784620  
O    -1.6666010   -5.8635590   -1.1499300  
C    -3.0597580   -3.9023720   -1.1608830  
O    -3.9197070   -4.6846120   -1.9064540  
C    -3.3147220   -2.5911590   -0.8002700  
H    -0.0034180   -4.4261590    0.2712010  
H    -2.4529990   -6.1449510   -1.6488250  
H    -4.7344810   -4.1908530   -2.0817930  
H    -4.2487770   -2.1161860   -1.0808880  
H    -0.5801720    0.3483490    1.6500700  
C    -1.3392780    3.6842940   -0.0824700  
C    -2.5972260    4.2390580   -0.0994190  
C    -3.5133110    3.1447630    0.0605740  
C    -2.6374490    1.9319630    0.1839190  
N    -1.3826450    2.2531470    0.0900620  
C    -3.1743360    0.5819680    0.3634960  
C    -4.5389340    0.5052890    0.3814630  
O    -5.2229360   -0.6432440    0.5519080  
C    -5.4386990    1.6974300    0.2451180  
O    -6.6564630    1.4884920    0.2955880  
C    -4.8634290    3.0320810    0.0830050  
H    -2.8607450    5.2783680   -0.2388210  
H    -6.1686760   -0.3638700    0.5442170  
H    -5.5502710    3.8671580   -0.0117510  
C     0.2678560    5.6375490   -0.2778910  
C    -0.0553320    4.3005820   -0.2180710  
C     1.2520370    3.6168400   -0.3373280  
C     2.2319170    4.7287650   -0.4579340  
N     1.6371120    5.9002900   -0.4203770  
C     3.6387510    4.4909090   -0.5995040  
C     4.0603740    3.2010210   -0.6287910  
O     5.3417040    2.8321180   -0.7572590  
C     3.0921120    2.0525370   -0.5220300  
O     3.5528300    0.9128730   -0.5667940  
C     1.6463870    2.3298380   -0.3718230  
H     4.3266270    5.3249850   -0.6815790  
H     5.3378580    1.8495620   -0.7468700  
H     0.9619990    1.4930420   -0.2963960  
H    -0.4164410    6.4761010   -0.2173080  
C     1.3504950   -1.7552830    2.8411270  
C     0.9113580   -1.9222970    1.5671260  
C     2.1177780   -2.2161420    0.7755670  
C     3.2090180   -2.2036330    1.7912020  
N     2.7543080   -1.9377110    2.9856050  
C     4.5779680   -2.4495580    1.4205140  
C     4.8532680   -2.6339230    0.1070770  
O     6.0848040   -2.8505260   -0.3827430  
C     3.7736250   -2.6115560   -0.9418470  
O     4.1074520   -2.7889630   -2.1109170  
C     2.3684230   -2.3980480   -0.5328630  
H     5.3522690   -2.4572000    2.1796540  
H     5.9657760   -2.9497790   -1.3530110  
H     1.6118030   -2.4063200   -1.3110960  
H     0.7581490   -1.4976490    3.7108310  
