58


C    -0.1498630   -1.1093470   -0.4228360  
C    -0.3725830   -2.4398870   -0.6670630  
C    -1.7934150   -2.6588860   -0.6763070  
C    -2.4136470   -1.3400080   -0.3969170  
N    -1.3713560   -0.4561660   -0.2205760  
C    -3.7592750   -1.1165070   -0.2846090  
C    -4.6382450   -2.2563390   -0.6503360  
O    -5.8289570   -2.1242390   -0.8661740  
C    -3.9989400   -3.6759650   -0.8415540  
O    -4.7417460   -4.6380790   -0.9703710  
C    -2.5459740   -3.7784870   -0.8704630  
H     0.3868940   -3.1814680   -0.8692890  
H    -2.1074840   -4.7579190   -1.0353520  
H    -1.5018870    0.5451980   -0.2460490  
C     2.2810900   -0.9377700    0.1173240  
C     1.1080890   -0.3965800   -0.3293320  
C     1.3934230    0.9900710   -0.6808160  
C     2.8291110    1.2044250   -0.3847210  
N     3.3158000   -0.0110460    0.1222190  
C     3.4947350    2.3546210   -0.6404670  
C     2.7506890    3.4818840   -1.2099230  
O     3.2735020    4.5561630   -1.4559290  
C     1.2281120    3.2813350   -1.5186110  
O     0.5858050    4.2046350   -1.9916550  
C     0.6347780    1.9711320   -1.2347100  
H     4.5485640    2.4962710   -0.4410930  
H    -0.4030280    1.8318140   -1.5180370  
H     2.4681020   -1.9414050    0.4669720  
C     5.7612960   -3.4215700   -0.9011970  
C     6.9247910   -3.1217870   -0.2819440  
C     6.6877690   -1.8470470    0.3902560  
C     5.2720740   -1.5191890    0.0441410  
N     4.7350500   -2.4369680   -0.7006850  
C     4.6349830   -0.3001840    0.5219700  
C     5.3664590    0.5059250    1.3446260  
O     4.8966070    1.6309280    1.9025840  
C     6.7904620    0.1935690    1.6922800  
O     7.3718500    0.9804590    2.4374070  
C     7.4247350   -1.0332940    1.1692950  
H     7.8455230   -3.6880450   -0.2762190  
H     5.6470140    1.9940990    2.4264980  
H     8.4554310   -1.2181550    1.4555170  
H     5.5266270   -4.2876500   -1.5072080  
C    -6.8392260   -0.3262310    2.7055760  
C    -7.1005780    0.9874130    2.5265230  
C    -6.1671050    1.4211260    1.4894140  
C    -5.4267260    0.1751820    1.1211990  
N    -5.7991310   -0.8285160    1.8525430  
C    -4.3746060    0.1618550    0.1006300  
C    -4.0304290    1.3855030   -0.3917680  
O    -3.0366780    1.5860400   -1.2957650  
C    -4.7413640    2.6494480   -0.0263910  
O    -4.3713000    3.6876230   -0.5776640  
C    -5.8453900    2.6109310    0.9490880  
H    -7.8201770    1.6067580    3.0435600  
H    -3.0790530    2.5507030   -1.4989130  
H    -6.3240120    3.5539340    1.1951540  
H    -7.3090980   -1.0155670    3.3963500  
