62


C    -1.2412070    0.1719070    0.8417450  
C    -0.9260980    1.4239530    0.3852270  
C    -2.0207870    1.8297400   -0.4821580  
C    -2.9554820    0.7699640   -0.5182610  
N    -2.4565870   -0.2596320    0.3030880  
C    -4.1617760    0.8628420   -1.2189660  
C    -4.4073610    2.0320050   -1.9276580  
O    -5.5677410    2.1611510   -2.6279870  
C    -3.4605640    3.0870530   -1.9346360  
O    -3.8364800    4.1716110   -2.6952970  
C    -2.2780060    3.0000580   -1.2199810  
H    -4.8985480    0.0695730   -1.2399100  
H    -5.5536630    3.0331060   -3.0594630  
H    -3.1401600    4.8452260   -2.6745760  
H    -1.5681070    3.8227900   -1.2216110  
H    -0.6973850   -0.4600320    1.5240340  
C     3.4721650    0.4047230    0.1389020  
C     2.0761250    0.3708670    0.0880230  
C     1.5951740    1.6238660    0.5618440  
C     2.7395350    2.4056570    0.8915400  
N     3.8492090    1.6414720    0.6374710  
C     2.6490690    3.7180320    1.3688550  
C     1.3782250    4.2501890    1.5134560  
O     1.2222500    5.5167760    1.9896220  
C     0.2222660    3.4902300    1.1830860  
O    -0.9610900    4.1688480    1.4039340  
C     0.2952030    2.1845780    0.7074630  
H     1.4697560   -0.4099650   -0.3469710  
H     4.8227300    1.9202390    0.6664580  
H     3.5183740    4.3132800    1.6265830  
H     0.2654670    5.6776000    2.0676200  
H    -1.7044980    3.5479120    1.3309460  
C     3.1589210   -3.9361570   -0.4941550  
C     4.4219380   -4.1888150   -0.9247300  
C     5.1447700   -2.9354650   -0.9039120  
C     4.1844010   -1.9180180   -0.4397730  
N     2.9845700   -2.5778360   -0.2443220  
C     4.4608660   -0.5823850   -0.2466190  
C     5.8795620   -0.2056190   -0.4367920  
O     6.3268270    0.8981220   -0.1483720  
C     6.8934630   -1.2591690   -1.0281430  
O     8.0248470   -0.8738790   -1.2848390  
C     6.4368540   -2.6233830   -1.2157080  
H     4.8196920   -5.1471640   -1.2254500  
H     7.1458190   -3.3547190   -1.5898650  
H     2.3300350   -4.6175080   -0.3544550  
H     2.2374690   -2.1877410    0.3118140  
C    -4.4189140   -3.4335750   -2.1290380  
C    -3.7583800   -2.2900410   -1.8203020  
C    -3.6387590   -2.3014690   -0.3654830  
C    -4.3070070   -3.5650800    0.0392030  
N    -4.7596150   -4.2239700   -0.9928380  
C    -4.3803010   -3.9966380    1.4131820  
C    -3.7869560   -3.2263520    2.3516360  
O    -3.7532400   -3.5258220    3.6642090  
C    -3.0848770   -1.9523500    1.9965940  
O    -2.5694130   -1.3124840    2.9097360  
C    -3.0523100   -1.4954720    0.5627820  
H    -3.3826050   -1.5355500   -2.4951160  
H    -4.8842490   -4.9240110    1.6614950  
H    -3.2761020   -2.7856870    4.0955540  
H    -4.6932650   -3.7962450   -3.1122760  
