60


C     3.9468650    1.8315730    0.2224410  
C     3.8126130    3.2082930    0.3544470  
C     2.4525650    3.5235660    0.1007400  
C     1.7812410    2.2983160   -0.2010090  
N     2.7100530    1.3026750   -0.1227960  
C     0.3930420    2.2286910   -0.4933340  
C    -0.2972540    3.4466150   -0.4151590  
O    -1.6437780    3.4989810   -0.6437870  
C     0.3639970    4.6703260   -0.1186370  
O    -0.4886320    5.7540750   -0.1131730  
C     1.7175740    4.7282260    0.1259310  
H     4.6027010    3.8997000    0.6119490  
H     2.5606830    0.3041830   -0.1745400  
H    -1.9137040    4.4302750   -0.5406230  
H    -0.0013940    6.5618280    0.1074330  
H     2.2032680    5.6754600    0.3475690  
C    -0.2552850    0.9709690   -0.8463330  
C     0.2883980   -0.1844550   -1.3604320  
C    -0.7679400   -1.1493320   -1.5105070  
C    -2.0052550   -0.4777140   -1.0515860  
N    -1.6291380    0.7894400   -0.6718640  
C    -3.2523300   -1.0444940   -1.0252160  
C    -3.3437940   -2.4424330   -1.4880180  
O    -4.3970830   -3.0586720   -1.5253720  
C    -2.0358310   -3.1745530   -1.9715730  
O    -2.1262940   -4.3373500   -2.3366490  
C    -0.7797560   -2.4367960   -1.9582020  
H     1.3084210   -0.3308680   -1.6818420  
H     0.1145800   -2.9486860   -2.2996150  
H    -2.2468530    1.5044090   -0.3200250  
C    -4.8173300    0.9361750   -1.0585500  
C    -4.4572330   -0.3078190   -0.6230310  
C    -5.4973500   -0.7219620    0.3261110  
C    -6.4719320    0.3943420    0.3934200  
N    -5.9916860    1.3717490   -0.4570510  
C    -7.5929260    0.4020830    1.1592720  
C    -7.8626530   -0.7563880    2.0024680  
O    -8.8399310   -0.8418890    2.7310870  
C    -6.8293220   -1.9406610    1.9716190  
O    -7.0175540   -2.9079370    2.6909460  
C    -5.6661070   -1.8371650    1.0789080  
H    -8.2937970    1.2310860    1.1823100  
H    -4.9877210   -2.6812410    1.0397770  
H    -4.3212060    1.5652220   -1.7867840  
H    -6.4959990    2.2068030   -0.7109730  
C     5.0551310    0.9403650    0.3779040  
C     6.3663590    1.1835740    0.7003460  
C     7.0051900   -0.1026030    0.7125190  
C     5.9063030   -1.0708280    0.3645720  
N     4.7746770   -0.4574160    0.1706140  
C     6.1462360   -2.4856200    0.2746280  
C     7.4065080   -2.9195750    0.5148150  
O     7.7839250   -4.2000450    0.4690550  
C     8.5380250   -1.9688750    0.8674540  
O     9.6423350   -2.4796490    1.0643240  
C     8.2695730   -0.5382100    0.9536210  
H     6.8323550    2.1373180    0.9040250  
H     5.3388720   -3.1644200    0.0238460  
H     8.7450350   -4.1911980    0.6874820  
H     9.0995690    0.1130850    1.2084680  
