60


C     2.0827880    2.2779550   -1.9573080  
C     3.3109570    1.7991870   -1.5920000  
C     3.0968640    0.6057390   -0.8231740  
C     1.6906380    0.4112050   -0.7706070  
N     1.0980340    1.4394170   -1.4661280  
C     1.1006960   -0.6933410   -0.1295990  
C     1.9603530   -1.6369820    0.4255240  
O     1.4562590   -2.7470940    1.0299700  
C     3.3662950   -1.4749360    0.3584580  
O     4.0597210   -2.4872900    0.9877200  
C     3.9638930   -0.3512100   -0.2244690  
H     4.2599800    2.2536140   -1.8292230  
H     0.1047880    1.5864240   -1.5540140  
H     2.2376620   -3.2521290    1.3302080  
H     4.7723530   -2.7906900    0.3853140  
H     1.8175040    3.1558240   -2.5287130  
C    -0.9726450   -2.0236030   -0.5362380  
C    -2.3148350   -1.9300980   -0.3457410  
C    -2.5676300   -0.6551010    0.2788370  
C    -1.2469020   -0.0048950    0.4474320  
N    -0.3068560   -0.8828590   -0.0857270  
C    -1.0512860    1.2172380    1.0108690  
C    -2.2184070    1.9570780    1.4743740  
O    -2.1572860    3.0807560    1.9470550  
C    -3.6333150    1.2789790    1.3578350  
O    -4.6018250    1.8449280    1.8309640  
C    -3.7186240   -0.0438170    0.6999870  
H    -3.0519120   -2.6663090   -0.6289770  
H    -0.0719070    1.6624030    1.1435730  
H    -0.3944140   -2.8243710   -0.9741790  
C    -5.2355640   -1.9511340    1.2170920  
C    -6.5216390   -2.3276500    1.0171930  
C    -7.1672820   -1.2774990    0.2593680  
C    -6.1353520   -0.2356400    0.0347340  
N    -4.9656410   -0.6995540    0.6451070  
C    -6.3432240    0.8961180   -0.6802000  
C    -7.6707040    1.1259620   -1.2496190  
O    -7.9418790    2.1110620   -1.9185920  
C    -8.7864340    0.0484810   -0.9969440  
O    -9.9021760    0.2296590   -1.4592780  
C    -8.4300390   -1.1430560   -0.2242540  
H    -6.9844610   -3.2376110    1.3711530  
H    -5.5838190    1.6521080   -0.8411980  
H    -9.1983820   -1.8950900   -0.0722190  
H    -4.4437000   -2.4584070    1.7517080  
C     6.5105150    3.0500480    0.9984660  
C     7.7536170    2.5838140    0.7501120  
C     7.5573130    1.2304640    0.2355190  
C     6.0691470    1.0555130    0.2222710  
N     5.4705350    2.1131640    0.6769050  
C     5.4332190   -0.1894080   -0.2220860  
C     6.3026730   -1.1809840   -0.5634160  
O     5.9022770   -2.4213890   -0.9622310  
C     7.7870250   -1.0374300   -0.5556510  
O     8.4550150   -2.0110860   -0.9100900  
C     8.3888420    0.2406140   -0.1372580  
H     8.7016830    3.0785430    0.9089480  
H     6.7414450   -2.9026330   -1.1566120  
H     9.4724620    0.3073960   -0.1375300  
H     6.2216550    4.0137240    1.3994620  
