58


C    -2.4197630    0.9882400    0.7897590  
C    -1.3092660    0.1963080    0.7504460  
C    -1.6908240   -1.0611150    0.1751540  
C    -3.1373960   -0.9504270   -0.1075990  
N    -3.5280850    0.3396280    0.2670510  
C    -3.8975590   -1.9210560   -0.6704080  
C    -3.2631080   -3.1979320   -0.9658140  
O    -3.8437200   -4.1271100   -1.5007070  
C    -1.7572860   -3.3884010   -0.5744540  
O    -1.2945030   -4.5175010   -0.6808770  
C    -0.9759030   -2.2192940   -0.1082090  
H    -0.3425890    0.4638830    1.1441350  
H    -4.9509110   -1.8058180   -0.8959310  
H    -2.5307730    1.9908950    1.1805590  
C    -5.1157260    3.9104510   -1.7085610  
C    -4.3104750    2.8923130   -1.2944190  
C    -5.1120540    2.0305300   -0.4613240  
C    -6.4671820    2.6341450   -0.4168660  
N    -6.3932270    3.7781790   -1.1920150  
C    -7.5275440    2.1154970    0.2500970  
C    -7.3349350    0.8737380    0.9942630  
O    -8.2316830    0.3070250    1.5942080  
C    -5.8978520    0.2342270    1.0236790  
O    -5.6988290   -0.7508110    1.7114200  
C    -4.8373260    0.8749500    0.2196430  
H    -3.2738820    2.7511530   -1.5606400  
H    -8.5128450    2.5704020    0.2568140  
H    -4.8795040    4.7454150   -2.3550460  
H    -7.1651370    4.4005620   -1.3750090  
C     0.4610580   -2.3269540    0.0255290  
C     1.4301400   -1.3290970    0.0894560  
C     2.7098580   -1.9473520    0.1429360  
C     2.4579490   -3.4038270    0.0842610  
N     1.0911400   -3.5631560    0.0484920  
C     3.4216250   -4.3594860    0.0347240  
C     4.8145970   -3.9325570    0.0307510  
O     5.7485580   -4.7097680   -0.0902800  
C     5.1255320   -2.4051690    0.2149230  
O     6.2750390   -2.0859320    0.4524500  
C     4.0008960   -1.4299870    0.1791160  
H     1.2536180   -0.2704660    0.0086230  
H     3.2037110   -5.4202040   -0.0413610  
H     0.5756840   -4.4184270   -0.1255060  
C     4.2777140   -0.0154580    0.2266130  
C     3.5387570    0.9856780    0.8203400  
C     4.2480490    2.2095980    0.5634800  
C     5.4308700    1.7801090   -0.2527820  
N     5.4532140    0.4951050   -0.4389390  
C     6.3893900    2.7377110   -0.7454200  
C     6.2007210    4.0383140   -0.4221930  
O     7.0121070    5.0376730   -0.8000030  
C     5.0281290    4.4979400    0.4143750  
O     4.9441630    5.7076250    0.6435610  
C     4.0587880    3.5131630    0.8915650  
H     2.6633150    0.8719720    1.4435790  
H     7.2327230    2.4043770   -1.3397410  
H     6.6120730    5.8483890   -0.4109090  
H     3.2249190    3.8811910    1.4817750  
