58


C    -0.8289330    1.1389520   -1.1106320  
C    -0.2149240    0.2030650   -0.3124730  
C    -1.2880650   -0.6609970    0.1966400  
C    -2.5447540   -0.1442710   -0.3855010  
N    -2.1820880    0.9268540   -1.1834050  
C    -3.8122470   -0.6242760   -0.1549050  
C    -3.9007780   -1.7366440    0.8166940  
O    -4.9567670   -2.2452880    1.1542210  
C    -2.5776030   -2.2979550    1.4530090  
O    -2.6685120   -3.2084820    2.2596470  
C    -1.2997620   -1.7014060    1.0709520  
H    -0.4004590   -2.1232210    1.5002440  
H    -0.3701680    1.9370840   -1.6784670  
H    -2.8447290    1.5144080   -1.6684860  
C     2.8229370    3.3422330    0.5069520  
C     1.6406200    2.7137300    0.3058010  
C     1.9761440    1.3111610    0.1013660  
C     3.4615130    1.2689760    0.1914770  
N     3.9378380    2.4649540    0.4394780  
C     4.2296810    0.0400050    0.0297620  
C     3.4702780   -1.1028400    0.0048440  
O     3.9970350   -2.3320420    0.0388220  
C     1.9770670   -1.1023710   -0.0623170  
O     1.4172410   -2.1964550   -0.1265250  
C     1.2202780    0.1882780   -0.0685980  
H     0.6497740    3.1420650    0.3492380  
H     3.2447630   -2.9538870   -0.0692590  
H     2.9985640    4.3898380    0.7186120  
C     7.6710640    2.2194490    1.8723320  
C     8.6922570    1.5065340    1.3294520  
C     8.1024400    0.5274650    0.4445410  
C     6.6304410    0.7199550    0.5471080  
N     6.4360430    1.7376610    1.4547710  
C     5.6920940   -0.0288450   -0.1234290  
C     6.2419250   -0.9365080   -1.1666010  
O     5.5563460   -1.4229870   -2.0480360  
C     7.7813080   -1.2419600   -1.1856690  
O     8.1868600   -2.1393710   -1.9083630  
C     8.6549420   -0.4258760   -0.3532960  
H     9.7479350    1.6441110    1.5129670  
H     9.7241520   -0.6090230   -0.3990280  
H     7.7110090    3.0543160    2.5601520  
H     5.5691940    2.2826360    1.4000600  
C    -5.0776470    0.3444660   -2.1253530  
C    -4.9922530   -0.0996840   -0.8305430  
C    -6.3577850    0.1299580   -0.2952540  
C    -7.0966430    0.7398330   -1.4371410  
N    -6.3402810    0.8493400   -2.4988330  
C    -8.4748700    1.1352310   -1.3331040  
C    -9.0989360    0.9489350   -0.1450790  
O   -10.3763110    1.2759230    0.0978070  
C    -8.3803550    0.3463950    1.0299110  
O    -9.0054470    0.2187580    2.0796440  
C    -6.9647460   -0.0677960    0.8898020  
H    -8.9777150    1.5706000   -2.1893910  
H   -10.5398180    1.0246210    1.0335480  
H    -6.5004700   -0.5373590    1.7480770  
H    -4.3043170    0.2925300   -2.8845700  
