62


C    -1.0194660   -0.7845450   -0.3422860  
C    -2.3736130   -0.8019960   -0.2174510  
C    -2.8100310    0.5559790   -0.0279270  
C    -1.6549740    1.3734480   -0.0401350  
N    -0.5401140    0.5262340   -0.2380600  
C    -1.7100050    2.7584300    0.1232970  
C    -2.9638750    3.3351520    0.2980920  
O    -3.0611410    4.6875060    0.4219640  
C    -4.1289650    2.5452360    0.3410750  
O    -5.2857320    3.2658610    0.4957260  
C    -4.0896250    1.1416770    0.1950240  
H    -3.0138330   -1.6673740   -0.2742550  
H    -0.8213220    3.3724050    0.0982280  
H    -4.0078590    4.9035750    0.4884220  
H    -6.0405060    2.7178930    0.2096300  
H    -0.3305740   -1.5980480   -0.5051850  
C     0.7928760    0.8536350   -0.3159840  
C     1.8630050   -0.0023760   -0.4887940  
C     3.0115120    0.8430850   -0.4873180  
C     2.4649730    2.2251770   -0.3080100  
N     1.1632010    2.2168240   -0.2055510  
C     3.3068980    3.3868970   -0.2369960  
C     4.6394610    3.1853260   -0.3445870  
O     5.5568540    4.1535790   -0.2841370  
C     5.2437880    1.8043660   -0.5599200  
O     6.4649570    1.7693520   -0.7085890  
C     4.3631480    0.6290790   -0.5970820  
H     1.8581700   -1.0770800   -0.5771960  
H     2.8755150    4.3708950   -0.0940900  
H     6.4194250    3.6989640   -0.4307310  
C     4.4406330   -1.5025980   -1.8494410  
C     5.1486720   -2.6677570   -1.8263160  
C     6.1144270   -2.5610050   -0.7659630  
C     5.9524480   -1.2825860   -0.1773090  
N     4.9166290   -0.6341920   -0.8606270  
C     6.7032200   -0.8689180    0.9283410  
C     7.6526820   -1.7480780    1.4264150  
O     8.4156210   -1.3838950    2.4985420  
C     7.8402540   -3.0242060    0.8360700  
O     8.8212920   -3.7845680    1.4427470  
C     7.0837850   -3.4378180   -0.2455340  
H     5.0115230   -3.5052040   -2.4970060  
H     6.5878150    0.1023500    1.3925060  
H     9.0182730   -2.1233670    2.6877120  
H     8.9095860   -4.6292420    0.9771460  
H     7.2307030   -4.4264110   -0.6761800  
H     3.6505030   -1.1722930   -2.5074340  
C    -5.3072530    0.3588030    0.2566760  
C    -6.5084880    0.6566600    0.8746230  
C    -7.3824310   -0.4524030    0.6011640  
C    -6.5508590   -1.3758590   -0.2380760  
N    -5.3496050   -0.9093740   -0.4218470  
C    -7.0755940   -2.6167760   -0.7424500  
C    -8.3493290   -2.9350240   -0.4105500  
O    -8.9733660   -4.0525710   -0.7972180  
C    -9.2093310   -2.0315540    0.4536470  
O   -10.3529530   -2.4238260    0.6931420  
C    -8.6568990   -0.7715600    0.9422500  
H    -6.7176720    1.4602970    1.5674660  
H    -6.4589720   -3.2621070   -1.3579690  
H    -9.8724200   -3.9932300   -0.3981750  
H    -9.2996520   -0.1473050    1.5550170  
