58


C    -1.3101300   -2.2563200    0.2662290  
C    -0.0653930   -1.8836040   -0.1998990  
C     0.9186160   -2.5627850    0.5865660  
C     0.1650540   -3.3943130    1.5596990  
N    -1.1670390   -3.1467220    1.3219900  
C     0.7261890   -4.2425640    2.4608750  
C     2.1755820   -4.3608800    2.4894240  
O     2.7738520   -5.1278670    3.2275510  
C     3.0092450   -3.4395840    1.5337380  
O     4.2143730   -3.3776320    1.6905040  
C     2.2988400   -2.5943550    0.5291400  
H     0.1229070   -1.2030500   -1.0160330  
H     0.1436710   -4.8584730    3.1386130  
H    -1.9627620   -3.5677670    1.7806850  
C     2.5496610    1.7466280   -0.6183620  
C     2.1983460    0.5380520   -0.0552340  
C     3.0189480   -0.4810240   -0.6385380  
C     3.9186590    0.2113520   -1.5918620  
N     3.5599480    1.5442780   -1.5599630  
C     4.9110230   -0.3819550   -2.3045180  
C     5.1162830   -1.8123060   -2.1430750  
O     6.0093040   -2.4333490   -2.6979320  
C     4.1174260   -2.5975050   -1.2258220  
O     4.1235320   -3.8127130   -1.2645770  
C     3.1167030   -1.8387380   -0.4108320  
H     1.4337320    0.4210840    0.6960450  
H     5.5763920    0.1631890   -2.9668390  
H     4.0821780    2.2801550   -2.0094770  
C    -2.6298430   -1.8840000   -0.1625790  
C    -3.0228610   -1.0300230   -1.1586910  
C    -4.4652340   -1.0506220   -1.1318160  
C    -4.8058350   -2.0016580   -0.0209860  
N    -3.7329490   -2.4821170    0.5385280  
C    -6.1694370   -2.2982240    0.3273060  
C    -7.1452460   -1.6858170   -0.3852450  
O    -8.4531800   -1.8637590   -0.1749970  
C    -6.8346500   -0.7209550   -1.5111340  
O    -7.7917790   -0.2170200   -2.0965520  
C    -5.4357040   -0.4344230   -1.8486830  
H    -2.3978040   -0.4554110   -1.8275710  
H    -6.3906080   -2.9888540    1.1331960  
H    -8.9066390   -1.2950470   -0.8378090  
H    -5.2503390    0.2611840   -2.6610960  
C     1.9897130    3.0284850   -0.3250020  
C     2.2954910    4.2575920   -0.8554480  
C     1.4215110    5.1906620   -0.1875680  
C     0.6189680    4.3390170    0.7482250  
N     0.9519160    3.0825400    0.6634970  
C    -0.3847390    4.9088680    1.6078440  
C    -0.5809950    6.2476220    1.5425540  
O    -1.4777870    6.9130940    2.2802520  
C     0.2128670    7.1327410    0.6080050  
O    -0.0433400    8.3374470    0.6237650  
C     1.2300780    6.5312460   -0.2584040  
H     3.0269170    4.5021280   -1.6139180  
H    -0.9523800    4.2745590    2.2793520  
H    -1.3846000    7.8559520    2.0137040  
H     1.7815810    7.1952280   -0.9167510  
