60


C     0.7504710   -2.4762270   -2.2880310  
C     2.0655020   -2.1501430   -2.0834230  
C     2.0883940   -0.9462150   -1.3019460  
C     0.7368120   -0.5946140   -1.0485850  
N    -0.0542350   -1.5486290   -1.6543120  
C     0.3464070    0.5357690   -0.3012240  
C     1.3919470    1.3235110    0.1889290  
O     1.1100700    2.4412720    0.9186090  
C     2.7448450    0.9871990   -0.0478090  
O     3.6378910    1.8871570    0.5146550  
C     3.1337400   -0.1408570   -0.7725070  
H     2.9182140   -2.7108610   -2.4370950  
H    -1.0575840   -1.4919640   -1.7336910  
H     1.9620580    2.8727830    1.1117090  
H     4.4730770    1.8595700    0.0217910  
H     0.3126900   -3.3030890   -2.8289920  
C    -1.9998760    0.0148760    0.4836820  
C    -1.0684610    0.8558110   -0.0459010  
C    -1.7632100    2.1155380   -0.3154230  
C    -3.1691340    1.9245810    0.1074420  
N    -3.2620230    0.6201300    0.5896780  
C    -4.1362310    2.8715640    0.0097100  
C    -3.7823860    4.1711250   -0.5537070  
O    -4.5856680    5.0828400   -0.6804200  
C    -2.2975270    4.3930400   -1.0159770  
O    -1.9783300    5.4711890   -1.4901310  
C    -1.3461790    3.2860030   -0.8582760  
H    -5.1633190    2.7091380    0.3181060  
H    -0.3216160    3.4510130   -1.1708210  
H    -1.8725660   -0.9968320    0.8463750  
C    -5.1376780    0.4334850    2.1978750  
C    -4.4038790    0.0045950    1.1298610  
C    -5.0266100   -1.2114610    0.6309740  
C    -6.1913000   -1.4566610    1.5144400  
N    -6.2045720   -0.4175510    2.4302550  
C    -7.0360190   -2.5093860    1.3876250  
C    -6.7935230   -3.4698140    0.3101450  
O    -7.4968820   -4.4489650    0.1240550  
C    -5.5692150   -3.2196180   -0.6449980  
O    -5.3500640   -4.0068360   -1.5507940  
C    -4.7309170   -2.0409200   -0.4023870  
H    -7.8853160   -2.6775480    2.0425470  
H    -3.8960230   -1.8695910   -1.0744130  
H    -4.9803240    1.3035070    2.8208570  
H    -6.9057850   -0.2851000    3.1425050  
C     5.1402960   -0.8860780   -2.1555980  
C     4.5467180   -0.4648170   -1.0007090  
C     5.6438630   -0.5156380   -0.0051230  
C     6.8273480   -0.9861200   -0.7851510  
N     6.5226910   -1.1925870   -2.0364510  
C     8.1141810   -1.1730270   -0.1686040  
C     8.2215580   -0.9376220    1.1613300  
O     9.3568170   -1.0792300    1.8644630  
C     7.0431270   -0.4881130    1.9786030  
O     7.2164940   -0.2954810    3.1804370  
C     5.7333830   -0.2857400    1.3195690  
H     8.9560360   -1.5060370   -0.7654870  
H     9.1244540   -0.8431000    2.7891310  
H     4.9121520    0.0524680    1.9427130  
H     4.6695170   -0.9936090   -3.1252570  
