58


C    -0.0269980    1.6292250    0.0069850  
C    -1.1559450    0.8401020    0.0895170  
C    -0.7379390   -0.5310030    0.1113640  
C     0.7409930   -0.5092880    0.0233390  
N     1.1060990    0.8141920   -0.0780460  
C     1.5499540   -1.6214030    0.0223430  
C     0.8598720   -2.8989110    0.3120950  
O     1.4468320   -3.9148780    0.6405160  
C    -0.6979770   -2.9620270    0.2104610  
O    -1.2197410   -4.0540990    0.0779940  
C    -1.4686830   -1.6965910    0.2002490  
H    -2.1618330    1.2173480    0.1676580  
H     2.0383490    1.1084540    0.2147820  
C    -3.1806940    4.7093080    0.1312250  
C    -2.4549380    5.8487320    0.1369360  
C    -1.0646670    5.4152910    0.0825580  
C    -1.1422850    3.9174330    0.0549790  
N    -2.3797620    3.5221260    0.0763010  
C     0.0622260    3.0787170    0.0018340  
C     1.2490800    3.7690210   -0.0473710  
O     2.4570430    3.1854810   -0.1094180  
C     1.3395700    5.2639870   -0.0268850  
O     2.4682990    5.7589290   -0.0691350  
C     0.1124670    6.0672970    0.0423250  
H    -2.8072270    6.8700560    0.1720930  
H     3.0997290    3.9337890   -0.1243080  
H     0.2201940    7.1475530    0.0541040  
H    -4.2574350    4.5975420    0.1633840  
C     4.8537000    0.9057290    1.6275890  
C     5.9435380    0.2121450    1.2311240  
C     5.4235510   -0.9000000    0.4443670  
C     3.9319410   -0.7289300    0.4971330  
N     3.6200340    0.3392150    1.1775530  
C     3.0127930   -1.6515770   -0.1509370  
C     3.6106360   -2.6149480   -0.9240150  
O     2.9304510   -3.4734290   -1.6876020  
C     5.1001600   -2.7978010   -1.0094550  
O     5.5230630   -3.7061620   -1.7226680  
C     5.9921700   -1.8913870   -0.2648040  
H     6.9839790    0.4235280    1.4342940  
H     3.6036140   -4.0707020   -2.0839300  
H     7.0614770   -2.0580530   -0.3502540  
H     4.8142240    1.8069640    2.2274050  
C    -4.5597120   -0.0128740   -2.4876880  
C    -5.6670730   -0.5390130   -1.9038300  
C    -5.2249490   -1.3046510   -0.7575310  
C    -3.7487780   -1.1747030   -0.7181040  
N    -3.4105670   -0.3955890   -1.8064440  
C    -2.9297630   -1.7740280    0.2036040  
C    -3.6064000   -2.5436340    1.2787660  
O    -3.0107000   -2.9730930    2.2491780  
C    -5.1620820   -2.7462410    1.2064790  
O    -5.6992720   -3.4605900    2.0385740  
C    -5.9016580   -2.0569970    0.1529650  
H    -6.6880840   -0.4216200   -2.2362980  
H    -6.9792490   -2.1860690    0.1217790  
H    -4.4770270    0.6145390   -3.3653440  
H    -2.4817890   -0.0460960   -1.9861250  
