60


C     1.4341560   -0.1420760   -0.9288170  
C     2.8036240   -0.0554030   -0.8361080  
C     3.0931470    1.2567230   -0.2865640  
C     1.8563760    1.9097910   -0.0772270  
N     0.8400670    1.0323950   -0.4902130  
C     1.7665080    3.1842300    0.4878550  
C     2.9525460    3.8298790    0.8116410  
O     2.9118800    5.0766670    1.3611300  
C     4.2020280    3.2091030    0.5694400  
O     5.2898790    3.9796280    0.9229540  
C     4.2830000    1.9377140    0.0256840  
H     0.8259430    3.6892370    0.6605970  
H     3.8311600    5.3626320    1.5008930  
H     6.1088860    3.5038060    0.7197780  
H     5.2527610    1.4814300   -0.1554460  
H     0.8231690   -0.9729900   -1.2428490  
C    -2.2085740   -1.5610570    1.1265300  
C    -3.3350790   -0.8337780    0.9026450  
C    -2.8742640    0.4151200    0.2667360  
C    -1.4029720    0.2247160    0.1667430  
N    -1.0300210   -0.9188050    0.6703220  
C    -0.5463640    1.2443860   -0.4216610  
C    -1.1525700    2.3902080   -0.8597460  
O    -0.4946070    3.3997930   -1.4563290  
C    -2.6143970    2.6152270   -0.7122280  
O    -3.0829470    3.6740270   -1.1347180  
C    -3.4662740    1.5583670   -0.1202240  
H    -1.1831100    4.0726400   -1.6566750  
H    -4.5314760    1.7565570   -0.0590360  
H    -2.1306110   -2.5334460    1.5971500  
C    -4.9717000   -1.5824810    2.6090640  
C    -6.2952840   -1.8469890    2.7183360  
C    -6.9010480   -1.5710180    1.4328400  
C    -5.7999780   -1.1221730    0.5453730  
N    -4.6382880   -1.1245760    1.3239480  
C    -5.9549610   -0.8243550   -0.7684600  
C    -7.2977900   -0.9038200   -1.3469060  
O    -7.5266920   -0.6501560   -2.5184680  
C    -8.4842950   -1.3360370   -0.4127600  
O    -9.6127070   -1.3908090   -0.8737540  
C    -8.1785730   -1.6686620    0.9820300  
H    -6.8083500   -2.1878860    3.6059420  
H    -5.1373920   -0.5380630   -1.4204950  
H    -8.9984810   -1.9983740    1.6128240  
H    -4.1875820   -1.6506580    3.3510620  
C     3.6552880   -1.9123700   -2.3385260  
C     3.7279460   -1.0983440   -1.2471360  
C     4.9267750   -1.5830700   -0.5236100  
C     5.4425360   -2.6969610   -1.3697840  
N     4.6915710   -2.8836730   -2.4196350  
C     6.6165300   -3.4437600   -1.0005720  
C     7.2307500   -3.1282900    0.1654440  
O     8.3317630   -3.7449620    0.6317080  
C     6.7140400   -2.0373230    1.0554470  
O     7.3249340   -1.8038630    2.0983750  
C     5.5082530   -1.2801080    0.6520340  
H     6.9752030   -4.2401920   -1.6433570  
H     8.5332810   -3.3049800    1.4861960  
H     5.1579110   -0.5090420    1.3309410  
H     2.9170730   -1.8749660   -3.1307320  
