60


C     1.0153780    1.1483810   -0.0827720  
C    -0.3781760    1.2662330   -0.0740540  
C    -0.9249480   -0.0361510   -0.0290930  
C     0.1817470   -0.9401520   -0.0207710  
N     1.3283090   -0.1973900   -0.0365970  
C     0.0576380   -2.3484800   -0.0346750  
C    -1.2464680   -2.8359690   -0.0706490  
O    -1.4697890   -4.1652400   -0.0417060  
C    -2.3860220   -1.9706130   -0.0837790  
O    -3.5481210   -2.6478900   -0.1082520  
C    -2.2671270   -0.5605450   -0.0355260  
H    -0.9038930    2.2055110   -0.1305400  
H     2.2826990   -0.5244470   -0.1120440  
H    -2.4343870   -4.2929690   -0.1233500  
H    -4.2953670   -1.9643940   -0.1503350  
C     3.4406170   -2.7871200    2.7554580  
C     4.1251100   -3.7800430    2.1337040  
C     3.3877120   -4.1285380    0.9365910  
C     2.1998010   -3.2393270    0.9104900  
N     2.2982820   -2.4450360    2.0356830  
C     1.2231530   -3.2529050   -0.0471060  
C     1.4030280   -4.2106450   -1.1614860  
O     0.6599750   -4.2503260   -2.1250850  
C     2.6329450   -5.1904490   -1.1229200  
O     2.7418260   -6.0246680   -2.0071070  
C     3.5983910   -5.0581080   -0.0326470  
H     5.0486830   -4.2304130    2.4666160  
H     4.4513180   -5.7297880   -0.0272380  
H     3.6687580   -2.2656810    3.6755560  
H     1.5986600   -1.7808260    2.3292410  
C    -3.4407240    0.2686390    0.0213330  
C    -3.6029300    1.6273250    0.2081240  
C    -5.0068900    1.8817540    0.1782870  
C    -5.6360770    0.5361150   -0.0402840  
N    -4.7202490   -0.3864270   -0.1229140  
C    -7.0546330    0.3590580   -0.1317550  
C    -7.8189360    1.4724960   -0.0066020  
O    -9.1486490    1.4809770   -0.0665010  
C    -7.2195260    2.8562200    0.2209050  
O    -8.0300950    3.7823070    0.3189360  
C    -5.7798160    2.9989020    0.3063100  
H    -2.8416320    2.3684690    0.3852330  
H    -7.4837930   -0.6232580   -0.2939180  
H    -9.3996100    2.4284710    0.0583920  
H    -5.3794130    3.9942860    0.4685720  
C     2.0660750    2.1087070   -0.1328430  
C     2.0311270    3.4834850   -0.1938890  
C     3.3989810    3.9030300   -0.2283310  
C     4.1863550    2.6208420   -0.1789060  
N     3.4049230    1.5801740   -0.1221240  
C     5.6237480    2.6177220   -0.1944320  
C     6.2468370    3.8188630   -0.2551110  
O     7.5726280    3.9806730   -0.2761820  
C     5.4818010    5.1318630   -0.3055130  
O     6.1669570    6.1579740   -0.3575070  
C     4.0294450    5.1095560   -0.2894260  
H     1.1591250    4.1218080   -0.2169190  
H     6.1715240    1.6825870   -0.1611950  
H     7.7037200    4.9576900   -0.3232500  
H     3.5111930    6.0623840   -0.3277150  
