62


C     0.4895120   -1.5330300    0.4619410  
C    -0.8616490   -1.5582860    0.2261650  
C    -1.2838560   -0.1999130    0.0481920  
C    -0.1230280    0.6108020    0.1557400  
N     0.9420070   -0.2237590    0.4220090  
C    -0.1328030    2.0138880    0.0199920  
C    -1.3718660    2.5857310   -0.2808090  
O    -1.4643290    3.9226430   -0.4963620  
C    -2.5394280    1.7984300   -0.4257100  
O    -3.6717190    2.5361870   -0.7061630  
C    -2.5369790    0.4101800   -0.2357390  
H    -1.4719470   -2.4462160    0.1840340  
H     1.8873080    0.0695130    0.6164350  
H    -2.4079660    4.0933580   -0.6821100  
H    -4.1228140    2.1231810   -1.4723430  
C     1.0648280   -3.6359990    1.6196440  
C     2.1107220   -4.5130450    1.6615960  
C     3.1311690   -4.0040180    0.7867780  
C     2.6381780   -2.7986250    0.2265670  
N     1.3638050   -2.5810400    0.7565190  
C     3.3688140   -2.0469120   -0.7023910  
C     4.6278580   -2.5096360   -1.0544150  
O     5.3786710   -1.8076500   -1.9538820  
C     5.1431180   -3.7062890   -0.4932030  
O     6.4089330   -4.0346120   -0.9402640  
C     4.4122950   -4.4532660    0.4129950  
H     2.1579100   -5.4136790    2.2584270  
H     2.9982790   -1.1339130   -1.1527440  
H     6.2209570   -2.2826650   -2.0587710  
H     6.7038870   -4.8488300   -0.5066100  
H     4.8218940   -5.3739720    0.8241550  
H     0.1212140   -3.6333350    2.1452900  
C     3.9438980    2.0677370   -1.8343800  
C     2.6499910    1.7516020   -1.5805860  
C     2.2369400    2.6598680   -0.5145220  
C     3.4519350    3.4925100   -0.2645540  
N     4.4449300    3.1397790   -1.0327870  
C     3.4580550    4.5519680    0.7109950  
C     2.3211530    4.7645470    1.4112610  
O     2.1812080    5.7116420    2.3535990  
C     1.0921200    3.9108490    1.2223490  
O     0.1528410    4.1145100    1.9830440  
C     1.0802240    2.8363310    0.1765970  
H     2.0343220    1.0111650   -2.0707480  
H     4.3522290    5.1460870    0.8634370  
H     1.2730670    5.5897360    2.7089660  
H     4.6088850    1.6072010   -2.5552470  
C    -4.3815730   -2.5410870    2.4993470  
C    -5.5013940   -2.8922700    1.8306360  
C    -5.4732130   -2.1028450    0.6018480  
C    -4.1996400   -1.3178940    0.6975990  
N    -3.5772640   -1.5741150    1.8077880  
C    -3.7867100   -0.3708240   -0.3442130  
C    -4.6739550   -0.2322350   -1.3698580  
O    -4.4813780    0.6242530   -2.4120000  
C    -5.9461740   -0.9984250   -1.4909200  
O    -6.6461180   -0.7922100   -2.4850890  
C    -6.3132330   -1.9634500   -0.4394510  
H    -6.2739270   -3.5870600    2.1295430  
H    -5.2658610    0.4889010   -2.9941390  
H    -7.2504720   -2.4988220   -0.5566870  
H    -4.0380280   -2.8931540    3.4643950  
