58


C    -1.6146590   -0.2532060   -0.1113800  
C    -1.3371080    1.0876460   -0.0502700  
C     0.0870740    1.2509460   -0.1527340  
C     0.6465020   -0.1039170   -0.2987360  
N    -0.4342720   -0.9755170   -0.3250960  
C     1.9805370   -0.4304620   -0.3817020  
C     2.9089590    0.7221460   -0.3473720  
O     4.1188450    0.6050800   -0.4350180  
C     2.3355990    2.1786160   -0.2053170  
O     3.1349960    3.0882630   -0.0692210  
C     0.8772390    2.3791770   -0.1613420  
H    -2.0654510    1.8810880    0.0218450  
H    -0.3279300   -1.9467850   -0.0554660  
C    -2.8857190   -0.9312090   -0.0398900  
C    -4.0560610   -0.5101070    0.5311800  
C    -5.0342640   -1.5542460    0.3569810  
C    -4.3480440   -2.6430310   -0.3787640  
N    -3.0246790   -2.2388410   -0.5392890  
C    -4.9477660   -3.7852080   -0.7889370  
C    -6.3612110   -3.9836050   -0.4605210  
O    -6.9826440   -4.9812110   -0.7867100  
C    -7.0965420   -2.8617680    0.3593200  
O    -8.2701730   -3.0163320    0.6557740  
C    -6.3390640   -1.6615420    0.7284010  
H    -4.1997480    0.4168490    1.0678560  
H    -4.4346030   -4.5698800   -1.3362900  
H    -6.8607750   -0.8837240    1.2774800  
H    -2.4598430   -2.5773940   -1.3070430  
C    -1.7534260    4.6827380    2.6711750  
C    -1.0632940    3.6619350    2.1045320  
C    -0.4602770    4.2305070    0.9049440  
C    -0.9085610    5.6594440    0.9227320  
N    -1.6652250    5.9132400    1.9537340  
C    -0.4987250    6.5987390   -0.0869660  
C     0.3178840    6.1515510   -1.0687460  
O     0.7697280    6.9130850   -2.0760540  
C     0.7631660    4.7151010   -1.1407850  
O     1.4016170    4.3739500   -2.1299850  
C     0.3641470    3.7510440   -0.0640830  
H    -0.9567350    2.6490970    2.4650850  
H    -0.8405790    7.6267280   -0.0425590  
H     1.3041440    6.3147680   -2.6427750  
H    -2.3341880    4.6625830    3.5860950  
C     1.8211560   -2.8140670   -1.2246610  
C     2.4570340   -1.7932400   -0.5597100  
C     3.6933740   -2.4369780   -0.0452870  
C     3.5849880   -3.8499960   -0.5086500  
N     2.4934750   -4.0484620   -1.2046330  
C     4.5838300   -4.8365630   -0.2062380  
C     5.6475480   -4.4517090    0.5402590  
O     6.6488700   -5.2634610    0.9038620  
C     5.7829110   -3.0386760    1.0367020  
O     6.7658530   -2.7635900    1.7193060  
C     4.7452310   -2.0378040    0.6941610  
H     4.4671370   -5.8517140   -0.5686840  
H     7.2628010   -4.7078070    1.4331120  
H     4.9067670   -1.0241400    1.0382250  
H     0.9024300   -2.7424150   -1.7953110  
