62


C     1.8988950   -0.6074230   -0.0305060  
C     1.0058960    0.4357180   -0.1039760  
C     1.7974390    1.6503370   -0.0794930  
C     3.1561910    1.2725990    0.0258700  
N     3.2039810   -0.1295060    0.0582840  
C     4.1963430    2.2072120    0.0291670  
C     3.8518350    3.5497810   -0.0416030  
O     4.8317910    4.5004610   -0.0396790  
C     2.4942580    3.9441120   -0.1212090  
O     2.3068040    5.3120140   -0.1838140  
C     1.4698390    3.0147580   -0.1400640  
H     5.2395960    1.9307640    0.0959740  
H     4.3913690    5.3641490   -0.1194740  
H     1.3683690    5.4989790   -0.3348560  
H     0.4365670    3.3299550   -0.2456390  
H     1.7244610   -1.6690740   -0.1047700  
C    -1.6185400   -2.1493860    2.2684070  
C    -2.8165510   -1.8012920    1.6976550  
C    -2.5437170   -0.7980510    0.7055440  
C    -1.1388960   -0.5978370    0.7096230  
N    -0.6058150   -1.4292650    1.6728740  
C    -0.4571560    0.2926120   -0.1472480  
C    -1.2772110    0.9784540   -1.0478350  
O    -0.7370860    1.8483830   -1.9471620  
C    -2.6828920    0.7892590   -1.0906390  
O    -3.3049390    1.5620280   -2.0460580  
C    -3.3578090   -0.0641890   -0.2104600  
H    -3.7791190   -2.2182220    1.9536850  
H     0.3686610   -1.4351300    1.9325900  
H    -1.4886520    2.1278590   -2.5076470  
H    -3.9674310    0.9816800   -2.4907310  
H    -1.4010260   -2.8633020    3.0503500  
C    -6.3488810    0.1349660    3.0658920  
C    -5.2210800    0.2093580    2.3122930  
C    -5.5778240   -0.1443550    0.9562680  
C    -7.0327290   -0.4300560    0.9818720  
N    -7.4336990   -0.2658960    2.2917290  
C    -7.7788700   -0.7964680   -0.0942220  
C    -7.1066680   -0.8753860   -1.3747670  
O    -7.6480620   -1.2259560   -2.4124170  
C    -5.5918680   -0.4458190   -1.4426380  
O    -5.1198110   -0.3047280   -2.5696960  
C    -4.8292250   -0.2105840   -0.2015190  
H    -4.2369880    0.4836550    2.6571170  
H    -8.8330820   -1.0480320   -0.0400290  
H    -6.4858890    0.3394010    4.1194320  
H    -8.3867980   -0.3344800    2.6118070  
C     4.2169630   -3.6347780   -2.2837940  
C     5.4499770   -3.9277750   -1.8134680  
C     5.7146110   -2.9276790   -0.7827280  
C     4.4815910   -2.0821580   -0.7750310  
N     3.6135170   -2.5007040   -1.6465030  
C     4.3467120   -0.9410100    0.1257170  
C     5.3734380   -0.7226820    1.0020530  
O     5.3665140    0.2462590    1.9373140  
C     6.6090550   -1.5542530    1.0010000  
O     7.4808310   -1.2857210    1.8316170  
C     6.7394420   -2.6793930    0.0528070  
H     6.1151920   -4.7219220   -2.1227300  
H     6.2321560    0.1583970    2.3960760  
H     7.6575270   -3.2576190    0.0936020  
H     3.6554430   -4.1429220   -3.0580980  
