58


C     1.5110730    0.5470680   -0.0528020  
C     0.6416130    1.6017300    0.0006080  
C     1.4570280    2.8191350    0.0029400  
C     2.8683190    2.3748510   -0.0630300  
N     2.8429300    0.9629820   -0.0725270  
C     3.9233310    3.2176880   -0.1395290  
C     3.6676160    4.6645030   -0.1147730  
O     4.5695600    5.4821030   -0.1824290  
C     2.1860020    5.1500960    0.0022720  
O     1.9561660    6.3465510    0.0537000  
C     1.1270110    4.1333940    0.0363580  
H     4.9528420    2.9070480   -0.2424010  
H     0.0935210    4.4540040    0.0811690  
H     1.3183860   -0.5141960   -0.0750220  
C    -0.7966800    1.4998160    0.0436240  
C    -1.5770850    0.3678640    0.0157650  
C    -2.9376960    0.8269250    0.0766080  
C    -2.8176680    2.3196450    0.1321760  
N    -1.5719820    2.7016720    0.1152160  
C    -3.9682050    3.1797170    0.1706600  
C    -5.1855350    2.5895030    0.1536570  
O    -6.3440580    3.2556430    0.1926010  
C    -5.3511160    1.0850770    0.1306990  
O    -6.4966240    0.6587870    0.2409140  
C    -4.1555270    0.2051450    0.0480640  
H    -1.2509690   -0.6597890   -0.0530120  
H    -3.8458750    4.2563140    0.2068700  
H    -7.0438210    2.5637710    0.2030000  
C    -2.7719950   -3.2779100    2.4773070  
C    -2.9845760   -2.0283410    1.9848080  
C    -3.8271300   -2.1616980    0.8169140  
C    -4.0976950   -3.6140440    0.6726450  
N    -3.4134340   -4.2335310    1.7017400  
C    -4.8876940   -4.1704250   -0.2807040  
C    -5.5253710   -3.2860300   -1.2471750  
O    -6.2826680   -3.6809420   -2.1191290  
C    -5.2100550   -1.7507600   -1.1639060  
O    -5.6162030   -1.0236750   -2.0522790  
C    -4.3756580   -1.2437660   -0.0426240  
H    -2.5950830   -1.1076250    2.3909990  
H    -5.0856870   -5.2357850   -0.3467870  
H    -2.1982990   -3.5834680    3.3423910  
H    -3.4479250   -5.2209130    1.9016430  
C     3.8985670    0.0755120   -0.0725090  
C     5.2484530    0.2835360    0.0883440  
C     5.8313570   -1.0231400   -0.0028210  
C     4.6648930   -1.9450070   -0.2244320  
N     3.5371830   -1.2890880   -0.2560250  
C     4.8341090   -3.3612230   -0.3730080  
C     6.0990090   -3.8427650   -0.2951430  
O     6.4211460   -5.1309050   -0.4095660  
C     7.3026570   -2.9391220   -0.0628440  
O     8.3988020   -3.5010850   -0.0099890  
C     7.1007750   -1.5060060    0.0784080  
H     5.7809810    1.1968420    0.2911870  
H     3.9775310   -4.0044390   -0.5395660  
H     7.4028710   -5.1569150   -0.3097890  
H     7.9769210   -0.8867120    0.2405780  
