64


C     0.9832430    1.7245890   -0.2958070  
C     1.6934340    0.5342560   -0.2682870  
C     0.7502460   -0.5346140   -0.3344990  
C    -0.5384090    0.0526850   -0.4276680  
N    -0.3641970    1.4143270   -0.3963740  
C    -1.7383070   -0.6946160   -0.5180960  
C    -1.5742440   -2.0851450   -0.4888420  
O    -2.6644650   -2.9065710   -0.5721510  
C    -0.2945560   -2.6858580   -0.3908870  
O    -0.3351570   -4.0658450   -0.3669480  
C     0.8864230   -1.9460030   -0.3220020  
H     2.7670150    0.4258160   -0.2740490  
H    -1.0875180    2.1135110   -0.4755440  
H    -2.3317820   -3.8206810   -0.5209210  
H     0.5527350   -4.4020160   -0.1555490  
C     4.6789340    3.3727620    1.4594970  
C     4.4734860    4.6853260    1.1264890  
C     3.2136400    4.7524950    0.4416020  
C     2.7038200    3.4295860    0.3763730  
N     3.6256120    2.6081930    0.9939860  
C     1.4579910    3.1034330   -0.2141620  
C     0.7213840    4.1913860   -0.6986110  
O    -0.5202020    3.9899880   -1.2546140  
C     1.2203930    5.5143460   -0.6436310  
O     0.3592680    6.4504270   -1.1891240  
C     2.4536920    5.8092860   -0.0956560  
H     5.1375200    5.5106210    1.3437570  
H     3.4613390    1.6399110    1.2266450  
H    -0.8547790    4.8625510   -1.5277080  
H     0.7556490    7.3315220   -1.1250060  
H     2.8155400    6.8348750   -0.0653170  
H     5.4997800    2.9061960    1.9857580  
C    -3.3233860    1.0841670   -1.3902290  
C    -3.0383430   -0.0343290   -0.6602810  
C    -4.3236140   -0.3533930    0.0071140  
C    -5.2581810    0.7042730   -0.4714090  
N    -4.6682290    1.5321800   -1.2886230  
C    -6.6323690    0.7546810   -0.0429730  
C    -7.0558240   -0.1801920    0.8402180  
O    -8.3058130   -0.2498600    1.3319030  
C    -6.1316640   -1.2430860    1.3592630  
O    -6.5870150   -2.0565500    2.1632050  
C    -4.7288670   -1.2822320    0.8928230  
H    -7.2874160    1.5324080   -0.4199500  
H    -8.2999850   -1.0227640    1.9384480  
H    -4.1025120   -2.0823710    1.2680130  
H    -2.6504990    1.6305340   -2.0411810  
C     4.1341260   -1.7815240    2.8080060  
C     2.9737720   -1.5939540    2.1005480  
C     3.0762800   -2.3833040    0.9038780  
C     4.3353090   -3.0377310    0.9464310  
N     4.9579230   -2.6500230    2.1159620  
C     4.7768080   -3.9099550   -0.0567830  
C     3.9285850   -4.1213410   -1.1310800  
O     4.3090580   -4.9455530   -2.1493600  
C     2.6627070   -3.4809690   -1.1939590  
O     1.9440580   -3.7796530   -2.3345570  
C     2.2084580   -2.6152030   -0.1971900  
H     2.1363970   -0.9799750    2.3988320  
H     5.8663490   -2.9614960    2.4215860  
H     5.7417950   -4.4055960   -0.0273160  
H     3.6064470   -4.9096700   -2.8220460  
H     1.2046720   -3.1519200   -2.4113510  
H     4.4438600   -1.3741770    3.7602650  
