60


C     2.9633880   -1.8118830   -0.5761420  
C     3.9376770   -0.9067600   -0.1693330  
C     3.2223000    0.2366480    0.3712810  
C     1.8428320   -0.0494440    0.2699750  
N     1.7244540   -1.3062930   -0.3062590  
C     0.8254620    0.8361260    0.6818570  
C     1.2598580    2.0569290    1.2040440  
O     0.3457900    2.9699980    1.6379950  
C     2.6417760    2.3593230    1.3091410  
O     2.8888750    3.6020240    1.8522600  
C     3.6231230    1.4723020    0.9095750  
H     0.8493410   -1.7345300   -0.5692480  
H     0.8426890    3.7368820    1.9752140  
H     3.8452290    3.7447800    1.9167960  
H     4.6797050    1.7050460    0.9927600  
H     3.0753100   -2.7824780   -1.0376840  
C    -1.2020880   -0.6363110    1.0703210  
C    -0.6025330    0.4865400    0.5858560  
C    -1.6598650    1.2526410   -0.0782000  
C    -2.9114470    0.4846440    0.0891320  
N    -2.5752990   -0.6304390    0.8067860  
C    -4.1478000    0.8457350   -0.4131020  
C    -4.1594980    2.0343260   -1.2816400  
O    -5.1297990    2.3854910   -1.9428480  
C    -2.8597140    2.9091030   -1.3920550  
O    -2.9187380    3.9579290   -2.0092340  
C    -1.6290490    2.4203840   -0.7673900  
H    -0.7305670    3.0170610   -0.8727200  
H    -0.7698740   -1.4484460    1.6401260  
H    -3.1945500   -1.4195210    0.9269230  
C    -5.3600500    0.0887670   -0.1594030  
C    -5.6508320   -0.8171520    0.8450090  
C    -7.0028240   -1.2675030    0.6585340  
C    -7.5077920   -0.5584070   -0.5440260  
N    -6.4673040    0.2256140   -0.9932000  
C    -8.7598560   -0.7036710   -1.0472020  
C    -9.6782080   -1.6171740   -0.3724680  
O   -10.8219610   -1.8139300   -0.7544680  
C    -9.1628440   -2.3816580    0.9025370  
O    -9.9186950   -3.1528550    1.4758550  
C    -7.7925150   -2.1379650    1.3492170  
H    -5.0356240   -1.0521360    1.7011270  
H    -9.1134100   -0.1749990   -1.9268340  
H    -7.4495490   -2.6678220    2.2330120  
H    -6.5026770    0.9502670   -1.7003120  
C     5.3564550   -1.0930960   -0.2778850  
C     6.0651850   -2.1636790   -0.7762780  
C     7.4475120   -1.8210540   -0.6460320  
C     7.4311640   -0.4494440   -0.0228970  
N     6.2174110   -0.0330940    0.1882190  
C     8.6473830    0.2582780    0.2765590  
C     9.8148740   -0.3573870   -0.0238960  
O    11.0244540    0.1676280    0.1928690  
C     9.8654740   -1.7418280   -0.6533180  
O    10.9913160   -2.1941970   -0.8786930  
C     8.6233370   -2.4374900   -0.9469650  
H     5.6716280   -3.0838880   -1.1854890  
H     8.6120590    1.2449150    0.7249080  
H    11.6558270   -0.5183170   -0.1301330  
H     8.6943730   -3.4230950   -1.3959950  
