62


C    -0.7760710    0.9959260   -0.2894010  
C    -0.8104700    2.3727880   -0.0880280  
C    -2.1723690    2.7721910   -0.0885810  
C    -2.9586510    1.6007000   -0.2857320  
N    -2.0908680    0.5461410   -0.4031760  
C    -4.3725520    1.6144750   -0.3618500  
C    -4.9642500    2.8815370   -0.2701550  
O    -6.3167630    3.0091490   -0.3565800  
C    -4.1895890    4.0585390   -0.0671080  
O    -4.9554570    5.2058750    0.0224440  
C    -2.8167680    4.0232700    0.0320460  
H     0.0621010    2.9931760    0.0388440  
H    -2.3276620   -0.4104130   -0.6234300  
H    -6.5254250    3.9485760   -0.2065060  
H    -4.3840370    5.9629350    0.2185130  
H    -2.2443610    4.9358670    0.1825460  
C     3.5368600    1.7523790    0.0323230  
C     4.0760050    0.5171890   -0.1770170  
C     2.8945720   -0.3522180   -0.3722010  
C     1.7282780    0.5631290   -0.2515500  
N     2.1194230    1.7841680   -0.0195510  
C     0.3451380    0.0867190   -0.3813650  
C     0.2145720   -1.2672020   -0.5806250  
O    -0.9880040   -1.8919250   -0.7147160  
C     1.3540840   -2.1944290   -0.6763870  
O     1.1156690   -3.3962680   -0.8592870  
C     2.7311490   -1.6726700   -0.5603410  
H    -0.7543160   -2.8403490   -0.8443760  
H     3.5456490   -2.3799610   -0.6611800  
H     4.0665850    2.6846800    0.1891200  
C     7.2269650    1.7644900    2.6255000  
C     8.2704330    1.0803330    2.0596030  
C     7.7451910    0.3757500    0.9245310  
C     6.3621180    0.6818120    0.8474510  
N     6.0783840    1.5391100    1.8896200  
C     5.4920990    0.1415590   -0.1308750  
C     6.0868320   -0.7339460   -1.0472880  
O     5.3395600   -1.2915480   -2.0472140  
C     7.4689790   -1.0427300   -0.9864740  
O     7.8808280   -1.9167560   -1.9769240  
C     8.3013200   -0.5026950   -0.0251140  
H     9.2939070    1.0768900    2.4084280  
H     5.1497980    1.8448350    2.1372320  
H     5.9470440   -1.8221260   -2.5926970  
H     8.8429430   -2.0201990   -1.9389790  
H     9.3581010   -0.7606660   -0.0009120  
H     7.2027190    2.4091460    3.4927250  
C    -6.2957790    0.2177920   -1.2881630  
C    -5.1800120    0.4025860   -0.5272440  
C    -5.0092400   -0.8934010    0.1697500  
C    -6.1221960   -1.7414870   -0.3542050  
N    -6.8634790   -1.0850120   -1.2006980  
C    -6.3104430   -3.1007030    0.0822990  
C    -5.4683830   -3.5882090    1.0241510  
O    -5.5320940   -4.8334760    1.5277270  
C    -4.3695280   -2.7462500    1.6055080  
O    -3.6507690   -3.2540630    2.4653980  
C    -4.1854590   -1.3579450    1.1299160  
H    -7.1192870   -3.6927880   -0.3315470  
H    -4.8052040   -4.8827880    2.1867140  
H    -3.3792560   -0.7894430    1.5814640  
H    -6.7742710    0.9482020   -1.9263520  
