60


C    -1.5374220   -1.6479900    0.2025870  
C    -2.8899950   -1.4656730    0.2154530  
C    -3.1410490   -0.0598230    0.0421460  
C    -1.8780290    0.5719670   -0.0767140  
N    -0.8944050   -0.4164470    0.0322350  
C    -1.7337720    1.9337820   -0.3456090  
C    -2.8982630    2.6705750   -0.5050060  
O    -2.8254340    3.9968650   -0.7773690  
C    -4.1791030    2.0677910   -0.3993140  
O    -5.2192220    2.9517190   -0.5644240  
C    -4.3336070    0.7118650   -0.0871160  
H    -3.6232360   -2.2448320    0.3623720  
H    -0.7725560    2.4244440   -0.4314270  
H    -3.7474420    4.3051400   -0.8676660  
H    -5.8765350    2.5209300   -1.1508550  
H    -0.9514210   -2.5406590    0.3690830  
C     1.9150450   -2.4902000   -2.4802270  
C     3.0769400   -1.9568820   -2.0003210  
C     2.7337360   -1.0107810   -0.9727070  
C     1.2628990   -1.0269930   -0.8976330  
N     0.8271170   -1.9690460   -1.8097720  
C     0.4949130   -0.2502860   -0.0708340  
C     1.2098120    0.6934080    0.7983770  
O     0.6635940    1.3813120    1.6404680  
C     2.7689590    0.8201140    0.6305230  
O     3.2917680    1.7743720    1.1933260  
C     3.5044800   -0.1698050   -0.1770390  
H     4.0649000   -2.1736940   -2.3717820  
H     1.7700180   -3.2134980   -3.2714330  
H    -0.1440470   -2.1396980   -2.0255890  
C     4.9528090   -0.2076850   -0.1323290  
C     5.8221350   -1.2228520   -0.4894530  
C     7.1580490   -0.7859340   -0.2062050  
C     7.0329510    0.5808470    0.3590470  
N     5.6876160    0.8706050    0.3646560  
C     8.0839540    1.3370750    0.7674510  
C     9.4289060    0.7827620    0.6455010  
O    10.4337870    1.3889370    0.9861810  
C     9.5851010   -0.6639620    0.0472240  
O    10.7049500   -1.1421470   -0.0635950  
C     8.3765870   -1.3814570   -0.3557730  
H     5.5492280   -2.2036760   -0.8450480  
H     7.9745300    2.3347590    1.1808470  
H     8.4956310   -2.3798480   -0.7661160  
H     5.2327040    1.6688830    0.7891720  
C    -6.0704550   -1.9427440    3.0602100  
C    -5.2399580   -1.0979000    2.4077700  
C    -5.9494580   -0.7301550    1.1819390  
C    -7.2357410   -1.4772660    1.2791330  
N    -7.3005460   -2.1927450    2.3645940  
C    -8.2497970   -1.3860140    0.2589160  
C    -8.0153250   -0.5550970   -0.7807000  
O    -8.8875510   -0.3438010   -1.7837400  
C    -6.7560500    0.2526970   -0.8704060  
O    -6.6944060    1.0636440   -1.8046500  
C    -5.6518960    0.0749270    0.1227350  
H    -4.2704700   -0.7387910    2.7191290  
H    -9.1700170   -1.9516580    0.3518800  
H    -8.4774620    0.3327740   -2.3620660  
H    -5.9163150   -2.4242140    4.0181760  
