60


C    -1.0162770   -1.4015770    0.5699060  
C    -0.4886680   -0.2391240    0.0496280  
C    -1.6174190    0.5898510   -0.3163870  
C    -2.7900960   -0.1335100    0.0118300  
N    -2.3911460   -1.3460820    0.5363710  
C    -4.0936230    0.3465220   -0.2516080  
C    -4.1786650    1.6130650   -0.8364490  
O    -5.3965910    2.1765250   -1.0448990  
C    -3.0113100    2.3452970   -1.1741120  
O    -3.2796220    3.5687820   -1.7505260  
C    -1.7442290    1.8489070   -0.9367210  
H    -3.0124010   -2.0300470    0.9416360  
H    -5.2510470    3.0333380   -1.4835070  
H    -2.4547330    4.0580370   -1.8875400  
H    -0.8671320    2.4248670   -1.2200530  
H    -0.5077160   -2.2581320    0.9893940  
C     1.8762540   -0.7954060   -0.6279860  
C     0.9345330    0.0469420   -0.1192230  
C     1.6473140    1.2597520    0.2745710  
C     3.0741200    1.0453640   -0.0667530  
N     3.1678100   -0.2468970   -0.5831410  
C     4.0427370    1.9834320    0.0870470  
C     3.6807630    3.2707190    0.6791800  
O     4.4872090    4.1713630    0.8503770  
C     2.1875150    3.4918170    1.1106200  
O     1.8673420    4.5518900    1.6240610  
C     1.2275440    2.4122580    0.8574990  
H     5.0747590    1.8324280   -0.2086190  
H     0.1927300    2.5802700    1.1370050  
H     1.7492400   -1.7923320   -1.0278930  
C     4.4104040   -1.5427500   -2.2913110  
C     4.3054860   -0.8666080   -1.1154580  
C     5.5982040   -1.0719240   -0.4334320  
C     6.3729220   -1.8935830   -1.4085220  
N     5.6725450   -2.1627810   -2.4773460  
C     7.7219000   -2.3087840   -1.1334890  
C     8.2576170   -1.9777170    0.0669170  
O     9.4970210   -2.3142480    0.4561980  
C     7.4825250   -1.1933960    1.0871610  
O     8.0285690   -0.9371980    2.1574530  
C     6.1056820   -0.7473520    0.7696890  
H     8.2697610   -2.8865330   -1.8695730  
H     9.6029180   -1.9423380    1.3588990  
H     5.5892900   -0.1629880    1.5244910  
H     3.6527420   -1.6489790   -3.0585210  
C    -5.7543370   -1.7094270    3.3694040  
C    -4.9505480   -0.9688210    2.5664290  
C    -5.5947060   -0.9963250    1.2553420  
C    -6.8178400   -1.8246370    1.4760960  
N    -6.9032540   -2.2402770    2.7097580  
C    -7.7619970   -2.0837040    0.4202440  
C    -7.5005820   -1.5555180   -0.7965680  
O    -8.2854390   -1.7194200   -1.8736930  
C    -6.2532590   -0.7532300   -1.0689230  
O    -6.0476490   -0.4242680   -2.2314220  
C    -5.3006770   -0.4432180    0.0490500  
H    -4.0489740   -0.4355410    2.8324720  
H    -8.6447090   -2.6826000    0.6147080  
H    -7.8160370   -1.2682320   -2.6094360  
H    -5.6247810   -1.9202290    4.4246380  
