60


C     0.3098630    0.2742780   -1.2304410  
C     0.1929220    1.4692150   -0.5292270  
C     1.5158940    1.7292390    0.0198070  
C     2.3428760    0.6439860   -0.3557430  
N     1.5735000   -0.2331230   -1.1053590  
C     3.6879020    0.5013390    0.0508460  
C     4.2130860    1.5687030    0.7929030  
O     5.5311940    1.5956660    1.1134660  
C     3.3956710    2.6597460    1.1762670  
O     4.0629410    3.6156540    1.9169900  
C     2.0631150    2.7439800    0.8250910  
H     1.9918580   -0.8841330   -1.7580610  
H     5.6782320    2.3966780    1.6472650  
H     3.5001660    4.3983960    2.0147450  
H     1.4695840    3.6039340    1.1122920  
H    -0.4195660   -0.2098170   -1.8637250  
C    -4.0541620    0.1690560   -0.1466820  
C    -2.6684360    0.2440260   -0.1690830  
C    -2.2897470    1.6099380   -0.3515160  
C    -3.5530770    2.3756400   -0.4188980  
N    -4.5670490    1.4560560   -0.3296870  
C    -3.6433270    3.7297170   -0.5375280  
C    -2.4148790    4.4901830   -0.5724650  
O    -2.3631060    5.7104380   -0.6504380  
C    -1.0473220    3.7082750   -0.4877810  
O    -0.0222890    4.3715240   -0.4817020  
C    -1.0473420    2.2221650   -0.4315610  
H    -1.9872830   -0.5654630    0.0325800  
H    -4.5889070    4.2593880   -0.5896080  
H    -5.5559890    1.6437760   -0.2160890  
C    -3.4261340   -4.2556250   -0.3414520  
C    -3.2815500   -2.9034760   -0.4631510  
C    -4.5054140   -2.2899060   -0.0197020  
C    -5.3954490   -3.4015450    0.3612740  
N    -4.6725250   -4.5645650    0.1682610  
C    -6.6737990   -3.2770530    0.8150790  
C    -7.2347910   -1.9456610    0.9030750  
O    -8.3644750   -1.7050170    1.3036220  
C    -6.3433250   -0.7380950    0.4401840  
O    -6.8852470    0.3600480    0.3927900  
C    -4.9200090   -0.9643250    0.0793120  
H    -2.4133850   -2.4055660   -0.8619360  
H    -7.2883870   -4.1215770    1.1099620  
H    -2.7273130   -5.0441330   -0.5864050  
H    -5.0364840   -5.4944950    0.3057490  
C     5.9902110   -2.1067300    2.7381720  
C     6.5900860   -2.9600470    1.8791770  
C     6.0965640   -2.5745940    0.5591830  
C     5.2096780   -1.3980360    0.8274590  
N     5.1324240   -1.1500960    2.0989350  
C     4.5005380   -0.6949710   -0.2458300  
C     4.6019940   -1.2710880   -1.4773330  
O     3.9462820   -0.8167320   -2.5763400  
C     5.4620920   -2.4563510   -1.7676730  
O     5.5032580   -2.8600950   -2.9329550  
C     6.2254440   -3.0887150   -0.6774520  
H     7.2666540   -3.7738300    2.1004030  
H     4.2706090   -1.3896780   -3.3091610  
H     6.8313200   -3.9538440   -0.9294820  
H     6.0809480   -2.0690400    3.8170960  
