64


C     3.3526430   -0.3615980    0.2823080  
C     4.1831560    0.5528190    0.9147900  
C     3.5010260    1.8093710    0.9520750  
C     2.2429410    1.6143450    0.3236660  
N     2.1837170    0.2966270   -0.0713900  
C     1.2772640    2.6332010    0.1750880  
C     1.6237150    3.8835400    0.6902220  
O     0.7372220    4.9149040    0.6285150  
C     2.8832810    4.0970390    1.3126860  
O     3.0605660    5.3917410    1.7673820  
C     3.8163100    3.0884260    1.4530060  
H     5.1313900    0.3289220    1.3834900  
H     1.4073270   -0.1582270   -0.5291820  
H     1.1760340    5.6924720    1.0148620  
H     3.9382860    5.4750800    2.1679300  
H     4.7695150    3.2824250    1.9411430  
C     7.0744390   -2.6263670   -0.3858940  
C     6.5143340   -3.8661540   -0.5440220  
C     5.0927770   -3.7055270   -0.4188620  
C     4.8512610   -2.3306300   -0.1670480  
N     6.0785970   -1.7002250   -0.1338530  
C     3.5571980   -1.7785950   -0.0123930  
C     2.5001010   -2.6843960   -0.1651840  
O     1.1993310   -2.2480150   -0.0668260  
C     2.7257800   -4.0600810   -0.4094200  
O     1.5598670   -4.7993630   -0.5077620  
C     3.9984600   -4.5852790   -0.5258960  
H     7.0482850   -4.7880220   -0.7293490  
H     6.1916250   -0.6979260   -0.1479970  
H     0.6288900   -3.0202410   -0.2291720  
H     1.7758300   -5.7185400   -0.7225660  
H     4.1449740   -5.6469390   -0.7130060  
H     8.1103080   -2.3191390   -0.4186040  
C    -1.8620030   -0.1722050    1.3555320  
C    -2.7941390    0.0850910    0.3534450  
C    -2.1895270    1.0958570   -0.5014930  
C    -0.9240070    1.4012730    0.0541390  
N    -0.7605680    0.6066800    1.1798180  
C    -0.0392310    2.3722020   -0.4577320  
C    -0.4800500    3.0517110   -1.5940510  
O     0.3195720    3.9731890   -2.1923110  
C    -1.7539020    2.7753250   -2.1559500  
O    -2.0389600    3.5352810   -3.2742470  
C    -2.6056630    1.8220180   -1.6333560  
H     0.0915420    0.5474850    1.7183190  
H    -0.1760910    4.3340410   -2.9480070  
H    -2.8942190    3.2631430   -3.6387550  
H    -3.5586170    1.6179040   -2.1086470  
H    -1.9061180   -0.9055740    2.1472220  
C    -5.6820490   -1.3804510    3.4281070  
C    -4.6526600   -0.7155750    2.8441880  
C    -4.7995790   -0.9578580    1.4111800  
C    -6.0130420   -1.7957010    1.3208480  
N    -6.5230660   -2.0526820    2.4984920  
C    -6.5429610   -2.2433960    0.0557220  
C    -5.9014930   -1.8509720   -1.0662070  
O    -6.2988880   -2.1671350   -2.3167020  
C    -4.6682520   -0.9984860   -1.0164470  
O    -4.1689940   -0.6900080   -2.0991920  
C    -4.0831040   -0.5830490    0.3045190  
H    -3.9074890   -0.0964150    3.3224890  
H    -7.4360620   -2.8580220    0.0270060  
H    -5.6346970   -1.7505630   -2.9071250  
H    -5.9273450   -1.4347870    4.4822080  
