60


C    -1.5490630   -0.8509100   -1.5687010  
C    -2.8962330   -0.8600010   -1.3505440  
C    -3.1901960    0.1400500   -0.3552420  
C    -1.9610580    0.7494250   -0.0034640  
N    -0.9693010    0.1172500   -0.7480890  
C    -1.8470670    1.8033430    0.9018550  
C    -3.0296710    2.2777550    1.4515830  
O    -3.0027120    3.3129010    2.3270720  
C    -4.2853130    1.7068740    1.1121130  
O    -5.3480450    2.2888300    1.7651660  
C    -4.3949910    0.6139240    0.2443580  
H    -3.6021550   -1.5146510   -1.8396220  
H    -0.8985900    2.2587610    1.1633050  
H    -3.9342560    3.4909870    2.5604220  
H    -6.0505580    2.4384890    1.0977420  
H    -0.9268830   -1.4433870   -2.2233830  
C     0.9695110    1.3582250   -1.5982740  
C     2.3084830    1.3751950   -1.3889100  
C     2.6116610    0.4156350   -0.3450270  
C     1.3246720   -0.1916920    0.0429970  
N     0.3570080    0.4458520   -0.7290540  
C     1.1485690   -1.1798590    0.9569880  
C     2.3345230   -1.7040680    1.6083580  
O     2.3171500   -2.6101140    2.4268890  
C     3.7311940   -1.0792030    1.2301400  
O     4.7187950   -1.5361710    1.7790200  
C     3.8016190    0.0337850    0.2412360  
H     3.0224010    1.9810830   -1.9249460  
H     0.1781050   -1.5927660    1.2081870  
H     0.3551030    1.9130480   -2.2937610  
C     5.2395650    2.0401610   -0.2775980  
C     5.0638790    0.7018230   -0.0301180  
C     6.4362340    0.1462300   -0.1402840  
C     7.2776430    1.3296320   -0.4822810  
N     6.5663750    2.4264790   -0.5452260  
C     8.6939880    1.2271750   -0.7022510  
C     9.2618040    0.0009370   -0.6057360  
O    10.5663280   -0.2470100   -0.7913090  
C     8.4418710   -1.2160370   -0.2772690  
O     9.0230150   -2.2972050   -0.2202110  
C     6.9874120   -1.0778810   -0.0381500  
H     9.2682290    2.1147990   -0.9430930  
H    10.6704470   -1.2152480   -0.6583120  
H     6.4461590   -1.9747770    0.2351700  
H     4.4766980    2.8086290   -0.2437030  
C    -5.8012740   -3.6304580    0.2032280  
C    -5.0417250   -2.5314890    0.4130400  
C    -5.8692470   -1.4030350   -0.0146220  
C    -7.1379610   -2.0452160   -0.4655480  
N    -7.0935710   -3.3406270   -0.3499810  
C    -8.2472420   -1.2735440   -0.9667260  
C    -8.1184080    0.0715740   -0.9734330  
O    -9.0842880    0.9158460   -1.3797840  
C    -6.8775600    0.7431890   -0.4670830  
O    -6.9112660    1.9800260   -0.4121640  
C    -5.6817400   -0.0537890   -0.0531240  
H    -4.0462340   -2.4755870    0.8269030  
H    -9.1514580   -1.7703660   -1.2997650  
H    -8.7342680    1.8193560   -1.2329040  
H    -5.5514060   -4.6643800    0.4077230  
