60


C    -0.6875910   -1.9975770   -0.8642300  
C     0.6593800   -1.7643960   -0.9908780  
C     0.8792220   -0.3940820   -0.6306480  
C    -0.3785360    0.1504440   -0.2682270  
N    -1.3193260   -0.8498940   -0.4152050  
C    -0.5750030    1.4863110    0.1493520  
C     0.5890260    2.2656030    0.1899360  
O     0.5152190    3.5740810    0.5671040  
C     1.8556230    1.7339400   -0.1445380  
O     2.8803280    2.6588010   -0.0326170  
C     2.0476370    0.4113030   -0.5476790  
H     1.4028200   -2.4985680   -1.2643350  
H    -2.3189970   -0.7091320   -0.3817480  
H     1.4179150    3.9366070    0.5093220  
H     3.6278640    2.3814100   -0.5852840  
C    -1.3314710   -3.8855880   -2.3405470  
C    -2.1078250   -4.9946890   -2.3068600  
C    -2.7645000   -5.0268670   -1.0164360  
C    -2.2904230   -3.8286220   -0.2812120  
N    -1.4247340   -3.1538430   -1.1463050  
C    -2.6509810   -3.5171230    0.9885200  
C    -3.5842610   -4.4051520    1.6824350  
O    -3.9567500   -4.2079170    2.8280100  
C    -4.1232410   -5.6642080    0.9113190  
O    -4.9166640   -6.4056910    1.4684100  
C    -3.6400730   -5.8992720   -0.4525540  
H    -2.2242610   -5.7185560   -3.1003460  
H    -2.2717750   -2.6537280    1.5242830  
H    -4.0010800   -6.7832870   -0.9693950  
H    -0.6960100   -3.5051260   -3.1287170  
C     3.7201950   -0.9044700   -1.9495370  
C     3.3732500   -0.1120950   -0.8925220  
C     4.6323110    0.0090200   -0.1195580  
C     5.6241040   -0.7846100   -0.9054970  
N     5.0806660   -1.3068260   -1.9709790  
C     6.9910830   -0.9219680   -0.4797340  
C     7.3566200   -0.3306840    0.6836140  
O     8.5935670   -0.3842440    1.2005540  
C     6.3757870    0.4534780    1.5104950  
O     6.7794730    0.9624140    2.5534170  
C     4.9773370    0.5941510    1.0442250  
H     7.6886200   -1.4971420   -1.0784100  
H     8.5533350    0.1261450    2.0388210  
H     4.3045200    1.1752270    1.6664370  
H     3.0728330   -1.2317050   -2.7543290  
C    -2.8750440    1.3441600    1.2181630  
C    -1.9021150    1.9908910    0.5091770  
C    -2.5391510    3.2741350    0.1314690  
C    -3.9051110    3.1935230    0.7248380  
N    -4.0877020    2.0677440    1.3586410  
C    -4.8625520    4.2580440    0.5760540  
C    -4.4959580    5.3433000   -0.1466150  
O    -5.2866080    6.4049130   -0.3725110  
C    -3.1348790    5.4440400   -0.7755380  
O    -2.8743040    6.4572160   -1.4220410  
C    -2.1651720    4.3407940   -0.5983660  
H    -5.8436260    4.1692610    1.0292630  
H    -4.7499250    7.0191290   -0.9199250  
H    -1.1862880    4.4645280   -1.0456120  
H    -2.7985010    0.3776790    1.7037660  
