58


C     0.4284110    1.5677310   -0.3066250  
C    -0.9355350    1.5161100   -0.1717560  
C    -1.2971990    0.1358500   -0.0452450  
C    -0.0298970   -0.6304910   -0.1388690  
N     0.9788950    0.2946710   -0.3454490  
C     0.0805840   -1.9953990   -0.0642510  
C    -1.1617400   -2.6838590    0.3865430  
O    -1.1568000   -3.8045440    0.8593430  
C    -2.5267000   -1.9323220    0.3005660  
O    -3.5498300   -2.5964230    0.3242610  
C    -2.5171930   -0.4699360    0.1535070  
H    -1.6077670    2.3584600   -0.1240690  
H     1.9417130    0.0276850   -0.1080670  
C     0.7646470    3.8704100   -1.1090790  
C     1.7339450    4.8100270   -1.1581500  
C     2.9081220    4.2678010   -0.5048470  
C     2.5359910    2.9078860   -0.0457640  
N     1.2157530    2.6982230   -0.4663040  
C     3.3475740    2.1081560    0.6880480  
C     4.7129640    2.5596880    0.9519430  
O     5.5338640    1.8627070    1.5314030  
C     5.1364170    3.9862070    0.4568620  
O     6.2639600    4.3867000    0.6910890  
C     4.1406880    4.7839160   -0.2680710  
H     1.6526870    5.7853190   -1.6159930  
H     3.0560820    1.1448670    1.0870250  
H     4.4278120    5.7825430   -0.5824110  
H    -0.2399260    3.8887760   -1.5074630  
C    -4.6990500    2.3970450   -2.5376610  
C    -3.7409170    1.5697790   -2.0510080  
C    -4.2538240    1.1078820   -0.7660390  
C    -5.5837240    1.7805950   -0.6504630  
N    -5.8352200    2.5340220   -1.6857510  
C    -6.4528450    1.5617600    0.4759250  
C    -6.0263590    0.7190530    1.4441160  
O    -6.7255060    0.4289580    2.5523550  
C    -4.6749100    0.0564260    1.3845670  
O    -4.3198990   -0.5768380    2.3720410  
C    -3.7958890    0.2491830    0.1842620  
H    -2.8064660    1.2856910   -2.5127410  
H    -7.4135490    2.0620140    0.5259890  
H    -6.1479870   -0.1667580    3.0786020  
H    -4.6955000    2.9347660   -3.4789170  
C     4.4296460   -1.4412980    0.9518640  
C     4.9071940   -2.6754100    0.6843350  
C     3.7842930   -3.4201310    0.1325800  
C     2.6316970   -2.4547360    0.1758810  
N     3.0357150   -1.3022540    0.6366780  
C     1.2908190   -2.8133310   -0.2659970  
C     1.2051340   -4.0319910   -0.8949950  
O     0.1046310   -4.4705580   -1.5019860  
C     2.3518230   -5.0087250   -0.9759900  
O     2.1392600   -6.0801720   -1.5380900  
C     3.6574640   -4.6472440   -0.4052990  
H     5.9142380   -3.0434530    0.8203420  
H     0.3115080   -5.3813530   -1.8130710  
H     4.4592820   -5.3750540   -0.4789710  
H     4.9546410   -0.5785690    1.3468720  
