60


C     4.1768050    1.6850240    0.6583960  
C     4.1334270    3.0683200    0.6054010  
C     2.8695640    3.4431040    0.0635550  
C     2.1608570    2.2458150   -0.2156980  
N     2.9844900    1.1945890    0.1225050  
C     0.8335830    2.2174990   -0.7089610  
C     0.2421430    3.4740360   -0.9362400  
O    -1.0043870    3.5760650   -1.4632650  
C     0.9567270    4.6773880   -0.6838770  
O     0.2302840    5.8127670   -0.9833480  
C     2.2473470    4.6812940   -0.1970950  
H     4.9397400    3.7299500    0.8902660  
H     2.6448610    0.2526920    0.2580710  
H    -1.1816160    4.5275040   -1.5794180  
H     0.7820380    6.5995130   -0.8617210  
H     2.7652410    5.6190440   -0.0086430  
C     0.1433900    0.9601420   -0.9564930  
C     0.6685990   -0.2320780   -1.3816530  
C    -0.4409270   -1.1550640   -1.4483270  
C    -1.6160850   -0.3529650   -0.9807270  
N    -1.2698090    0.8666180   -0.7004330  
C    -2.9644450   -0.9134920   -0.8727080  
C    -3.0855110   -2.2030350   -1.3136910  
O    -4.2542020   -2.8658610   -1.3840080  
C    -1.9256020   -3.0246700   -1.7927890  
O    -2.1657420   -4.1796360   -2.1551900  
C    -0.5798170   -2.4421120   -1.8319510  
H     1.6772960   -0.4286750   -1.7179720  
H    -4.0163270   -3.7578560   -1.7288820  
H     0.2308230   -3.0745130   -2.1803120  
C    -4.1075830    1.2837610   -0.4754930  
C    -4.0579280   -0.0845520   -0.3646350  
C    -5.2508070   -0.4754100    0.3941170  
C    -5.9950870    0.7809890    0.6704770  
N    -5.2513270    1.7961510    0.1020430  
C    -7.1589270    0.8678570    1.3622520  
C    -7.7350030   -0.3558150    1.9068720  
O    -8.7789940   -0.3808780    2.5413640  
C    -6.9513490   -1.6945750    1.6674340  
O    -7.3990440   -2.7319480    2.1313760  
C    -5.7053540   -1.6551030    0.8932330  
H    -7.6736060    1.8065860    1.5440020  
H    -5.1980050   -2.5958740    0.7276790  
H    -3.3745030    1.9408450   -0.9198550  
H    -5.4751590    2.7770770    0.1659000  
C     6.1808960    1.0678180    2.0739730  
C     5.2102130    0.8082360    1.1469770  
C     5.4806440   -0.5882240    0.7272010  
C     6.6583190   -0.9917160    1.5436690  
N     7.0597590   -0.0142580    2.3131790  
C     7.2417430   -2.3001530    1.4295810  
C     6.7046450   -3.1640110    0.5321640  
O     7.1530620   -4.4153980    0.3290230  
C     5.5424280   -2.7771040   -0.3276980  
O     5.1025190   -3.6051240   -1.1249710  
C     4.9593100   -1.4222120   -0.1912300  
H     8.0928010   -2.5677790    2.0460570  
H     6.5788560   -4.7903110   -0.3732930  
H     4.1401660   -1.1784450   -0.8605980  
H     6.3203480    1.9846920    2.6336120  
