62


C     0.4739110    1.0748720   -1.7719000  
C     1.8089030    0.8215690   -1.6021310  
C     1.9925180    0.2541670   -0.2936910  
C     0.7140470    0.1772290    0.2969740  
N    -0.1969170    0.6951750   -0.6178830  
C     0.4632600   -0.3596890    1.5655150  
C     1.5476610   -0.8586200    2.2604100  
O     1.3780910   -1.4112030    3.4892730  
C     2.8635740   -0.8073140    1.7149890  
O     3.7931560   -1.3374180    2.5359570  
C     3.1274880   -0.2288570    0.4435570  
H     2.5588440    1.0000920   -2.3556170  
H    -0.5283620   -0.3911290    2.0034860  
H     2.2637960   -1.6809390    3.7965300  
H     4.6806110   -1.2927690    2.0568840  
H    -0.0746120    1.4930280   -2.6029110  
C    -2.4351950   -0.3048490   -0.7440960  
C    -3.7175790    0.0290810   -0.4371380  
C    -3.6713020    1.3885760    0.1135110  
C    -2.2548430    1.8163860    0.0977880  
N    -1.5509180    0.7437360   -0.4400460  
C    -1.7921480    3.0134200    0.5314400  
C    -2.7619960    3.9680030    1.0640460  
O    -2.4524700    5.0748690    1.4760670  
C    -4.2738210    3.5364650    1.1056640  
O    -5.0994210    4.3144390    1.5549970  
C    -4.6375570    2.2058840    0.5995900  
H    -0.7440050    3.2913350    0.5048140  
H    -5.6843110    1.9254370    0.6169840  
H    -2.0400320   -1.2072100   -1.1914290  
C    -4.4778370   -4.0810350    0.9838950  
C    -5.7331510   -4.2326690    0.4573960  
C    -6.0572460   -3.0096200   -0.2216670  
C    -4.9415500   -2.1453890   -0.0752510  
N    -3.9885230   -2.8297140    0.6519470  
C    -4.9019340   -0.8340180   -0.5977990  
C    -6.0415360   -0.4136550   -1.2864670  
O    -6.0764260    0.8334650   -1.8427850  
C    -7.1643600   -1.2666720   -1.4411150  
O    -8.1981980   -0.6895080   -2.1549480  
C    -7.1857940   -2.5488670   -0.9273410  
H    -6.3559240   -5.1126720    0.5407110  
H    -3.1340560   -2.4249220    1.0016260  
H    -6.9464460    0.9329380   -2.2678700  
H    -8.9360730   -1.3133470   -2.2202910  
H    -8.0598660   -3.1827400   -1.0621690  
H    -3.8769190   -4.7655660    1.5657190  
C     4.4803280   -0.1299220   -0.0432270  
C     5.0182800    0.5113490   -1.1399540  
C     6.4252790    0.2693570   -1.1094660  
C     6.6424410   -0.5730190    0.1152290  
N     5.5127910   -0.7910450    0.7239980  
C     7.9408980   -1.0368450    0.5063160  
C     8.9827490   -0.6748800   -0.2822870  
O    10.2491960   -1.0204480   -0.0599760  
C     8.8046830    0.1830770   -1.5307890  
O     9.8364680    0.4388520   -2.1575850  
C     7.4760090    0.6336020   -1.8984120  
H     4.5092420    1.1230620   -1.8657980  
H     8.0698590   -1.6461680    1.3937490  
H    10.7565190   -0.6062260   -0.7995870  
H     7.3784410    1.2436370   -2.7904780  
