60


C    -1.5741060   -1.4876020    0.0990210  
C    -0.9030260   -0.2781440   -0.0607360  
C    -1.9359210    0.7486820   -0.0659920  
C    -3.1777520    0.0864330    0.0751370  
N    -2.9171970   -1.2706680    0.1756330  
C    -4.4277010    0.7425410    0.0406910  
C    -4.3868360    2.1312850   -0.1117720  
O    -5.5377640    2.8471610   -0.0741040  
C    -3.1505430    2.8110690   -0.2513800  
O    -3.2880650    4.1752100   -0.3848350  
C    -1.9404040    2.1459280   -0.2410150  
H    -3.6094810   -1.9719220    0.3973380  
H    -5.3047870    3.7826700   -0.2116890  
H    -2.4156510    4.5970560   -0.3704980  
H    -1.0122600    2.6992160   -0.3245330  
H    -1.1667540   -2.4797070    0.2270300  
C     2.1095990   -2.8776220   -2.0251480  
C     0.9585730   -2.2794300   -1.6329330  
C     1.3162810   -1.1336630   -0.8185140  
C     2.7839110   -1.1161870   -0.7682770  
N     3.2060400   -2.2098110   -1.4731760  
C     3.5767920   -0.1515570   -0.1556150  
C     2.8525340    1.0058960    0.3499680  
O     3.3778710    2.0491380    0.7312940  
C     1.2806410    0.9557750    0.4244520  
O     0.7299120    1.8736840    1.0040340  
C     0.5387460   -0.1789580   -0.1896580  
H    -0.0404850   -2.5731420   -1.9146430  
H     2.2670780   -3.7379240   -2.6606660  
H     4.1664550   -2.3348400   -1.7622990  
C     5.0201740   -0.2320040   -0.0828780  
C     5.8687620   -1.3186460   -0.2193830  
C     7.2153070   -0.8575220   -0.0321390  
C     7.1160820    0.6011230    0.2277840  
N     5.7756680    0.9107420    0.1720580  
C     8.1808300    1.4092350    0.4648600  
C     9.5156390    0.8179940    0.4668560  
O    10.5310430    1.4675680    0.6697840  
C     9.6446100   -0.7263030    0.1946080  
O    10.7576480   -1.2343110    0.1917600  
C     8.4240230   -1.4900250   -0.0465580  
H     5.5802710   -2.3553700   -0.3116250  
H     8.0891280    2.4741040    0.6547830  
H     8.5255640   -2.5554760   -0.2311920  
H     5.3305370    1.7889100    0.4112550  
C    -6.2294580   -2.1940140    2.9093740  
C    -5.3694650   -1.3096540    2.3449120  
C    -6.0341970   -0.8617140    1.1233950  
C    -7.3295560   -1.6064100    1.1280500  
N    -7.4344710   -2.3850510    2.1694870  
C    -8.3108570   -1.4320240    0.0891850  
C    -8.0182910   -0.5694530   -0.9102870  
O    -8.8332630   -0.3121340   -1.9453610  
C    -6.7017790    0.1629630   -0.9746230  
O    -6.4825770    0.8258900   -1.9816130  
C    -5.7047490    0.0137060    0.1373460  
H    -4.4192520   -0.9653590    2.7282060  
H    -9.2452940   -1.9807490    0.1259390  
H    -8.3358810    0.3071120   -2.5234790  
H    -6.1050830   -2.7389100    3.8380000  
