60


C    -1.5380210    0.0532800    0.8222410  
C    -2.7358720   -0.4589260    0.3482890  
C    -3.3696520    0.6254770   -0.3880970  
C    -2.5011800    1.7391520   -0.3238210  
N    -1.3703410    1.3549740    0.4129130  
C    -2.7917510    2.9659460   -0.9250590  
C    -4.0098580    3.0868040   -1.5768880  
O    -4.3434830    4.2623870   -2.1781340  
C    -4.9164820    1.9974440   -1.6124560  
O    -6.0953270    2.2704780   -2.2745300  
C    -4.6125410    0.7795120   -1.0301080  
H    -2.1324730    3.8223100   -0.8651170  
H    -5.2468030    4.1646740   -2.5258800  
H    -6.7049230    1.5238330   -2.1761020  
H    -5.3260890   -0.0378340   -1.0730310  
H    -0.7920850   -0.4183060    1.4403990  
C     2.8691620    0.5191350   -0.3647960  
C     1.4959940    0.4807790   -0.3224930  
C     1.0379140    1.6592890    0.3542770  
C     2.2508310    2.4224670    0.7241370  
N     3.3303040    1.6550590    0.3113770  
C     2.2527430    3.6372110    1.3246840  
C     0.9668400    4.2355030    1.6672450  
O     0.8563530    5.3395690    2.1736500  
C    -0.3443690    3.4151540    1.3744480  
O    -1.4142200    3.8696860    1.7407840  
C    -0.2136740    2.1254350    0.6714300  
H     0.8758740   -0.3231480   -0.6896430  
H     3.1575410    4.1853520    1.5672930  
H     4.2540020    2.0393610    0.1749000  
C     3.5028880   -1.2157510   -2.0500920  
C     3.7933690   -0.4042320   -0.9812980  
C     5.1888390   -0.6678670   -0.6279460  
C     5.6689580   -1.6883700   -1.5917080  
N     4.5875030   -1.9768730   -2.4126860  
C     6.9196740   -2.2066140   -1.6137650  
C     7.8821400   -1.7375610   -0.6147080  
O     9.0333190   -2.1358820   -0.5655280  
C     7.3914790   -0.6809900    0.4376290  
O     8.1676710   -0.2855820    1.2903650  
C     6.0042770   -0.2025470    0.3540490  
H     7.2445890   -2.9573810   -2.3273950  
H     5.6811350    0.5014780    1.1136720  
H     2.5760850   -1.2885030   -2.6037890  
H     4.6124180   -2.6139950   -3.1947330  
C    -5.0450840   -3.5545740   -1.9814330  
C    -4.3749500   -2.4135650   -1.6780180  
C    -3.9523510   -2.5701120   -0.2882000  
C    -4.4658930   -3.9087810    0.0814700  
N    -5.1126320   -4.4782870   -0.9032180  
C    -4.2257510   -4.4964210    1.3764360  
C    -3.4591030   -3.8045000    2.2467260  
O    -3.1197930   -4.2474140    3.4739580  
C    -2.8940890   -2.4586000    1.9036970  
O    -2.1770110   -1.9302650    2.7527510  
C    -3.2165510   -1.8074920    0.5804750  
H    -4.1557190   -1.5812340   -2.3300450  
H    -4.6310000   -5.4742850    1.6123360  
H    -2.5627160   -3.5377870    3.8599900  
H    -5.5013710   -3.8265740   -2.9261760  
