62


C     0.1020230   -0.1671770   -0.8759880  
C    -0.0598300    1.1221790   -0.3957680  
C     1.1930200    1.4614040    0.2572860  
C     2.0391100    0.3321800    0.1483780  
N     1.3441250   -0.6389580   -0.5483250  
C     3.3552360    0.2688620    0.6646060  
C     3.7952310    1.4237550    1.3196940  
O     5.0446410    1.4676760    1.8679220  
C     2.9564780    2.5581620    1.4522150  
O     3.5499390    3.6008790    2.1372830  
C     1.6734060    2.5927880    0.9435730  
H     1.7510070   -1.5046760   -0.8703710  
H     5.1366040    2.3376560    2.2959780  
H     2.9347780    4.3473970    2.1889100  
H     1.0678730    3.4871980    1.0392640  
H    -0.5801250   -0.7620670   -1.4651030  
C    -4.4345970    0.1350350   -0.1623090  
C    -3.0620970    0.0366160   -0.1180320  
C    -2.5526480    1.3424490   -0.4656880  
C    -3.7807460    2.1413760   -0.7242730  
N    -4.8687610    1.4484150   -0.5492560  
C    -3.7237740    3.5309350   -1.1074190  
C    -2.5035980    4.1036060   -1.1753780  
O    -2.2880520    5.3933090   -1.4904300  
C    -1.2377310    3.3328430   -0.8901300  
O    -0.1860690    3.9713710   -0.9818480  
C    -1.2950130    1.8879250   -0.5465860  
H    -2.4790120   -0.7976940    0.2453670  
H    -4.6377580    4.0798940   -1.3041040  
H    -1.3108010    5.4981740   -1.4665300  
C    -4.2669150   -4.1654540   -1.0586620  
C    -5.4913360   -4.5128860   -0.5509550  
C    -6.0856380   -3.3143350   -0.0312160  
C    -5.1611790   -2.2627120   -0.2435220  
N    -4.0581020   -2.8127860   -0.8590060  
C    -5.4166200   -0.9075420    0.0919200  
C    -6.6702420   -0.6538550    0.6797860  
O    -6.9979240    0.5908550    1.1019430  
C    -7.5968020   -1.7064860    0.9073090  
O    -8.7688960   -1.2834930    1.5079450  
C    -7.3258100   -3.0167820    0.5678320  
H    -5.9220110   -5.5047510   -0.5479250  
H    -3.3004390   -2.2656760   -1.2381090  
H    -7.8978700    0.5394050    1.4704750  
H    -9.3552680   -2.0416230    1.6457140  
H    -8.0588950   -3.7985280    0.7571010  
H    -3.5113350   -4.7717000   -1.5379890  
C     3.7633210   -2.2404600    0.6661250  
C     4.1683810   -0.9436970    0.5313360  
C     5.5926610   -1.0616830    0.1393060  
C     5.8431170   -2.5305120    0.0995980  
N     4.7729420   -3.2082370    0.4115600  
C     7.1307180   -3.0712290   -0.2519150  
C     8.1174990   -2.2006960   -0.5719110  
O     9.3627100   -2.5627190   -0.9246100  
C     7.8890820   -0.7158930   -0.5604710  
O     8.8327080    0.0120280   -0.8655200  
C     6.5602700   -0.1849330   -0.1851520  
H     7.2817770   -4.1450200   -0.2620230  
H     9.8394300   -1.7205260   -1.0936570  
H     6.4428360    0.8919840   -0.1625350  
H     2.7854760   -2.5904320    0.9777160  
