58


C     0.9448580   -2.7438600   -0.0261620  
C     1.4607330   -1.4385010   -0.0336060  
C     2.8633960   -1.5029510   -0.1481930  
C     3.1964910   -2.9429020   -0.2131910  
N     2.0082840   -3.6267770   -0.1450490  
C     4.4479690   -3.4604420   -0.3150340  
C     5.5720800   -2.5415040   -0.3533340  
O     6.7323910   -2.9079320   -0.4532640  
C     5.2833440   -1.0021740   -0.2517220  
O     6.2539480   -0.2638180   -0.2438910  
C     3.8754740   -0.5171520   -0.1747700  
H     0.9075550   -0.5236580    0.0589900  
H     4.6477050   -4.5263870   -0.3625790  
H     1.8781510   -4.6299340   -0.1082740  
C    -3.1740700   -0.8128850    0.0270650  
C    -1.7825760   -0.9836530   -0.0472070  
C    -1.5432080   -2.3642310    0.1213820  
C    -2.9163830   -2.9407520    0.3359340  
N    -3.8517880   -2.0371310    0.2759910  
C    -3.1374010   -4.3353290    0.5732470  
C    -2.0619230   -5.1548380    0.5311470  
O    -2.1299210   -6.4801810    0.7016230  
C    -0.6697030   -4.6411310    0.2730170  
O     0.2089850   -5.5172360    0.2300880  
C    -0.4125180   -3.1948960    0.1090200  
H    -1.0687960   -0.2247310   -0.3237470  
H    -4.1420390   -4.7048440    0.7441520  
H    -1.2080150   -6.8069420    0.6016210  
C    -2.3365860    3.5042030    0.8633770  
C    -2.2317100    2.1428110    0.7228290  
C    -3.4791450    1.6602900    0.2116620  
C    -4.3498620    2.8484590    0.0913400  
N    -3.5858620    3.9335710    0.4854200  
C    -5.6555260    2.8390940   -0.2824680  
C    -6.2677470    1.5531960   -0.5978750  
O    -7.4558710    1.4276690   -0.8431010  
C    -5.3397490    0.2938620   -0.6561080  
O    -5.7651180   -0.6864950   -1.2307790  
C    -3.9474360    0.3850480   -0.1060870  
H    -1.3632980    1.5557450    0.9754240  
H    -6.2741540    3.7308570   -0.3164970  
H    -1.5960520    4.2183960    1.1991620  
H    -3.9084050    4.8890800    0.5106030  
C     3.6134700    0.8811960   -0.1215660  
C     4.5062970    1.9464450   -0.0366490  
C     3.7151190    3.1296810    0.0135530  
C     2.3035130    2.6375970   -0.0765210  
N     2.2419510    1.3428260   -0.1473720  
C     1.1875790    3.5443050   -0.0732910  
C     1.4577850    4.8609460    0.0734180  
O     0.5231570    5.8215830    0.1348780  
C     2.8734390    5.3949600    0.1883710  
O     2.9773300    6.6206590    0.3181910  
C     3.9854010    4.4640750    0.1382290  
H     5.5800460    1.8757880    0.0045910  
H     0.1795320    3.1639950   -0.1847050  
H     1.0433620    6.6560230    0.2386230  
H     4.9886840    4.8713880    0.2108980  
