62


C    -1.9087990   -0.5923230    0.7586880  
C    -1.0344020    0.4029200    0.3800070  
C    -1.8481290    1.5697640    0.1010040  
C    -3.1966810    1.2093020    0.3304040  
N    -3.2183450   -0.1307710    0.7299390  
C    -4.2554390    2.1147800    0.1895440  
C    -3.9466950    3.3990270   -0.2326200  
O    -4.9401520    4.3180310   -0.3873940  
C    -2.6016630    3.7676130   -0.4973490  
O    -2.4542320    5.0758880   -0.9104250  
C    -1.5583560    2.8758770   -0.3341500  
H    -5.2854030    1.8587920    0.4076870  
H    -4.5228000    5.1526560   -0.6629560  
H    -1.5124210    5.2819640   -1.0053410  
H    -0.5326050    3.1879240   -0.5031060  
H    -1.7100540   -1.6058340    1.0768960  
C     1.2518620   -2.8071240   -1.5371710  
C     2.5160550   -2.3618990   -1.2391260  
C     2.3703640   -1.1455560   -0.4951510  
C     0.9800310   -0.9008820   -0.3740450  
N     0.3253880   -1.9382100   -1.0050490  
C     0.4206990    0.2358090    0.2513380  
C     1.3467900    1.1564450    0.7516640  
O     0.9114640    2.2759850    1.4020290  
C     2.7418600    0.9467790    0.6421930  
O     3.4840750    1.9438970    1.2367470  
C     3.2905410   -0.1961860    0.0377250  
H     3.4376030   -2.8385400   -1.5376580  
H    -0.6722140   -1.9677730   -1.1514950  
H     1.7028990    2.7175520    1.7594570  
H     4.4172060    1.6620600    1.3001660  
H     0.9348080   -3.6831320   -2.0850410  
C     4.7247740   -0.4110020   -0.0064430  
C     5.4534310   -1.5684340    0.0540700  
C     6.8536180   -1.2438510   -0.0010510  
C     6.9252520    0.2287570   -0.1136980  
N     5.6087950    0.7126540   -0.0305510  
C     8.0702240    0.9300430   -0.2641870  
C     9.3388000    0.1933220   -0.2798790  
O    10.4181220    0.7476510   -0.4089750  
C     9.2908350   -1.3673470   -0.1042170  
O    10.3432610   -1.9898880   -0.0987550  
C     7.9840060   -2.0048660    0.0291660  
H     5.0412860   -2.5570910    0.1939200  
H     8.1056650    2.0117210   -0.3544320  
H     7.9586780   -3.0859760    0.1259390  
H     5.3555430    1.5006520   -0.6195120  
C    -4.4434000   -1.6913250    2.2150270  
C    -4.3288620   -0.8842620    1.1271840  
C    -5.5702860   -1.0954300    0.3560590  
C    -6.3313490   -2.0708180    1.1884760  
N    -5.6675970   -2.4121220    2.2590590  
C    -7.6320270   -2.5403900    0.7906040  
C    -8.1293990   -2.1094720   -0.3941990  
O    -9.3218680   -2.4790930   -0.8901570  
C    -7.3631580   -1.1642270   -1.2739950  
O    -7.8732040   -0.8228140   -2.3390490  
C    -6.0387050   -0.6697610   -0.8311660  
H    -8.1734780   -3.2334150    1.4249990  
H    -9.4059090   -2.0128960   -1.7503310  
H    -5.5258750    0.0295750   -1.4838620  
H    -3.7211060   -1.8280350    3.0104750  
