62


C    -1.7731280   -0.3840400    0.2500560  
C    -3.1426060   -0.3471560    0.0428900  
C    -3.4932050    1.0591250   -0.0669730  
C    -2.2939340    1.7956160    0.0899920  
N    -1.2487850    0.8866420    0.2755720  
C    -2.2415810    3.1968140    0.0522630  
C    -3.4398450    3.8742000   -0.1253200  
O    -3.4493000    5.2334000   -0.1783980  
C    -4.6556220    3.1556090   -0.2611950  
O    -5.7612530    3.9626990   -0.4271460  
C    -4.6938330    1.7736770   -0.2387550  
H    -1.3123270    3.7532220    0.1117830  
H    -4.3697100    5.5116860   -0.3291030  
H    -6.5423070    3.4153020   -0.5979310  
H    -5.6333550    1.2517320   -0.3830860  
H    -1.1214750   -1.2387150    0.3543600  
C     2.3935890   -0.2230520   -2.0072800  
C     1.1008180   -0.0707470   -1.5967820  
C     1.1210050    0.7196540   -0.3939400  
C     2.4700020    1.0333070   -0.1068720  
N     3.2329260    0.4422760   -1.1112090  
C     2.8706060    1.8153770    0.9786610  
C     1.8695810    2.2941320    1.8112440  
O     2.1914110    3.0618000    2.8853670  
C     0.5036820    1.9838600    1.5707340  
O    -0.3598360    2.4861230    2.5139400  
C     0.1240650    1.2033500    0.4818970  
H     0.2280590   -0.4701910   -2.0931240  
H     3.9078850    2.0551170    1.1828400  
H     1.3581240    3.3068340    3.3260510  
H    -1.2675780    2.5151610    2.1653360  
H     2.8188590   -0.7428470   -2.8532110  
C     5.2907520    1.5270210   -1.8982460  
C     6.6251990    1.3112100   -1.8293620  
C     6.8369010    0.0953570   -1.0644800  
C     5.4942710   -0.3994600   -0.6788960  
N     4.5925770    0.5177090   -1.2162340  
C     5.2528880   -1.5187400    0.0430360  
C     6.4029720   -2.3093240    0.4836330  
O     6.2934730   -3.3342520    1.1366950  
C     7.8419120   -1.8074840    0.0915730  
O     8.8124580   -2.4541690    0.4502950  
C     7.9593270   -0.5749790   -0.6962570  
H     7.3966890    1.9307040   -2.2634030  
H     4.2560070   -1.8531390    0.3093230  
H     8.9573650   -0.2393460   -0.9613000  
H     4.7265120    2.3182050   -2.3730760  
C    -3.0976930   -4.2626840    2.1908610  
C    -2.8351720   -2.9731400    1.8638900  
C    -3.7441020   -2.6616660    0.7627650  
C    -4.5071840   -3.9191260    0.5711360  
N    -4.1237930   -4.8550600    1.3974860  
C    -5.5489510   -4.0392270   -0.4188750  
C    -5.8291120   -2.9504320   -1.1675240  
O    -6.7911600   -2.9080540   -2.1105290  
C    -5.0803480   -1.6597360   -1.0013950  
O    -5.4201910   -0.7271410   -1.7296390  
C    -3.9637420   -1.5509680   -0.0036150  
H    -2.1352900   -2.2996100    2.3367120  
H    -6.0857780   -4.9745290   -0.5326280  
H    -6.7451030   -2.0024770   -2.4856770  
H    -2.6369310   -4.8594200    2.9689950  
