64


C    -1.2477380   -0.9366590   -1.3774540  
C    -2.6011640   -0.9681050   -1.1756420  
C    -2.9012780   -0.0306750   -0.1306650  
C    -1.6648270    0.5606640    0.2489720  
N    -0.6578430   -0.0204060   -0.5162490  
C    -1.5667430    1.5802750    1.2023430  
C    -2.7518980    2.0207140    1.7766420  
O    -2.7282520    3.0160630    2.6999290  
C    -4.0029510    1.4605140    1.4132650  
O    -5.0695040    2.0023680    2.0975170  
C    -4.1082370    0.4139090    0.4878190  
H    -3.2983510   -1.6000140   -1.7053200  
H    -0.6280040    2.0587040    1.4598270  
H    -3.6617830    3.1812470    2.9347590  
H    -5.7656230    2.1970260    1.4350980  
H    -0.6275750   -1.5040730   -2.0560690  
C     2.2483150    1.4170530   -3.5639580  
C     1.0935900    1.0413560   -2.9266500  
C     1.4480760    0.7230950   -1.5724080  
C     2.8442950    0.9330880   -1.4509610  
N     3.3063180    1.3550450   -2.6771130  
C     3.5517840    0.7372780   -0.2507610  
C     2.8204680    0.3051480    0.8540680  
O     3.4409090    0.1059160    2.0469360  
C     1.4282100    0.0487700    0.7448170  
O     0.8606170   -0.4220620    1.9064990  
C     0.7351120    0.2610570   -0.4433150  
H     0.1068460    1.0012060   -3.3648190  
H     4.2717250    1.5635840   -2.8827300  
H     2.7578970   -0.1806630    2.6792420  
H    -0.1081750   -0.3744590    1.8473810  
H     2.4079620    1.7309540   -4.5856780  
C     5.5314590    2.2322290   -0.4578840  
C     6.8937940    2.1229300   -0.3944420  
C     7.1951350    0.7580130   -0.0654920  
C     5.9578650    0.0765550    0.0612780  
N     4.9424430    0.9980850   -0.1806280  
C     5.8745400   -1.2895960    0.3543190  
C     7.0637620   -1.9775960    0.5344850  
O     7.0407730   -3.3119780    0.8283100  
C     8.3124830   -1.3112110    0.4191230  
O     9.4066770   -2.1326230    0.6262520  
C     8.3908360    0.0364430    0.1226250  
H     7.6017470    2.9265700   -0.5465480  
H     4.9294580   -1.8093050    0.4575450  
H     7.9646030   -3.5976360    0.9318860  
H    10.2169810   -1.6039180    0.5850260  
H     9.3590170    0.5258330    0.0332800  
H     4.9028140    3.0930770   -0.6382180  
C    -5.5273690   -3.8178570    0.1850030  
C    -4.7636500   -2.7357580    0.4589830  
C    -5.5867980   -1.5806680    0.1002810  
C    -6.8564480   -2.1898810   -0.3866710  
N    -6.8185970   -3.4908470   -0.3467980  
C    -7.9636400   -1.3863520   -0.8403500  
C    -7.8301080   -0.0438620   -0.7675370  
O    -8.7931500    0.8269790   -1.1234680  
C    -6.5879400    0.5927490   -0.2209900  
O    -6.6192310    1.8249610   -0.0977770  
C    -5.3948820   -0.2312470    0.1482060  
H    -3.7650140   -2.7079690    0.8677460  
H    -8.8692160   -1.8596100   -1.2028050  
H    -8.4365300    1.7181910   -0.9253530  
H    -5.2800850   -4.8630990    0.3253990  
