62


C    -0.8366150    1.9831190   -0.1277730  
C    -1.5029660    3.1911120   -0.0824530  
C    -2.9046790    2.9116200    0.0104920  
C    -3.0461210    1.4989960    0.0230310  
N    -1.7819450    0.9657260   -0.0592490  
C    -4.2922730    0.8431410    0.0869300  
C    -5.4196050    1.6668370    0.1714720  
O    -6.6566230    1.1148960    0.3128640  
C    -5.2932700    3.0784670    0.1686470  
O    -6.5043050    3.7418320    0.2670100  
C    -4.0642650    3.7065310    0.0872470  
H    -1.0338550    4.1655030   -0.0716230  
H    -1.5741580   -0.0141350   -0.1632560  
H    -7.2977790    1.8466070    0.3012400  
H    -6.3512990    4.6971360    0.2272430  
H    -4.0003690    4.7930310    0.0880990  
C     1.5364690    2.4120940   -0.8810990  
C     0.5805220    1.6726010   -0.2193710  
C     1.2731610    0.5366250    0.3534610  
C     2.6396120    0.6546650   -0.0041740  
N     2.7678970    1.8049440   -0.7525230  
C     3.6162110   -0.3032640    0.3531280  
C     3.1731890   -1.3791800    1.1285080  
O     4.0669120   -2.3052560    1.5673590  
C     1.8153600   -1.4912220    1.5187240  
O     1.5590490   -2.5976250    2.3047240  
C     0.8677470   -0.5565090    1.1459250  
H     3.6363930    2.1605250   -1.1217050  
H     3.5641490   -2.9908950    2.0413220  
H     0.6063410   -2.6765730    2.4606440  
H    -0.1607310   -0.6540660    1.4870010  
H     1.4252010    3.3209690   -1.4544660  
C     6.8342250    2.8059160    0.6416380  
C     5.6464500    2.1677540    0.7843170  
C     5.8217070    0.8835900    0.1094460  
C     7.2284690    0.9309780   -0.3874010  
N     7.8134420    2.0548780   -0.0760320  
C     7.8215660   -0.1712000   -1.1001700  
C     7.0532800   -1.2621550   -1.3165620  
O     7.4679210   -2.3592840   -1.9718230  
C     5.6154160   -1.3290230   -0.8683710  
O     4.9697410   -2.3090730   -1.2220770  
C     5.0209540   -0.1989950   -0.0784080  
H     4.7634390    2.5066630    1.3070730  
H     8.8486200   -0.1082210   -1.4421300  
H     6.6825230   -2.9482470   -2.0128800  
H     7.1097280    3.7859320    1.0136580  
C    -6.4294790   -1.8443820   -2.6719220  
C    -6.2089490   -3.0608690   -2.1261990  
C    -5.3652060   -2.8040840   -0.9613120  
C    -5.2001630   -1.3148550   -0.9493730  
N    -5.8042450   -0.7663140   -1.9589250  
C    -4.4096120   -0.6296990    0.0719970  
C    -3.7719570   -1.4404000    0.9638780  
O    -2.9750640   -0.9834680    1.9585130  
C    -3.9041840   -2.9301090    0.9589930  
O    -3.2979130   -3.5599600    1.8303150  
C    -4.7466200   -3.5858970   -0.0571570  
H    -6.5542090   -4.0258660   -2.4704740  
H    -2.7439440   -1.7896440    2.4721340  
H    -4.8102970   -4.6695010   -0.0279140  
H    -7.0037950   -1.6035830   -3.5584910  
