58


C     1.2448310    2.4393080    0.0426100  
C     2.4451940    1.8140810    0.0138310  
C     2.2116530    0.4010460   -0.1523740  
C     0.7411770    0.2390940   -0.2281920  
N     0.1843380    1.5306310   -0.0875750  
C     0.1045300   -0.9391900   -0.4360590  
C     0.9177220   -2.1460350   -0.5317240  
O     0.4325210   -3.2543710   -0.6857610  
C     2.4748390   -2.0232240   -0.4215600  
O     3.1148690   -3.0570520   -0.4872330  
C     3.0871270   -0.6731820   -0.2457590  
H     3.4183770    2.2658150    0.1064420  
H    -0.9692520   -1.0226160   -0.5251280  
H     1.0282080    3.4888640    0.1725190  
C    -1.1392930    1.9162520   -0.0799310  
C    -1.6323450    3.1995750   -0.1472210  
C    -3.0501680    3.0565050   -0.0647770  
C    -3.2809450    1.5678520    0.0335290  
N    -2.1370750    0.9211230    0.0394110  
C    -4.5935700    0.9800350    0.1187410  
C    -5.6189700    1.8918690    0.1964370  
O    -6.8835840    1.5568000    0.3892400  
C    -5.4222170    3.4017140    0.0958060  
O    -6.4485720    4.0807090    0.1650140  
C    -4.0856520    3.9379280   -0.0532930  
H    -1.0914980    4.1263470   -0.2637500  
H    -7.3851010    2.4086210    0.3683290  
H    -3.9699620    5.0139990   -0.1251010  
C    -2.7727810   -2.5220230    2.1755920  
C    -3.5892960   -3.4992730    1.7092970  
C    -4.5353900   -2.8749900    0.8098970  
C    -4.2031650   -1.4264860    0.8101230  
N    -3.1549370   -1.2669100    1.6986400  
C    -4.8599550   -0.4720500    0.0812640  
C    -5.8899860   -0.9714820   -0.8610460  
O    -6.4039690   -0.2661260   -1.7118910  
C    -6.3203400   -2.4810430   -0.7913420  
O    -7.2688970   -2.8460550   -1.4683480  
C    -5.5595160   -3.3781440    0.0710010  
H    -3.5425280   -4.5504610    1.9535820  
H    -5.8392390   -4.4269350    0.0893370  
H    -1.9289900   -2.6007560    2.8486880  
H    -2.5101460   -0.4915860    1.5751060  
C     4.5244820   -0.5488130   -0.1832830  
C     5.4810960   -1.5342850   -0.2743710  
C     6.7517770   -0.8686840   -0.1515090  
C     6.4027080    0.5775890    0.0164600  
N     5.1173220    0.7610070   -0.0019060  
C     7.4178150    1.5866120    0.1741070  
C     8.7093180    1.1798010    0.1650960  
O     9.7581810    1.9989410    0.3003150  
C     9.0944500   -0.2760100   -0.0028300  
O    10.2971850   -0.5373410    0.0037250  
C     8.0422180   -1.2833060   -0.1616200  
H     5.3129280   -2.5893760   -0.4092580  
H     7.1427870    2.6285710    0.2941070  
H    10.5498240    1.4154270    0.2530700  
H     8.3510990   -2.3171730   -0.2798400  
