60


C    -0.7358190    1.5970590   -0.1593320  
C     0.6494110    1.4421640   -0.1177250  
C     0.9290530    0.0693800   -0.3250040  
C    -0.3255630   -0.5935140   -0.4843440  
N    -1.3034010    0.3556590   -0.3909060  
C    -0.4622370   -1.9869520   -0.6699470  
C     0.7308990   -2.7112550   -0.6791770  
O     0.7016390   -4.0513220   -0.8928540  
C     1.9969890   -2.0823200   -0.5092860  
O     3.0421360   -2.9655880   -0.5902200  
C     2.1333390   -0.7006500   -0.3405960  
H     1.3607550    2.2341100    0.0631060  
H    -2.3050140    0.2185860   -0.3859650  
H     1.6236980   -4.3668950   -0.9006180  
H     3.8892460   -2.4760950   -0.5822970  
C     3.4433470   -0.0826780   -0.2298990  
C     3.9006670    1.1193620   -0.6931460  
C     5.2965470    1.2470870   -0.3611030  
C     5.6569780    0.0103400    0.3640050  
N     4.5191050   -0.8190580    0.3580800  
C     6.8683160   -0.2314850    0.9095560  
C     7.9184160    0.7814730    0.7446850  
O     9.0399610    0.6442030    1.2031050  
C     7.5737550    2.0792440   -0.0710040  
O     8.4430460    2.9228850   -0.2295750  
C     6.2151330    2.2254280   -0.5915650  
H     3.3262780    1.8223970   -1.2790490  
H     7.1158500   -1.1417720    1.4474400  
H     5.9789090    3.1356650   -1.1341510  
H     4.3188940   -1.3437810    1.2054610  
C    -1.5895470    2.7321950   -0.0085110  
C    -1.2977340    4.0535500    0.2271780  
C    -2.5643130    4.7239750    0.2863940  
C    -3.5769570    3.6338330    0.0592430  
N    -3.0038730    2.4773240   -0.1126700  
C    -4.9886560    3.9061280    0.0454030  
C    -5.3770790    5.1882240    0.2443520  
O    -6.6484720    5.5970110    0.2586320  
C    -4.3802570    6.3121440    0.4757040  
O    -4.8559320    7.4374980    0.6434820  
C    -2.9555160    6.0114380    0.4863700  
H    -0.3228300    4.5047690    0.3465740  
H    -5.7010060    3.1051500   -0.1175520  
H    -6.6003130    6.5679370    0.4250180  
H    -2.2696980    6.8355440    0.6549330  
C    -2.7473230   -2.1976070   -1.7264880  
C    -1.7772560   -2.6172140   -0.8590840  
C    -2.3322710   -3.7742380   -0.1547460  
C    -3.6959650   -3.9808000   -0.7001250  
N    -3.8808970   -2.9896310   -1.6463260  
C    -4.5476790   -4.9600620   -0.3044790  
C    -4.1071520   -5.8800320    0.7403710  
O    -4.7999670   -6.7929650    1.1619770  
C    -2.6725970   -5.6694110    1.3476550  
O    -2.2867140   -6.4187300    2.2302510  
C    -1.8461240   -4.5726800    0.8285650  
H    -5.5422270   -5.0907940   -0.7197590  
H    -0.8536640   -4.4513730    1.2464900  
H    -2.7097270   -1.3817050   -2.4370210  
H    -4.7080820   -2.8784930   -2.2117710  
