58


C     1.5701830   -0.3819460   -0.6205610  
C     0.7077860    0.5872320   -0.1836360  
C     1.5308370    1.7674530    0.1001310  
C     2.9264750    1.3823070   -0.2172740  
N     2.8880240    0.0500450   -0.6470420  
C     3.9979130    2.2067750   -0.1239310  
C     3.7883660    3.5644610    0.3793310  
O     4.6941050    4.3729360    0.5015580  
C     2.3309110    3.9762190    0.7835130  
O     2.1331430    5.0879480    1.2444600  
C     1.2487800    3.0020900    0.5854620  
H     5.0039140    1.9133300   -0.4017020  
H     0.2417800    3.3280010    0.8139330  
H     1.3415920   -1.3891090   -0.9416280  
C    -1.7971580   -2.7676000    1.3335380  
C    -0.7262420   -1.9829490    1.0619810  
C    -1.2801880   -0.7708620    0.4684940  
C    -2.7526300   -1.0097130    0.4730980  
N    -3.0438680   -2.1800030    0.9708170  
C    -3.7027800   -0.0322900   -0.0347590  
C    -3.1683920    1.1400080   -0.4800650  
O    -3.9115220    2.1678410   -0.9128070  
C    -1.6943280    1.4110670   -0.5011710  
O    -1.3325950    2.5006480   -0.9411250  
C    -0.7278320    0.3737310   -0.0227150  
H     0.3144260   -2.1865580    1.2694130  
H    -3.2757970    2.8523100   -1.2146250  
H    -1.8038600   -3.7511100    1.7882670  
C    -6.8294190   -1.1815510    2.9412270  
C    -5.6613220   -0.8466270    2.3367100  
C    -5.9360840   -0.6744160    0.9271480  
C    -7.3889300   -0.9359670    0.7597720  
N    -7.8674870   -1.2456310    2.0165430  
C    -8.0674040   -0.8520700   -0.4131880  
C    -7.3248010   -0.4845350   -1.6086090  
O    -7.8409350   -0.3610940   -2.7087970  
C    -5.7773990   -0.2384880   -1.4756800  
O    -5.1391420   -0.0237650   -2.4906030  
C    -5.1469460   -0.3130130   -0.1316320  
H    -4.6981470   -0.7548960    2.8122740  
H    -9.1346930   -1.0304000   -0.5012880  
H    -7.0254800   -1.3945010    3.9837790  
H    -8.8317940   -1.4431490    2.2318110  
C     4.0334930   -1.3876340   -2.3146460  
C     3.9652970   -0.7060200   -1.1401260  
C     5.2037510   -1.0436310   -0.4197050  
C     5.9152880   -1.9496890   -1.3716600  
N     5.2242830   -2.1442090   -2.4625000  
C     7.2018960   -2.5076160   -1.0554080  
C     7.7370650   -2.2225220    0.1569200  
O     8.9198030   -2.6857250    0.5832500  
C     7.0234960   -1.3446360    1.1507420  
O     7.5662580   -1.1388930    2.2320370  
C     5.7111910   -0.7575900    0.7929720  
H     7.7045470   -3.1472410   -1.7721940  
H     9.0443270   -2.3184540    1.4855920  
H     5.2396150   -0.1126300    1.5276850  
H     3.2947640   -1.4060540   -3.1074380  
