58


C     3.1702830   -0.9295090    0.1626370  
C     4.1919470   -0.3952680    0.9153970  
C     3.9031790    0.9948860    1.1340460  
C     2.6124790    1.2600730    0.4579070  
N     2.2294580    0.0683110   -0.1132460  
C     1.9973900    2.4837730    0.4074030  
C     2.6516040    3.5854030    1.1516740  
O     2.1271390    4.6738580    1.3060850  
C     4.0471550    3.3279480    1.8220140  
O     4.6252660    4.2617870    2.3553920  
C     4.5940160    1.9740130    1.7844290  
H     5.0359830   -0.9331530    1.3176040  
H     5.5514870    1.7978470    2.2649110  
H     1.3246250   -0.1331440   -0.5177420  
C    -2.1519580    0.6983020    0.3721850  
C    -0.8231570    0.9392120    0.6719870  
C    -0.4269220    2.0426800   -0.1464240  
C    -1.6672690    2.3927220   -0.9157250  
N    -2.6619990    1.6074280   -0.6112230  
C    -1.7053430    3.4867110   -1.8453600  
C    -0.5668840    4.1991920   -2.0110640  
O    -0.4457070    5.2378840   -2.8420050  
C     0.7203040    3.8513940   -1.2885520  
O     1.7157530    4.4892400   -1.6226620  
C     0.7390300    2.7520230   -0.2972010  
H    -0.2166790    0.4240870    1.4027840  
H    -2.6189190    3.7205920   -2.3801880  
H     0.4973540    5.5147330   -2.7726250  
C    -2.7692220   -1.2814740    1.8293140  
C    -3.0313960   -0.2919050    0.9049480  
C    -4.4593720   -0.4883870    0.5765580  
C    -4.8670770   -1.6479350    1.4128930  
N    -3.8625140   -2.0964120    2.1361360  
C    -6.2006390   -2.1703150    1.3928090  
C    -7.0989040   -1.5652540    0.5739650  
O    -8.3771110   -1.9421800    0.4505700  
C    -6.7169660   -0.3875120   -0.2872990  
O    -7.5904420    0.0991750   -1.0008260  
C    -5.3307790    0.1283340   -0.2435610  
H    -6.4650020   -3.0171800    2.0161100  
H    -8.7724640   -1.3245210   -0.2046410  
H    -5.0657110    0.9750420   -0.8659790  
H    -1.8228230   -1.4774790    2.3204580  
C     5.9090290   -4.4076590   -0.5181050  
C     5.4742830   -3.1412200   -0.2931320  
C     4.0279560   -3.2049990   -0.4207270  
C     3.7639450   -4.6428530   -0.7529850  
N     4.8634300   -5.3399380   -0.7916960  
C     2.4372040   -5.1405890   -0.9938820  
C     1.4151820   -4.2557330   -0.9507900  
O     0.1352180   -4.5789850   -1.1910450  
C     1.6404140   -2.8034810   -0.6443150  
O     0.6525070   -2.0682000   -0.6993030  
C     3.0069840   -2.3022200   -0.2937250  
H     6.0761240   -2.2643460   -0.1104940  
H     2.2841260   -6.1889030   -1.2240280  
H    -0.3785870   -3.7469700   -1.1170870  
H     6.9318860   -4.7650790   -0.5224490  
