60


C     4.2926250   -0.8476560   -0.0237940  
C     4.2217650   -2.2232620    0.1502340  
C     2.8683670   -2.5458780    0.4402230  
C     2.1331880   -1.3264850    0.4499780  
N     3.0157480   -0.3200520    0.1742290  
C     0.7354310   -1.2674640    0.6952450  
C     0.1053740   -2.5100510    0.8776890  
O    -1.2428030   -2.5804220    1.0902340  
C     0.8321140   -3.7288110    0.8709790  
O     0.0354320   -4.8343460    1.0899110  
C     2.1951200   -3.7631750    0.6690680  
H     5.0602020   -2.8959850    0.0681820  
H     2.7846090    0.6434850   -0.0188370  
H    -1.4689630   -3.5231880    1.1932970  
H     0.5719180   -5.6405240    1.0683150  
H     2.7340250   -4.7077320    0.6712770  
C     0.0173200   -0.0021750    0.7577560  
C     0.4850280    1.2733190    0.9808300  
C    -0.6316470    2.1759690    0.9171590  
C    -1.8233520    1.3413100    0.6533490  
N    -1.3700850    0.0552350    0.5720310  
C    -3.1091340    1.8158320    0.4943140  
C    -3.2922560    3.2789680    0.6653620  
O    -4.3826220    3.8144560    0.7228790  
C    -2.0200750    4.1803360    0.8630800  
O    -2.1601900    5.3940100    0.8840760  
C    -0.7237260    3.5318160    1.0288390  
H     1.4951470    1.5589700    1.2309120  
H     0.1402570    4.1650780    1.2069540  
H    -1.9422760   -0.7547550    0.3821590  
C    -4.2324520    0.9491200    0.2090370  
C    -4.4368240   -0.3519430    0.6107550  
C    -5.6876590   -0.7556730    0.0199920  
C    -6.1246520    0.4469590   -0.7632800  
N    -5.2872970    1.4331300   -0.6481090  
C    -7.3418110    0.4390450   -1.5357520  
C    -8.0943170   -0.6852080   -1.5091670  
O    -9.2527420   -0.8373970   -2.1680420  
C    -7.6880060   -1.9061620   -0.7139130  
O    -8.4427560   -2.8803080   -0.7612120  
C    -6.4404010   -1.8829020    0.0500840  
H    -3.8531410   -0.9278320    1.3164250  
H    -7.6319840    1.3184950   -2.0995600  
H    -9.5505770   -1.7494080   -1.9484730  
H    -6.1770850   -2.7812640    0.6001130  
C     8.5210760   -1.8432130   -0.7415050  
C     9.0530980   -0.6278880   -0.9933690  
C     7.9376770    0.3074650   -0.8843350  
C     6.7627800   -0.5566130   -0.5470510  
N     7.1138240   -1.8045480   -0.4668150  
C     5.4191700    0.0030330   -0.3470580  
C     5.3310870    1.3645140   -0.4918030  
O     4.1725760    2.0579110   -0.3448970  
C     6.4814540    2.2367710   -0.8278120  
O     6.2731610    3.4492300   -0.9356100  
C     7.8172940    1.6396900   -1.0208890  
H    10.0786990   -0.3784320   -1.2269840  
H     4.4191560    2.9961860   -0.5179530  
H     8.6335370    2.3128600   -1.2648010  
H     9.0187610   -2.8049150   -0.7245420  
