60


C     0.3498260   -2.8971050   -0.5895220  
C    -0.3583780   -3.7450320   -1.4403000  
C    -1.7059050   -3.3141040   -1.4428440  
C    -1.7928980   -2.1855360   -0.5661490  
N    -0.5393440   -1.9617810   -0.0722370  
C    -3.0050620   -1.5076760   -0.2985720  
C    -4.1295510   -1.9882430   -0.9777870  
O    -5.3129740   -1.3494780   -0.8466590  
C    -4.0546010   -3.1103480   -1.8590830  
O    -5.2658300   -3.4264310   -2.4325400  
C    -2.8738530   -3.7739510   -2.0949330  
H     0.0624360   -4.5694800   -1.9991970  
H    -0.2488430   -1.2627830    0.5975010  
H    -5.9880980   -1.8699540   -1.3176270  
H    -5.1820230   -4.2369150   -2.9567370  
H    -2.8381850   -4.6266940   -2.7687880  
C    -0.8513960    2.3984680    0.1884160  
C    -1.2916420    1.1639520   -0.2402620  
C    -2.3362650    0.7297730    0.6469820  
C    -2.5022690    1.8169160    1.6419010  
N    -1.5686820    2.7783830    1.3229380  
C    -3.4301350    1.8304910    2.6337430  
C    -4.3214420    0.6890320    2.7528740  
O    -5.2235400    0.6179980    3.5739830  
C    -4.1040230   -0.5249510    1.7799870  
O    -4.7113540   -1.5566700    1.9984890  
C    -3.1240930   -0.3973830    0.6623050  
H    -0.9508590    0.6484130   -1.1240320  
H    -3.5506310    2.6584880    3.3250000  
H    -1.5397070    3.7226140    1.6820940  
C     2.7242220    1.7287580   -2.4135180  
C     1.6980760    1.4855880   -1.5581920  
C     1.1869380    2.7980470   -1.1989840  
C     2.0715970    3.7463150   -1.9436810  
N     2.9518220    3.1162090   -2.6686680  
C     1.9245590    5.1730890   -1.8330530  
C     0.9824830    5.6472600   -0.9857950  
O     0.7730510    6.9543440   -0.7531820  
C     0.0952260    4.7290080   -0.2002540  
O    -0.6696890    5.2557280    0.6127770  
C     0.1601770    3.2498700   -0.4144030  
H     1.3825930    0.5314750   -1.1622850  
H     2.5778310    5.8312960   -2.3948590  
H     0.0626760    7.0004410   -0.0789660  
H     3.3744380    1.0047750   -2.8897010  
C     1.7241300   -2.8297210   -0.2209500  
C     2.7847050   -3.6514230   -0.5318680  
C     3.9230010   -3.0763600    0.1138520  
C     3.3832960   -1.8535990    0.8082860  
N     2.1020650   -1.7169160    0.6109230  
C     4.2321110   -0.9862160    1.5772560  
C     5.5436630   -1.3153400    1.6590250  
O     6.4567070   -0.6138900    2.3350140  
C     6.1211100   -2.5448250    0.9730260  
O     7.3330430   -2.7299560    1.1264170  
C     5.2443220   -3.4034160    0.1997130  
H     2.7670260   -4.5521060   -1.1291810  
H     3.8233490   -0.1100790    2.0680010  
H     7.2999530   -1.1093280    2.1991560  
H     5.6841220   -4.2726180   -0.2787580  
