60


C    -0.4580620    2.1760370   -0.1147310  
C     0.8093800    1.6472560    0.0858930  
C     0.7396410    0.2298770   -0.0352710  
C    -0.6667800   -0.0731570   -0.3415340  
N    -1.3364130    1.1244970   -0.3637560  
C    -1.1812300   -1.3241880   -0.5734950  
C    -0.2374230   -2.4407230   -0.5637050  
O    -0.5404520   -3.5892510   -0.8361370  
C     1.2703970   -2.1486620   -0.2034630  
O     2.0136240   -3.1136020   -0.1574770  
C     1.7165870   -0.7618450    0.0868040  
H     1.6925350    2.2181810    0.3124720  
H    -2.3375340    1.2502390   -0.4440300  
C     1.5721150    6.1881000   -0.1862640  
C     1.3750070    4.8451680   -0.2949240  
C    -0.0475820    4.6490700   -0.1003870  
C    -0.5682220    6.0350950    0.1078420  
N     0.3858370    6.9260220    0.0708480  
C    -1.9631620    6.3064430    0.3162700  
C    -2.8224950    5.2621240    0.2819010  
O    -4.1530290    5.3824010    0.4257480  
C    -2.3487960    3.8597390    0.0528160  
O    -3.2240310    2.9921290   -0.0302190  
C    -0.8864230    3.5580140   -0.0636990  
H     2.1181730    4.0999100   -0.5328880  
H    -2.2998430    7.3252730    0.4719810  
H    -4.5189870    4.4771680    0.3336800  
H     2.5071300    6.7270750   -0.2842850  
C     3.4472600    0.5094420    1.4059890  
C     3.0583490   -0.4940420    0.5363760  
C     4.3446790   -1.1647310    0.1956110  
C     5.3653210   -0.3878870    0.9477050  
N     4.8155400    0.5712720    1.6604710  
C     6.7648400   -0.6843120    0.8805360  
C     7.1575710   -1.7067820    0.0787080  
O     8.4302950   -2.0916240   -0.0868190  
C     6.1607430   -2.5025400   -0.7107950  
O     6.5876580   -3.4057380   -1.4279240  
C     4.7186060   -2.1828950   -0.6037400  
H     7.4708030   -0.0925450    1.4524620  
H     8.3961280   -2.8428000   -0.7202120  
H     4.0341730   -2.8101950   -1.1595700  
H     2.7930780    1.1892160    1.9372650  
C    -3.1948130   -0.8452990   -1.9503250  
C    -4.4962850   -1.2530720   -2.0070820  
C    -4.6843680   -2.2311420   -0.9708200  
C    -3.4408100   -2.3879970   -0.3109060  
N    -2.5281920   -1.5233680   -0.9220600  
C    -3.2732890   -3.2431090    0.7835920  
C    -4.3779940   -3.9672890    1.2045590  
O    -4.2649880   -4.8210060    2.2624780  
C    -5.6292870   -3.8306110    0.5478920  
O    -6.6315390   -4.6152280    1.0844550  
C    -5.7933780   -2.9750390   -0.5259260  
H    -5.2357760   -0.9104400   -2.7182460  
H    -2.3244870   -3.3789840    1.2876410  
H    -5.1299180   -5.2494940    2.3817710  
H    -7.4348310   -4.5236810    0.5511510  
H    -6.7631980   -2.8754890   -1.0094330  
H    -2.6457310   -0.1632910   -2.5836680  
