62


C     1.4554140    0.5296450   -0.0464330  
C     2.7737340    0.9409470   -0.0694630  
C     2.7532880    2.3948910   -0.0480520  
C     1.3991690    2.7970810   -0.0108140  
N     0.6063510    1.6148340   -0.0111310  
C     1.0159910    4.1385320    0.0163970  
C     2.0259690    5.0941620    0.0069870  
O     1.6965670    6.4150790    0.0333890  
C     3.3862500    4.7098530   -0.0290210  
O     4.2722270    5.7647880   -0.0334130  
C     3.7570320    3.3743330   -0.0562950  
H    -0.0219160    4.4360510    0.0452240  
H     2.5253940    6.9240910    0.0191840  
H     5.1811890    5.4313260   -0.0659220  
H     4.8086200    3.1054160   -0.0835830  
H     1.0830740   -0.4811620   -0.0508490  
C    -0.7721330    1.4994160    0.0126280  
C    -1.5166690    0.3410070   -0.0290290  
C    -2.8819350    0.7800340    0.0151280  
C    -2.7888990    2.2724410    0.0848320  
N    -1.5465220    2.6797730    0.0835340  
C    -3.9495670    3.1147950    0.1261790  
C    -5.1529170    2.4971030    0.1049800  
O    -6.3261620    3.1336270    0.1406600  
C    -5.2925030    0.9817890    0.0726860  
O    -6.4401450    0.5543470    0.1718560  
C    -4.0882650    0.1277320   -0.0182520  
H    -1.1738230   -0.6770340   -0.1286870  
H    -3.8471930    4.1931700    0.1685070  
H    -7.0018110    2.4152730    0.1583760  
C    -2.4684750   -3.0536050    2.6145060  
C    -3.0608160   -4.1215450    1.9940220  
C    -3.8080500   -3.6020980    0.8836960  
C    -3.6268200   -2.1942940    0.8816400  
N    -2.8150880   -1.8887270    1.9535660  
C    -4.2483280   -1.3360620   -0.0556290  
C    -5.0427540   -1.9568320   -1.0258290  
O    -5.6133570   -1.2087560   -2.0100630  
C    -5.2249890   -3.3623080   -1.0380150  
O    -6.0352680   -3.8049400   -2.0674400  
C    -4.6289860   -4.1846380   -0.1010920  
H    -2.9799630   -5.1573820    2.2933770  
H    -2.4623550   -0.9679340    2.1644340  
H    -6.1567180   -1.8092200   -2.5495840  
H    -6.1314130   -4.7670280   -2.0132230  
H    -4.7891500   -5.2606230   -0.1308380  
H    -1.8221320   -3.0184490    3.4800380  
C     3.8599110    0.0125580   -0.1043600  
C     5.2203680    0.2091380   -0.1374130  
C     5.8093270   -1.0995960   -0.1635320  
C     4.6333520   -2.0342980   -0.1406780  
N     3.5058210   -1.3890240   -0.1063930  
C     4.8087780   -3.4636370   -0.1566480  
C     6.0765910   -3.9363050   -0.1936290  
O     6.3994930   -5.2354470   -0.2125070  
C     7.2834220   -3.0180090   -0.2177110  
O     8.3894920   -3.5655490   -0.2507910  
C     7.0825110   -1.5756870   -0.2007290  
H     5.7593240    1.1446050   -0.1456350  
H     3.9461950   -4.1204470   -0.1400830  
H     7.3849930   -5.2465250   -0.2387870  
H     7.9669760   -0.9465840   -0.2188620  
