60


C     1.9071710   -0.5433200   -0.1014930  
C     3.2056100   -0.0623210   -0.0830480  
C     3.1021610    1.3806070   -0.2289310  
C     1.7267400    1.6875090   -0.3513990  
N     1.0078870    0.4912300   -0.2468690  
C     1.2433820    2.9877540   -0.5223960  
C     2.1771830    4.0091170   -0.5897790  
O     1.7664550    5.2962870   -0.7561190  
C     3.5638360    3.7231470   -0.4837140  
O     4.3696060    4.8397550   -0.5654140  
C     4.0318150    2.4351230   -0.3074950  
H     0.1899240    3.2133970   -0.6340100  
H     2.5641670    5.8508470   -0.8090180  
H     5.2998200    4.5732430   -0.5175170  
H     5.0946370    2.2489980   -0.1978420  
H     1.5565450   -1.5616920   -0.0149180  
C    -1.5064420   -1.1798890    2.8356990  
C    -2.7096780   -1.1118130    2.2090990  
C    -2.4938970   -0.4840610    0.9183360  
C    -1.0440740   -0.2014480    0.8489720  
N    -0.5044460   -0.6363720    2.0387430  
C    -0.3990020    0.3491630   -0.2236940  
C    -1.2038570    0.6965000   -1.3988960  
O    -0.7291800    1.1254310   -2.4354630  
C    -2.7622120    0.5167980   -1.2942790  
O    -3.4507540    1.0165480   -2.1623050  
C    -3.3444740   -0.1753120   -0.1115280  
H    -3.6496470   -1.4822070    2.5889920  
H    -1.2586210   -1.5860130    3.8072660  
H     0.4753340   -0.5798910    2.2732610  
C    -6.5799080    1.0681400    2.6426380  
C    -7.6366720    0.4940100    2.0146230  
C    -7.1227180   -0.1961080    0.8489880  
C    -5.6553090    0.0221040    0.8540230  
N    -5.3911340    0.7830520    1.9750520  
C    -4.7906710   -0.4320290   -0.1036970  
C    -5.3751270   -1.2455240   -1.1937020  
O    -4.6903360   -1.7969120   -2.0366520  
C    -6.9307700   -1.4597920   -1.2276420  
O    -7.4152490   -2.0869990   -2.1554750  
C    -7.7331460   -0.9043790   -0.1382180  
H    -8.6716020    0.5453220    2.3195870  
H    -8.8066620   -1.0634290   -0.1687640  
H    -6.5581620    1.6732570    3.5393380  
H    -4.4839090    1.1546890    2.2097610  
C     4.2311630   -4.1076560   -1.6684420  
C     3.6056420   -2.9175610   -1.4909020  
C     4.4480510   -2.1757670   -0.5551730  
C     5.5747370   -3.1012500   -0.2858920  
N     5.4425130   -4.2321990   -0.9260870  
C     6.6696160   -2.7418440    0.5815040  
C     6.6496920   -1.5109600    1.1377150  
O     7.6145350   -1.0306890    1.9476550  
C     5.5239920   -0.5482230    0.8933090  
O     5.5999130    0.5442910    1.4560060  
C     4.3639260   -0.9404890    0.0251990  
H     2.7045530   -2.5639390   -1.9708070  
H     7.4781350   -3.4432190    0.7558390  
H     7.3147780   -0.1304360    2.1984910  
H     3.9265020   -4.9319580   -2.3021200  
