60


C    -3.6018760    0.0149690    0.0842400  
C    -2.2692150    0.4259270   -0.0478180  
C    -2.2039030    1.8165800    0.1984750  
C    -3.5325840    2.2354410    0.4896860  
N    -4.3518430    1.1402270    0.3967780  
C    -3.8781890    3.5578590    0.7915550  
C    -2.8619150    4.4946680    0.7766060  
O    -3.1284730    5.7924680    1.0475250  
C    -1.5115200    4.1307930    0.4751500  
O    -0.6707980    5.1812930    0.5023420  
C    -1.1403060    2.7904650    0.1971360  
H    -1.4759840   -0.2430170   -0.3251450  
H    -5.3142140    1.1104780    0.6979550  
H    -4.8939050    3.8649170    1.0175480  
H    -2.2824760    6.2747450    0.9792920  
H     0.2494890    4.8381850    0.2588660  
C     0.2366970    2.4557630   -0.0463170  
C     0.8749340    1.2385660   -0.2160020  
C     2.2570180    1.5283740   -0.4010170  
C     2.3556390    3.0161250   -0.3295890  
N     1.1804170    3.5397270   -0.1170150  
C     3.5972640    3.7218750   -0.4569040  
C     4.7086440    2.9743340   -0.6535910  
O     5.9369860    3.4749360   -0.7770200  
C     4.6653150    1.4577640   -0.7691770  
O     5.7335330    0.9030250   -1.0258460  
C     3.3838710    0.7642620   -0.5978060  
H     0.4438160    0.2541600   -0.1506870  
H     3.6311100    4.8030650   -0.3885780  
H     6.5213830    2.6993590   -0.9476280  
C     2.4384920   -1.2791110   -1.6382420  
C     2.5859070   -2.6240140   -1.5931580  
C     3.6261500   -2.9165710   -0.6309210  
C     4.0875130   -1.6073530   -0.1085460  
N     3.3353870   -0.6290760   -0.7744720  
C     5.0176270   -1.4685960    0.8656730  
C     5.6440160   -2.6749220    1.4101040  
O     6.4926420   -2.6368300    2.2866620  
C     5.1974470   -4.0681640    0.8405260  
O     5.7183580   -5.0826780    1.2754420  
C     4.1546650   -4.0869130   -0.1882990  
H     2.0348600   -3.3466380   -2.1776830  
H     5.3432560   -0.5125510    1.2569320  
H     3.8257120   -5.0538540   -0.5566530  
H     1.7708720   -0.6777130   -2.2397080  
C    -7.7863800   -1.5253780   -0.4906310  
C    -6.7320800   -0.6668650   -0.4270290  
C    -5.5586250   -1.5102510   -0.2322450  
C    -6.1175400   -2.8809130   -0.2129380  
N    -7.4202800   -2.8854560   -0.3475310  
C    -5.2869580   -4.0489430   -0.0688100  
C    -3.9508000   -3.8674690    0.0164130  
O    -3.0592500   -4.8721960    0.1146530  
C    -3.3342550   -2.5010710   -0.0012540  
O    -2.1060450   -2.4510050    0.0514280  
C    -4.2123560   -1.2784610   -0.0673690  
H    -6.7639500    0.4010160   -0.5918260  
H    -5.7375310   -5.0351980   -0.0561690  
H    -2.1802130   -4.4394080    0.1608550  
H    -8.8297790   -1.2802130   -0.6505620  
