60


C     0.5360010    1.7421750   -0.2913480  
C    -0.8485600    1.8065320   -0.4241800  
C    -1.3165500    0.4744200   -0.5495380  
C    -0.1812050   -0.3886150   -0.4882820  
N     0.9149120    0.4088340   -0.3399800  
C    -0.2644770   -1.8040300   -0.5096510  
C    -1.5635850   -2.3294850   -0.6105430  
O    -1.7649560   -3.6556600   -0.7018420  
C    -2.7125400   -1.4842570   -0.7088070  
O    -3.8861690   -2.1716630   -0.9102720  
C    -2.6050030   -0.1018940   -0.6860920  
H    -1.4411440    2.7101280   -0.4120940  
H     1.8714610    0.1167380   -0.1886230  
H    -2.7307730   -3.7935480   -0.7499210  
H    -4.6325440   -1.7244290   -0.4679240  
C    -3.9239940    1.6871890   -1.8313730  
C    -5.1569350    2.2424780   -1.7804950  
C    -5.8660790    1.6209250   -0.6801170  
C    -4.9197780    0.6473000   -0.0793790  
N    -3.7515460    0.7216760   -0.8208810  
C    -5.2045720   -0.1306820    1.0043480  
C    -6.5281790   -0.0118630    1.6177150  
O    -6.8622800   -0.6484760    2.6034790  
C    -7.5535550    0.9889350    0.9738810  
O    -8.6740260    1.0782940    1.4468270  
C    -7.1152600    1.7892210   -0.1771700  
H    -5.5464780    3.0018940   -2.4428370  
H    -4.4704190   -0.7635530    1.4951420  
H    -7.8230850    2.5007150   -0.5917830  
H    -3.1079710    1.8681290   -2.5173920  
C     0.9250690   -2.6380620   -0.4107060  
C     2.1793590   -2.3758740   -0.8996870  
C     3.0014000   -3.4925700   -0.4931440  
C     2.0640480   -4.3709020    0.2805330  
N     0.8621800   -3.8781810    0.3220430  
C     2.5098460   -5.6016090    0.8831800  
C     3.8054100   -5.9519830    0.7089990  
O     4.3597930   -7.0679230    1.2022020  
C     4.7698960   -5.0933930   -0.0798980  
O     5.9276250   -5.4999360   -0.1804940  
C     4.2975780   -3.8374750   -0.6727990  
H     2.4883750   -1.5576350   -1.5356930  
H     1.8143670   -6.2150110    1.4448880  
H     5.2988590   -7.0397480    0.9097300  
H     5.0207030   -3.2434940   -1.2232050  
C     1.5398880    2.7447230   -0.1208910  
C     1.4399570    4.1119510   -0.0359770  
C     2.7823040    4.5866570    0.1382030  
C     3.6241540    3.3386610    0.1394280  
N     2.8954470    2.2705410   -0.0121930  
C     5.0527700    3.3918610    0.2934990  
C     5.6176700    4.6141380    0.4380600  
O     6.9278740    4.8260990    0.5903920  
C     4.7965730    5.8930330    0.4406880  
O     5.4247440    6.9453630    0.5792250  
C     3.3510020    5.8136160    0.2836660  
H     0.5439080    4.7145110   -0.0847500  
H     5.6392110    2.4799340    0.2928710  
H     7.0183030    5.8049380    0.6688570  
H     2.7935350    6.7448270    0.2909500  
