60


C    -1.5236180   -0.2051150    1.0383070  
C    -2.8574470   -0.0662260    0.7348700  
C    -2.9453120    1.0156030   -0.2276920  
C    -1.6311990    1.4822670   -0.4622440  
N    -0.7658650    0.7260990    0.3355450  
C    -1.3414420    2.5110460   -1.3655840  
C    -2.4091620    3.1062940   -2.0211320  
O    -2.1803970    4.1118070   -2.9086220  
C    -3.7400040    2.6776900   -1.7712300  
O    -4.6901060    3.3764320   -2.4834870  
C    -4.0160230    1.6488170   -0.8890340  
H    -0.3340270    2.8566210   -1.5660810  
H    -3.0436990    4.4061120   -3.2476930  
H    -5.5755910    3.0531350   -2.2597580  
H    -5.0433170    1.3425520   -0.7091010  
H    -1.0385280   -0.8981250    1.7105770  
C     1.4929690   -0.2158890    0.1293080  
C     0.6323010    0.8052420    0.3670830  
C     1.4218010    1.9792070    0.7230920  
C     2.8369760    1.5489780    0.6733640  
N     2.8272350    0.1945050    0.2935490  
C     3.8793880    2.3507060    1.0016800  
C     3.5991850    3.7373670    1.3928790  
O     4.4830840    4.5227840    1.6892480  
C     2.1057540    4.2103840    1.4362370  
O     1.8515380    5.3568750    1.7605620  
C     1.0631690    3.2337600    1.0898620  
H     4.9116240    2.0226830    1.0244600  
H     0.0277810    3.5527680    1.1455960  
H     1.2812680   -1.2285220   -0.1820840  
C     3.9058990   -0.6598610    0.1286440  
C     3.9611920   -2.0103400    0.3276140  
C     5.2801400   -2.4460610   -0.0574130  
C     6.0039000   -1.2307850   -0.5004550  
N     5.1327710   -0.1552810   -0.3128480  
C     7.2648090   -1.2224090   -0.9880980  
C     7.9870860   -2.4966180   -1.0599800  
O     9.1270540   -2.5827860   -1.4848580  
C     7.2557110   -3.7927260   -0.5547960  
O     7.8495810   -4.8591250   -0.5995700  
C     5.8836010   -3.6659870   -0.0643780  
H     3.1845030   -2.6258200    0.7573290  
H     7.7773840   -0.3229750   -1.3152450  
H     5.3815940   -4.5702040    0.2656870  
H     5.1978350    0.6905270   -0.8632210  
C    -4.0896410   -1.2424430    2.6176460  
C    -3.9334700   -0.8524970    1.3219850  
C    -5.0729400   -1.4851830    0.6212870  
C    -5.8101650   -2.2111670    1.6970450  
N    -5.2258460   -2.0688480    2.8533850  
C    -7.0019600   -2.9685870    1.4153070  
C    -7.4269200   -3.0309940    0.1303180  
O    -8.5195130   -3.7023550   -0.2724190  
C    -6.6882430   -2.3369440   -0.9776130  
O    -7.1347170   -2.4349370   -2.1196500  
C    -5.4680530   -1.5606570   -0.6632280  
H    -7.5232500   -3.4758660    2.2196230  
H    -8.5666060   -3.5681470   -1.2440240  
H    -4.9565380   -1.0843860   -1.4939100  
H    -3.4603870   -0.9764760    3.4588920  
