64


C     2.7953390   -1.3137500    0.8048750  
C     3.7191580   -0.4179400    0.3080400  
C     2.9500160    0.6316260   -0.3345380  
C     1.5785650    0.3070550   -0.1790000  
N     1.5177300   -0.8798720    0.5227740  
C     0.5232140    1.0764580   -0.7148800  
C     0.8997050    2.2167190   -1.4262590  
O    -0.0511230    3.0387120   -1.9442880  
C     2.2696980    2.5502070   -1.6036650  
O     2.4652770    3.7061990   -2.3361480  
C     3.2906210    1.7836130   -1.0763930  
H     0.6647520   -1.3738900    0.7371320  
H     0.4114410    3.7355940   -2.4413020  
H     3.4133680    3.8353940   -2.4870470  
H     4.3298240    2.0583420   -1.2388530  
H     2.9605670   -2.2233300    1.3643500  
C     6.5968290   -3.7770090   -0.5210510  
C     5.4694580   -3.0078460   -0.3976980  
C     5.8804940   -1.7265700    0.1072690  
C     7.2904760   -1.7801580    0.2657980  
N     7.6980460   -3.0419830   -0.1193160  
C     8.0483840   -0.6939830    0.7207800  
C     7.3605950    0.4694800    1.0243250  
O     8.0395920    1.5627670    1.4869920  
C     5.9524600    0.5440950    0.8766020  
O     5.4221610    1.7678540    1.2493340  
C     5.1858730   -0.5282510    0.4221930  
H     4.4635820   -3.3103050   -0.6510540  
H     8.6508630   -3.3694660   -0.1203310  
H     9.1260000   -0.7324500    0.8436660  
H     7.3729330    2.2460050    1.6752050  
H     4.4527180    1.7114330    1.2101340  
H     6.7133320   -4.7948260   -0.8660580  
C    -1.7916170    0.5194530    2.9828640  
C    -2.9828640    0.1445350    2.4211860  
C    -2.8126190    0.1692850    0.9957370  
C    -1.4690130    0.5577300    0.7545020  
N    -0.8702330    0.7608280    1.9809790  
C    -0.8948620    0.6847740   -0.5270160  
C    -1.7361260    0.3685760   -1.5935200  
O    -1.2714890    0.4141810   -2.8686760  
C    -3.0785720   -0.0439930   -1.3862260  
O    -3.7645880   -0.2951840   -2.5586070  
C    -3.6559480   -0.1285070   -0.1124330  
H    -3.8839730   -0.0996560    2.9620820  
H     0.0634760    1.1194610    2.1067350  
H    -2.0270890    0.1492750   -3.4277350  
H    -4.2034650   -1.1676310   -2.4734650  
H    -1.5161050    0.6339010    4.0217190  
C    -6.9636010    1.7612750    2.1407430  
C    -7.9929740    0.9200970    1.9000900  
C    -7.4394180   -0.1189170    1.0352310  
C    -5.9996080    0.2647100    0.8733990  
N    -5.7369080    1.3645800    1.5114000  
C    -5.0697470   -0.5205630    0.0527380  
C    -5.6365980   -1.5869290   -0.5818500  
O    -4.9400640   -2.4175110   -1.4115690  
C    -7.0603380   -1.9900660   -0.4419820  
O    -7.4371910   -2.9947060   -1.0529830  
C    -7.9571840   -1.1947380    0.4158010  
H    -9.0156370    0.9919700    2.2436370  
H    -5.6016480   -3.0907970   -1.6969550  
H    -8.9925170   -1.5137970    0.4884360  
H    -6.9622460    2.6686050    2.7324290  
