58


C     3.3432580   -0.2262860    0.1090140  
C     4.3906200    0.5439120    0.5759290  
C     3.9248670    1.8969450    0.7030260  
C     2.5028360    1.8828970    0.3038970  
N     2.2184450    0.5947370   -0.0344030  
C     1.6696310    2.9902980    0.2908950  
C     2.3225880    4.2832600    0.5752180  
O     1.7637960    5.3654540    0.4379680  
C     3.8100890    4.2998150    1.0785170  
O     4.2905500    5.3699320    1.4195740  
C     4.5473820    3.0464730    1.0984700  
H     5.3618300    0.2012480    0.8993990  
H     5.5829640    3.0732530    1.4225780  
H     1.3429560    0.2267020   -0.3847450  
C     6.4726380   -3.2414750   -0.6337570  
C     5.6947690   -4.3421100   -0.7604610  
C     4.3179800   -3.9126380   -0.6233650  
C     4.3606320   -2.4524530   -0.3806450  
N     5.6852810   -2.1115190   -0.3747700  
C     3.2546370   -1.6369560   -0.2086930  
C     1.9511970   -2.2913910   -0.4150850  
O     0.8867660   -1.6855610   -0.4808280  
C     1.8895460   -3.8523270   -0.5775560  
O     0.7935700   -4.3853710   -0.6193260  
C     3.1422600   -4.5922660   -0.6915870  
H     6.0296590   -5.3529970   -0.9405090  
H     3.0868370   -5.6656000   -0.8419120  
H     7.5478820   -3.1403930   -0.6899900  
H     6.0151350   -1.1587460   -0.4305760  
C     0.2552500    2.9238820   -0.0017160  
C    -0.6127950    1.8360800    0.0216370  
C    -1.9193020    2.2968010   -0.3096820  
C    -1.7932200    3.7561210   -0.5130990  
N    -0.4609300    4.0617480   -0.3418530  
C    -2.8256370    4.5986990   -0.7770800  
C    -4.1646360    4.0347210   -0.8729080  
O    -5.1658980    4.7161430   -1.0309370  
C    -4.3215310    2.4742500   -0.7960600  
O    -5.3886370    1.9965870   -1.1309390  
C    -3.1450360    1.6464310   -0.4069270  
H    -0.3774630    0.8359820    0.3458480  
H    -2.7046490    5.6721080   -0.8843490  
H    -0.0409450    4.9823870   -0.2795640  
C    -3.2991080    0.2279690   -0.1905560  
C    -2.3805870   -0.7750020   -0.4086770  
C    -3.0150760   -1.9960660    0.0124770  
C    -4.3663150   -1.5597450    0.4860470  
N    -4.5342290   -0.2771290    0.3659930  
C    -5.3133220   -2.5082790    1.0175010  
C    -4.9391890   -3.8085370    1.0593660  
O    -5.7137200   -4.8040090    1.5176650  
C    -3.5794840   -4.2739390    0.5863970  
O    -3.3416390   -5.4804450    0.6809840  
C    -2.6250750   -3.2944870    0.0599660  
H    -1.4058640   -0.7028690   -0.8645370  
H    -6.2874410   -2.1739280    1.3565730  
H    -5.1634930   -5.6144760    1.4195200  
H    -1.6448860   -3.6469430   -0.2488230  
