64


C     1.2358260   -1.9981690   -0.1123440  
C     1.9858890   -0.8498590   -0.3338620  
C     3.3623660   -1.1748700   -0.1235520  
C     3.4032020   -2.5552050    0.2134290  
N     2.1082950   -3.0170980    0.2308580  
C     4.5948940   -3.2483770    0.4481550  
C     5.7786090   -2.5351540    0.3349270  
O     6.9691040   -3.1560280    0.5713930  
C     5.7703360   -1.1627990   -0.0163360  
O     7.0272530   -0.6022930   -0.0770500  
C     4.5854080   -0.4491540   -0.2382180  
H     1.5988250    0.0865630   -0.7063630  
H     1.8164680   -3.9806790    0.3077640  
H     4.6224900   -4.3003950    0.7120640  
H     7.6656840   -2.4833490    0.4734330  
H     6.9358020    0.3671810   -0.0948070  
C    -2.1007930    0.8458830    0.4002110  
C    -3.1435190   -0.0127250    0.1296330  
C    -2.5360880   -1.3036880   -0.1311690  
C    -1.1321640   -1.1464450   -0.0125250  
N    -0.8990630    0.1785470    0.2949200  
C    -0.2087310   -2.2058330   -0.1914260  
C    -0.7820080   -3.4574120   -0.4516430  
O     0.0176620   -4.5647080   -0.5973500  
C    -2.1806310   -3.6249830   -0.5886590  
O    -2.5525050   -4.9255830   -0.8742040  
C    -3.0632140   -2.5717650   -0.4497320  
H    -0.0097950    0.5424560    0.6012140  
H    -0.5683770   -5.3114490   -0.8148940  
H    -3.5100260   -4.9660820   -1.0150320  
H    -4.1332480   -2.7212300   -0.5646690  
H    -2.1274280    1.8921320    0.6693310  
C    -5.4646350    3.2196240   -1.9717030  
C    -4.4678970    2.3959800   -1.5181070  
C    -5.0769090    1.4332440   -0.6422600  
C    -6.4661900    1.7263600   -0.6100330  
N    -6.6718720    2.8207500   -1.4261110  
C    -7.3863950    0.9764460    0.1326940  
C    -6.8870170   -0.0905710    0.8618240  
O    -7.7303110   -0.8521820    1.6221990  
C    -5.5039780   -0.4010840    0.8435280  
O    -5.1664590   -1.4828520    1.6404800  
C    -4.5782330    0.3340160    0.1050640  
H    -3.4225670    2.4575750   -1.7846290  
H    -7.5633400    3.2574480   -1.5987440  
H    -8.4477580    1.2010320    0.1622950  
H    -7.1751460   -1.4972720    2.0938780  
H    -4.1987060   -1.5185290    1.7201980  
H    -5.4198840    4.0640220   -2.6451170  
C     5.4817300    1.6554750   -1.3951850  
C     4.6370260    0.9782360   -0.5576450  
C     3.7930480    2.0532380    0.0227010  
C     4.2803240    3.3022870   -0.6220530  
N     5.2663440    3.0603180   -1.4418490  
C     3.6984880    4.5833510   -0.3186600  
C     2.6957900    4.6278720    0.5930930  
O     2.0587390    5.7540620    0.9602120  
C     2.1993590    3.3887230    1.2724570  
O     1.2516340    3.4903540    2.0534680  
C     2.8347400    2.0893640    0.9662020  
H     4.0668900    5.4758410   -0.8123720  
H     1.3822840    5.4719850    1.6132960  
H     2.4701760    1.2158420    1.4971640  
H     6.2390130    1.2310800   -2.0447270  
