60


C    -0.1489670    2.2903910   -0.0504540  
C     1.0292960    1.5856160    0.0896930  
C     0.7274190    0.1883590    0.0246860  
C    -0.7236550    0.0894940   -0.2004030  
N    -1.1915300    1.3740640   -0.2280710  
C    -1.4648870   -1.0751680   -0.3329390  
C    -0.6858580   -2.3086100   -0.2505870  
O    -1.1604160   -3.4332840   -0.3295360  
C     0.8830380   -2.2336560   -0.0821380  
O     1.4824290   -3.2944860   -0.1205780  
C     1.5503870   -0.9275310    0.1366290  
H     1.9979810    2.0440000    0.1884280  
H    -2.1653110    1.6371620   -0.2842020  
C     2.6452330    5.6510690    0.4828670  
C     1.8196870    6.7140730    0.3511470  
C     0.4986910    6.1447050    0.1214360  
C     0.7240680    4.6667840    0.1435490  
N     1.9775150    4.3917390    0.3605540  
C    -0.3774020    3.7176580   -0.0568020  
C    -1.6156290    4.2866310   -0.2455630  
O    -2.7461560    3.5721410   -0.4382300  
C    -1.8564120    5.7533070   -0.2640270  
O    -3.0179090    6.1371090   -0.4459330  
C    -0.7269200    6.6723830   -0.0704100  
H     2.0653470    7.7655800    0.4026960  
H    -3.4577130    4.2482310   -0.5410450  
H    -0.9408030    7.7367800   -0.0899890  
H     3.7132470    5.6493610    0.6630710  
C    -3.6305310   -0.1408240   -1.2714810  
C    -2.8980740   -1.0764870   -0.5828250  
C    -3.9322010   -2.0362620   -0.1024890  
C    -5.2116310   -1.4754320   -0.6085480  
N    -5.0193250   -0.3801710   -1.2981220  
C    -6.4786080   -2.1052410   -0.3506450  
C    -6.4865380   -3.2341460    0.3984830  
O    -7.5957600   -3.9209250    0.7272300  
C    -5.2178510   -3.8172560    0.9384370  
O    -5.2985510   -4.8399310    1.6201130  
C    -3.9246240   -3.1615870    0.6379670  
H    -7.3886200   -1.6665800   -0.7450850  
H    -7.2762580   -4.6775260    1.2666340  
H    -3.0287500   -3.6449260    1.0061240  
H    -3.2537320    0.7115220   -1.8244380  
C     3.4405660    0.1159460    1.3956120  
C     2.9459410   -0.8525240    0.5189210  
C     4.0945560   -1.6716880    0.1497980  
C     5.2208730   -1.1282020    0.8144250  
N     4.7797610   -0.0511330    1.5703910  
C     6.5196170   -1.6244440    0.6716580  
C     6.6947980   -2.7096330   -0.1738780  
O     7.9337040   -3.2458080   -0.3482630  
C     5.5843460   -3.2670250   -0.8587740  
O     5.9095710   -4.3402960   -1.6629040  
C     4.3043760   -2.7660330   -0.7122670  
H     5.3541800    0.4935420    2.1959710  
H     7.3735430   -1.1984910    1.1881650  
H     7.8368300   -4.0012970   -0.9543450  
H     5.0984330   -4.7416240   -2.0096800  
H     3.4712600   -3.2339130   -1.2228030  
H     2.9015080    0.8725160    1.9455670  
