60


C     0.1682610    2.2278530    0.0342700  
C    -1.0107550    1.5343530   -0.2348590  
C    -0.7271010    0.1474240   -0.1420870  
C     0.6488110    0.0257930    0.2041750  
N     1.1616980    1.2912860    0.3057320  
C     1.2986300   -1.2107700    0.3985650  
C     0.4984720   -2.3400740    0.2192400  
O     1.0336050   -3.5765560    0.3960740  
C    -0.8752560   -2.2427730   -0.1468420  
O    -1.4617020   -3.4785560   -0.3172420  
C    -1.5187180   -1.0240960   -0.3238900  
H    -1.9524710    2.0090750   -0.4558010  
H     2.1267220    1.5340900    0.4775840  
H     0.3266140   -4.2257010    0.2279710  
H    -2.4104570   -3.3838170   -0.4969640  
C    -3.4418540   -0.1685270   -1.7317430  
C    -2.9338410   -0.9386370   -0.7218710  
C    -4.0782330   -1.6221550   -0.1217140  
C    -5.2764820   -1.1918260   -0.8873270  
N    -4.8158270   -0.3082770   -1.8440760  
C    -6.5416670   -1.6113360   -0.6377380  
C    -6.7607350   -2.5482640    0.4624570  
O    -7.8618560   -2.9883600    0.7519380  
C    -5.5142270   -2.9956730    1.3085050  
O    -5.6780090   -3.7561280    2.2485020  
C    -4.1934660   -2.4767600    0.9333510  
H    -7.4036680   -1.2813640   -1.2095110  
H    -3.3475990   -2.7779190    1.5436300  
H    -2.9068160    0.4856710   -2.4070350  
H    -5.3951950    0.1669930   -2.5183720  
C    -2.4796750    5.6533150   -0.7820990  
C    -1.6466150    6.6970660   -0.5792490  
C    -0.3664440    6.0979720   -0.2169840  
C    -0.6235290    4.6250150   -0.2501620  
N    -1.8557010    4.3786340   -0.5844110  
C     0.4306570    3.6477010    0.0621360  
C     1.6539440    4.1931970    0.3722410  
O     2.7468150    3.4443960    0.6875490  
C     1.9282090    5.6412020    0.4041800  
O     3.0730400    6.0116340    0.6970960  
C     0.8449990    6.5941270    0.0911000  
H    -1.8603160    7.7536170   -0.6620890  
H     3.4571200    4.1094860    0.8430910  
H     1.0876120    7.6520910    0.1251020  
H    -3.5248480    5.6734020   -1.0655670  
C     3.3121320   -0.6398580    1.8206450  
C     2.7184220   -1.2958440    0.7810060  
C     3.7808800   -2.0518100    0.1168080  
C     5.0285640   -1.7755000    0.8704440  
N     4.6740710   -0.9082030    1.8847730  
C     6.2453260   -2.2966890    0.5684390  
C     6.3514650   -3.1840530   -0.5845320  
O     7.4011070   -3.7009730   -0.9368430  
C     5.0453920   -3.4758060   -1.4109760  
O     5.1141320   -4.2049360   -2.3877690  
C     3.7882590   -2.8568700   -0.9752900  
H     7.1448440   -2.0816660    1.1372220  
H     2.8922010   -3.0816920   -1.5422870  
H     2.8559710    0.0089520    2.5572890  
H     5.3005960   -0.5656380    2.5959950  
