60


C     0.1329180    0.7361920    0.1504730  
C    -0.4691790   -0.4951820    0.3860440  
C     0.5583730   -1.4701460    0.4674910  
C     1.7967840   -0.7909840    0.2860430  
N     1.5120060    0.5351970    0.0946710  
C     3.0403320   -1.4628950    0.2719230  
C     2.9950170   -2.8459570    0.4729010  
O     4.1522120   -3.5520430    0.5389810  
C     1.7620610   -3.5318000    0.6593150  
O     1.9164090   -4.8905250    0.8455310  
C     0.5543500   -2.8691100    0.6561020  
H    -1.5284590   -0.6510390    0.4962690  
H     2.1789520    1.2834650   -0.0305300  
H     3.9144220   -4.4924560    0.6245900  
H     1.0463900   -5.3155030    0.8814220  
H    -0.3803180   -3.4096410    0.7883970  
C    -4.0924950    1.9666470   -0.1327540  
C    -3.9559840    3.3226370   -0.2626090  
C    -2.5400530    3.5817590   -0.2461400  
C    -1.9119850    2.2280690   -0.0882670  
N    -2.8184880    1.3011180   -0.0331200  
C    -0.4556850    2.0474620   -0.0230010  
C     0.2720390    3.2037170   -0.1549720  
O     1.6266980    3.2319310   -0.1359080  
C    -0.3267850    4.5527600   -0.3187310  
O     0.4497000    5.5126860   -0.4127310  
C    -1.7847190    4.6976600   -0.3581350  
H    -4.7341080    4.0637030   -0.3844090  
H     1.8560400    4.1852150   -0.2410150  
H    -2.1853970    5.6991300   -0.4799420  
C    -6.5700370    1.6359510    0.0854180  
C    -5.2888830    1.1630660   -0.0683200  
C    -5.4017910   -0.2989310   -0.1344960  
C    -6.8451020   -0.6109260   -0.0000910  
N    -7.4884080    0.6107340    0.1189100  
C    -7.3784260   -1.8574570   -0.0030910  
C    -6.4725060   -2.9951190   -0.1474300  
O    -6.8548360   -4.1544560   -0.1607150  
C    -4.9376870   -2.6929760   -0.2920150  
O    -4.1568550   -3.6268050   -0.3850790  
C    -4.4929200   -1.2932020   -0.2977390  
H    -8.4419440   -2.0540080    0.0916880  
H    -3.4370710   -1.0906490   -0.4193710  
H    -6.9024310    2.6602290    0.1906510  
H    -8.4808950    0.7266270    0.2575060  
C     5.1973220    1.9815460    2.1607070  
C     4.2624240    1.0345570    1.9062270  
C     4.7697930    0.3003940    0.7495460  
C     6.0685570    0.9704760    0.4428000  
N     6.3134830    1.9495480    1.2685870  
C     6.9175180    0.5277070   -0.6334910  
C     6.4948650   -0.5224120   -1.3721410  
O     7.1753930   -1.0388350   -2.4095590  
C     5.1735890   -1.2007080   -1.1147980  
O     4.8327440   -2.0703430   -1.9090670  
C     4.3186100   -0.7666680    0.0392590  
H     3.3434790    0.8405950    2.4403140  
H     7.8575030    1.0322380   -0.8275840  
H     6.5995360   -1.7504200   -2.7667020  
H     5.1905250    2.7267130    2.9476290  
