62


C    -0.2575620    1.5692790    0.0135950  
C     1.0774690    1.1780120    0.0293080  
C     1.1029100   -0.2389180    0.0519390  
C    -0.2546880   -0.6850170    0.0517080  
N    -1.0441480    0.4268430    0.0388900  
C    -0.6280380   -2.0539180    0.0228130  
C     0.4452970   -2.9534790   -0.0644720  
O     0.2149270   -4.2973850   -0.1057710  
C     1.7979950   -2.5292350   -0.0672890  
O     2.6899610   -3.5793960   -0.1139680  
C     2.1671940   -1.1871620    0.0093050  
H     1.9290400    1.8410430   -0.0012110  
H    -2.0484470    0.4734250   -0.0667520  
H     1.0863140   -4.7367370   -0.0976620  
H     3.5850860   -3.2479520    0.0942030  
C    -2.0194500   -2.4793260    0.0854480  
C    -3.1178250   -1.8109810    0.5802450  
C    -4.2687900   -2.6580840    0.4193570  
C    -3.7740530   -3.9029520   -0.2187530  
N    -2.4225990   -3.7228400   -0.4134850  
C    -4.5555350   -4.9706190   -0.5236300  
C    -5.9794120   -4.9001500   -0.2120910  
O    -6.7590450   -5.8116550   -0.4481750  
C    -6.5279330   -3.5860660    0.4579570  
O    -7.7197410   -3.5119040    0.7214470  
C    -5.5847520   -2.5054120    0.7387510  
H    -3.1171700   -0.8569700    1.0855140  
H    -4.1751350   -5.8746530   -0.9892410  
H    -5.9741020   -1.6046380    1.2037090  
H    -1.7654660   -4.4421320   -0.6764800  
C    -0.8942750    2.8469800   -0.0341210  
C    -0.3668080    4.1151700   -0.0623970  
C    -1.4935010    5.0005970   -0.1143500  
C    -2.6898670    4.0861400   -0.1120100  
N    -2.3342520    2.8347330   -0.0646480  
C    -4.0322820    4.5990820   -0.1581430  
C    -4.1825290    5.9442890   -0.2030880  
O    -5.3619340    6.5701400   -0.2487350  
C    -2.9965020    6.8947540   -0.2059900  
O    -3.2612930    8.0988670   -0.2490670  
C    -1.6467240    6.3515860   -0.1596160  
H     0.6764400    4.3976160   -0.0493030  
H    -4.8790930    3.9219940   -0.1565960  
H    -5.1378510    7.5301190   -0.2735430  
H    -0.8215540    7.0566510   -0.1639750  
C     3.5669940   -0.7855020    0.0698030  
C     4.1799850    0.2154900    0.7874570  
C     5.5912280    0.1423330    0.5412090  
C     5.8009170   -0.9355370   -0.3511340  
N     4.5661480   -1.5455850   -0.5854010  
C     7.0629760   -1.2764020   -0.8419920  
C     8.1423560   -0.5184110   -0.4081710  
O     9.3942120   -0.8064680   -0.8563260  
C     7.9545310    0.5526110    0.5077520  
O     9.1237150    1.1973870    0.8504300  
C     6.7013680    0.8871450    0.9865560  
H     3.6793390    0.8868440    1.4714490  
H     4.3680260   -1.9669400   -1.4864740  
H     7.2286660   -2.0986820   -1.5303240  
H    10.0069750   -0.1762300   -0.4388150  
H     8.9332230    1.9171650    1.4702220  
H     6.5791120    1.7135320    1.6833820  
