60


C    -0.8015810    0.8765510    1.2989610  
C    -2.0940970    0.5986410    0.9118420  
C    -2.4315070    1.5787710   -0.1020360  
C    -1.3041610    2.4168860   -0.2715210  
N    -0.3059450    1.9674390    0.5978170  
C    -1.2772390    3.4708330   -1.1899880  
C    -2.4226560    3.6986290   -1.9367220  
O    -2.4493550    4.7147710   -2.8450580  
C    -3.5741040    2.8877740   -1.7601680  
O    -4.6391640    3.2468490   -2.5615980  
C    -3.5920520    1.8420560   -0.8553450  
H    -0.4215930    4.1231470   -1.3121420  
H    -3.3418380    4.7341600   -3.2314040  
H    -5.4072660    2.6965750   -2.3481460  
H    -4.4900340    1.2425810   -0.7288150  
H    -0.1879540    0.3785130    2.0362390  
C     3.4825860   -0.1024470    0.1751880  
C     4.3171670    0.9537890    0.4921460  
C     3.5006970    2.1084760    0.7460160  
C     2.1025440    1.6610970    0.5573340  
N     2.1584220    0.3317560    0.2152440  
C     1.0091880    2.4664600    0.7122920  
C     1.2401550    3.8688540    1.1056970  
O     0.3342380    4.6548450    1.3194370  
C     2.7285130    4.3609640    1.2641150  
O     2.9203640    5.5387090    1.5273650  
C     3.8041910    3.3954600    1.0828850  
H     5.3846370    0.9101890    0.6492750  
H     4.8238950    3.7420700    1.2184750  
H     1.3807860   -0.3100010    0.1113630  
C     7.1832960   -1.9373090   -1.3445070  
C     6.8089200   -3.2385730   -1.3368350  
C     5.4357150   -3.2872060   -0.8760110  
C     5.0438000   -1.8867050   -0.5930570  
N     6.1478280   -1.1239780   -0.8695880  
C     3.7986950   -1.4793930   -0.1551170  
C     2.7713190   -2.5349710   -0.0809430  
O     1.5841790   -2.3115720    0.1186670  
C     3.1998210   -4.0341470   -0.2739990  
O     2.3694860   -4.9031320   -0.0746000  
C     4.5689260   -4.3189400   -0.7013330  
H     7.4121150   -4.0860830   -1.6273270  
H     4.8406120   -5.3552140   -0.8757930  
H     8.1223050   -1.4878100   -1.6378030  
H     6.1170810   -0.1179800   -0.9575850  
C    -3.0265820   -0.8510280    2.7744410  
C    -2.9216710   -0.4561080    1.4745610  
C    -3.7850070   -1.4127330    0.7430410  
C    -4.3333540   -2.3019970    1.8059780  
N    -3.8818670   -1.9702560    2.9832800  
C    -5.2313770   -3.3837460    1.4945080  
C    -5.5441920   -3.5964120    0.1935180  
O    -6.3667640   -4.5705380   -0.2385590  
C    -4.9810330   -2.7394510   -0.9004400  
O    -5.3137340   -2.9892740   -2.0594650  
C    -4.0651360   -1.6299190   -0.5555290  
H    -5.6241310   -4.0068110    2.2905520  
H    -6.3903320   -4.4726580   -1.2154270  
H    -3.6697740   -1.0400530   -1.3765200  
H    -2.5502850   -0.3955510    3.6344420  
