62


C    -0.6907810    0.7415980    1.0493800  
C    -0.4733290    1.9705500    0.4655840  
C    -1.7489810    2.3846710   -0.0912630  
C    -2.6847640    1.3633620    0.1985600  
N    -2.0123980    0.3550590    0.8973170  
C    -4.0343480    1.4450920   -0.1620730  
C    -4.4406120    2.5631500   -0.8752430  
O    -5.7440730    2.6897830   -1.2544150  
C    -3.5093380    3.5786330   -1.2083560  
O    -4.0557620    4.6248940   -1.9247030  
C    -2.1820480    3.5038530   -0.8263560  
H    -4.7617160    0.6854390    0.0985610  
H    -5.8271150    3.5391230   -1.7215260  
H    -3.3833390    5.3087500   -2.0610960  
H    -1.4977230    4.3112330   -1.0639810  
H     0.0008830    0.0832910    1.5511740  
C     3.5833740    0.3302160   -0.0798210  
C     4.3322210    1.4848810   -0.0015750  
C     3.4136210    2.5593050    0.1958510  
C     2.0589650    1.9120890    0.2305160  
N     2.1741300    0.6287320    0.0574510  
C     0.8222140    2.6574340    0.4183450  
C     0.9951260    4.0068860    0.5574450  
O    -0.0067840    4.8721870    0.7718440  
C     2.3414470    4.6940350    0.5088160  
O     2.3266470    5.9236370    0.6537120  
C     3.5443700    3.9084550    0.3219040  
H     5.3977350    1.5922860   -0.1188040  
H     0.4483010    5.7477290    0.8422340  
H     4.4947350    4.4311760    0.2947730  
C     7.5521480   -1.8379000   -0.1082240  
C     6.5790760   -0.8719810    0.0072070  
C     5.3172100   -1.4967580   -0.2577620  
C     5.5956390   -2.8598510   -0.5210170  
N     6.9607820   -3.0356310   -0.4328580  
C     4.6055500   -3.8143790   -0.7908860  
C     3.2907840   -3.3884860   -0.7841430  
O     2.2844970   -4.2708660   -1.0305830  
C     2.9559490   -2.0307810   -0.5257820  
O     1.6241330   -1.7973160   -0.5685200  
C     3.9523350   -1.0460800   -0.2778440  
H     6.7674200    0.1524350    0.2853750  
H     7.4429840   -3.9112140   -0.5638140  
H     4.8331700   -4.8565290   -0.9918070  
H     1.4543180   -3.7624050   -0.9778190  
H     1.4802050   -0.8279000   -0.3407230  
H     8.6228070   -1.7642300    0.0180850  
C    -2.3637420   -1.3431000    2.6664380  
C    -2.5563030   -0.8202640    1.4267560  
C    -3.3332150   -1.8394960    0.6929600  
C    -3.5365950   -2.9132470    1.7066580  
N    -2.9681930   -2.6172860    2.8435560  
C    -4.2745860   -4.1084900    1.3937450  
C    -4.7386300   -4.2569050    0.1292300  
O    -5.4297690   -5.3265860   -0.3004070  
C    -4.5064970   -3.2121590   -0.9235760  
O    -4.9524190   -3.4187770   -2.0507420  
C    -3.7696050   -1.9762980   -0.5723580  
H    -4.4258370   -4.8649700    2.1558560  
H    -5.6236900   -5.1497890   -1.2467860  
H    -3.6387640   -1.2355250   -1.3546770  
H    -1.8163140   -0.8988600    3.4885500  
