60


C     2.4504230   -1.0102430   -0.1669200  
C     1.2109220   -0.4451290   -0.1455720  
C     1.3730430    0.9851690   -0.1064390  
C     2.7627320    1.2340160   -0.1212350  
N     3.4226340   -0.0055580   -0.1309320  
C     3.2985600    2.5243200   -0.2153170  
C     2.4149830    3.5894560   -0.2593030  
O     2.8920100    4.8577390   -0.3584000  
C     1.0124580    3.3889330   -0.2107610  
O     0.3043390    4.5340390   -0.2572060  
C     0.4518220    2.0812310   -0.1125200  
H     0.2904860   -1.0036750   -0.2007220  
H     4.3578310    2.7246030   -0.2947940  
H     2.1162400    5.4474500   -0.3912890  
H    -0.6723300    4.2865980   -0.2844200  
H     2.7664490   -2.0396280   -0.1998550  
C    -0.9736250    1.9123840   -0.0020510  
C    -1.7504510    0.8010440    0.2800050  
C    -3.1057810    1.2350310    0.2502040  
C    -3.0386060    2.6947900   -0.0611540  
N    -1.7987880    3.0746310   -0.1985040  
C    -4.2062660    3.5152140   -0.1976410  
C    -5.4042130    2.9107680   -0.0158190  
O    -6.5794890    3.5289170   -0.1202230  
C    -5.5322110    1.4381830    0.3463730  
O    -6.6736110    1.0289150    0.5584890  
C    -4.3202380    0.6189560    0.4412730  
H    -1.4135780   -0.1973560    0.5005660  
H    -4.1196810    4.5675700   -0.4422510  
H    -7.2559310    2.8466510    0.1018300  
C    -3.7194650   -1.2823060    1.9182650  
C    -3.9947940   -2.5992960    2.0707770  
C    -4.9380700   -2.9692150    1.0375100  
C    -5.1993250   -1.7367350    0.2546820  
N    -4.4351820   -0.7226430    0.8478470  
C    -5.9913750   -1.6921260   -0.8428090  
C    -6.6693560   -2.9192740   -1.2645020  
O    -7.4019850   -2.9646200   -2.2398340  
C    -6.4350240   -4.2257860   -0.4254770  
O    -7.0004870   -5.2550960   -0.7581020  
C    -5.5272270   -4.1517830    0.7219850  
H    -3.5945770   -3.2516950    2.8335290  
H    -6.1699420   -0.7936870   -1.4209870  
H    -5.3443760   -5.0643290    1.2811900  
H    -3.0728770   -0.6403290    2.5007580  
C     4.7716010   -0.2731980   -0.0566720  
C     5.8317100    0.5498090    0.2384610  
C     6.9867890   -0.2960550    0.1603270  
C     6.4386290   -1.6512610   -0.1997680  
N     5.1411890   -1.6270290   -0.3155720  
C     7.2915970   -2.7921260   -0.3772100  
C     8.6208080   -2.6037150   -0.1947360  
O     9.5414530   -3.5607920   -0.3195710  
C     9.2074700   -1.2493320    0.1800790  
O    10.4316920   -1.2087800    0.3188710  
C     8.3202460   -0.1084730    0.3474400  
H     5.8243700    1.5861940    0.5322990  
H     6.8724410   -3.7558720   -0.6431820  
H    10.3995590   -3.1137830   -0.1259970  
H     8.7689710    0.8433950    0.6123980  
