60


C     1.8990170   -3.4993080    1.5221450  
C     3.0576880   -2.9728110    1.0143490  
C     2.7062700   -1.7492260    0.3519490  
C     1.2992510   -1.6011670    0.4843550  
N     0.8289710   -2.7001920    1.1709790  
C     0.5752900   -0.5110340   -0.0510240  
C     1.3615430    0.4966700   -0.6341870  
O     0.7786180    1.6350570   -1.0955780  
C     2.7636370    0.3695200   -0.7567310  
O     3.3586400    1.4519730   -1.3943940  
C     3.4709440   -0.7405340   -0.2950680  
H     4.0457720   -3.3985930    1.1099100  
H    -0.0436130   -2.6429660    1.6872900  
H     1.4788960    2.1422550   -1.5451380  
H     4.1631650    1.1515720   -1.8454320  
H     1.7421150   -4.3952080    2.1065540  
C    -2.5202300   -1.1513970    3.0701250  
C    -3.6391960   -0.7128920    2.4498770  
C    -3.2152610   -0.3661850    1.1005890  
C    -1.7381380   -0.6413350    1.0899320  
N    -1.3569050   -1.1213680    2.2429000  
C    -0.9010250   -0.4114560   -0.0773480  
C    -1.5869090   -0.0916550   -1.2204500  
O    -1.0084750    0.0499020   -2.4172780  
C    -3.0622950    0.1733670   -1.2514230  
O    -3.5482710    0.5520270   -2.3146120  
C    -3.8819540    0.0079670   -0.0175480  
H    -4.6414090   -0.6441380    2.8468160  
H    -1.7295100    0.3243950   -3.0267520  
H    -2.4184450   -1.5143770    4.0858360  
C    -6.7910930    2.7201230    2.0443680  
C    -5.6371360    2.0960880    1.7061060  
C    -6.0121040    1.1473140    0.6646890  
C    -7.4882110    1.3578460    0.4977720  
N    -7.9341130    2.2756700    1.3060760  
C    -8.2563220    0.6159470   -0.4665130  
C    -7.6035470   -0.2916120   -1.2290570  
O    -8.1955940   -1.0615380   -2.1541550  
C    -6.1278150   -0.5465870   -1.0759350  
O    -5.6385170   -1.4530220   -1.7417940  
C    -5.3309250    0.2566920   -0.0997780  
H    -4.6475640    2.2562840    2.1086840  
H    -9.3221620    0.7906520   -0.5615910  
H    -7.4856110   -1.6341740   -2.5183120  
H    -6.9314890    3.4976530    2.7859520  
C     5.6342800   -1.9751080   -0.8159480  
C     4.9221830   -0.8652620   -0.4610360  
C     5.9703440    0.1469370   -0.1804470  
C     7.2528510   -0.5679110   -0.4483860  
N     7.0434950   -1.7997670   -0.8237920  
C     8.5282920    0.0781310   -0.2849110  
C     8.5400130    1.3592310    0.1560120  
O     9.6563090    2.0788850    0.3605230  
C     7.2681340    2.0964110    0.4618710  
O     7.3571930    3.2573820    0.8585970  
C     5.9672210    1.4172880    0.2696450  
H     9.4411090   -0.4667530   -0.4990510  
H     9.3466300    2.9552300    0.6783540  
H     5.0721940    1.9897910    0.4886170  
H     5.2317920   -2.9416570   -1.0933150  
