60


C     0.6841890    0.4106220   -1.1790340  
C     0.7841750    1.5917910   -0.4490120  
C     2.1459450    1.6187690    0.0666830  
C     2.7713610    0.4216740   -0.3554650  
N     1.8492000   -0.2946820   -1.1039920  
C     4.0824190    0.0451850    0.0089440  
C     4.7969550    0.9889570    0.7583970  
O     6.1068980    0.7850250    1.0438710  
C     4.1830540    2.1911670    1.1891290  
O     5.0187000    3.0004710    1.9319580  
C     2.8752780    2.5061220    0.8785210  
H     2.1316390   -1.0036100   -1.7690690  
H     6.3999250    1.5319680    1.5955240  
H     4.5956010    3.8607250    2.0730270  
H     2.4431920    3.4447390    1.2049310  
H    -0.1293500    0.0665820   -1.8013310  
C    -3.5964370    0.9850050    0.0009140  
C    -2.2347710    0.8324710   -0.0292520  
C    -1.6373440    2.1292360   -0.2010680  
C    -2.7565860    3.0888120   -0.2410800  
N    -3.9254420    2.3399120   -0.2042420  
C    -2.6340910    4.4424780   -0.2889210  
C    -1.2983280    4.9981710   -0.3081180  
O    -1.0531130    6.1960340   -0.3197980  
C    -0.0752430    4.0020200   -0.3080000  
O     1.0422900    4.4883940   -0.3177790  
C    -0.3149190    2.5287730   -0.3005040  
H    -1.7097420   -0.1074030    0.0469740  
H    -3.4821940    5.1192260   -0.3132760  
H    -4.7859060    2.7322060    0.1549240  
C    -4.6279730   -0.0048470    0.1501630  
C    -4.5688840   -1.2583980    0.7038950  
C    -5.8758770   -1.8500650    0.6090990  
C    -6.7355260   -0.8439460   -0.0594110  
N    -5.9450370    0.2846290   -0.2567130  
C    -8.0330790   -1.0456000   -0.3900940  
C    -8.6492710   -2.3257650   -0.0375820  
O    -9.8126300   -2.5920420   -0.2942990  
C    -7.7697760   -3.3899810    0.7137730  
O    -8.2740150   -4.4588080    1.0254490  
C    -6.3742740   -3.0579570    0.9977920  
H    -3.7037430   -1.6961250    1.1812180  
H    -8.6471210   -0.3024990   -0.8898210  
H    -5.7696120   -3.8071770    1.4996420  
H    -6.1322230    0.9344140   -1.0091060  
C     5.9607760   -2.9857700    2.5796000  
C     6.3880050   -3.9061470    1.6875570  
C     5.9416590   -3.4080720    0.3885490  
C     5.2739650   -2.1052390    0.7046250  
N     5.2669980   -1.8797570    1.9822810  
C     4.6737260   -1.2642210   -0.3348470  
C     4.6527220   -1.8144580   -1.5812450  
O     4.0602580   -1.2281460   -2.6522910  
C     5.2956600   -3.1210880   -1.9197660  
O     5.2461430   -3.4912790   -3.0948390  
C     5.9596350   -3.9032170   -0.8624380  
H     6.9193610   -4.8290140    1.8741910  
H     4.2678930   -1.8273050   -3.4064690  
H     6.4053900   -4.8511180   -1.1482630  
H     6.0777390   -2.9924110    3.6565680  
