60


C     1.6976970   -2.9572100    2.2740760  
C     2.9034560   -2.5839130    1.7428970  
C     2.6382360   -1.5922840    0.7380150  
C     1.2336010   -1.3924990    0.7185100  
N     0.6864460   -2.2253010    1.6761900  
C     0.5820370   -0.4901100   -0.1482900  
C     1.4142390    0.2202990   -1.0197020  
O     0.8707980    1.1278760   -1.8700340  
C     2.8168050    0.0381420   -1.0112310  
O     3.4784480    0.8233560   -1.9436530  
C     3.4648410   -0.8448850   -0.1451910  
H     3.8699010   -2.9634260    2.0405790  
H    -0.3003250   -2.4115460    1.7725330  
H     1.5834030    1.4251110   -2.4641430  
H     4.2910510    0.3715950   -2.2213270  
H     1.4686420   -3.6810280    3.0432840  
C    -2.1972850    0.6900200    3.0230630  
C    -3.3764690    0.6327820    2.3465940  
C    -3.0763580    0.2437400    0.9868240  
C    -1.6073840    0.0641020    0.9290420  
N    -1.1371410    0.3428090    2.2012020  
C    -0.8821670   -0.3082410   -0.1678730  
C    -1.6598020   -0.5933170   -1.3923800  
O    -1.1639650   -1.0591150   -2.4012810  
C    -3.2054970   -0.3221970   -1.3847940  
O    -3.8053070   -0.3759030   -2.4443680  
C    -3.8708290    0.0340570   -0.1126370  
H    -4.3547250    0.8473840    2.7484340  
H    -2.0145310    0.9515460    4.0570750  
H    -0.1596080    0.3672140    2.4487920  
C    -6.7953260    3.2949250    0.9128350  
C    -5.6298750    2.6239440    0.7454910  
C    -6.0175190    1.3029410    0.2618460  
C    -7.5098730    1.3725370    0.1892940  
N    -7.9568910    2.5359020    0.5720620  
C    -8.3019450    0.2663710   -0.2822600  
C    -7.6505360   -0.8564880   -0.6615940  
O    -8.2584770   -1.9662390   -1.1106800  
C    -6.1530210   -0.9777340   -0.5658420  
O    -5.6631500   -2.0754880   -0.8091730  
C    -5.3318930    0.1938420   -0.1198570  
H    -4.6241380    2.9793780    0.9162690  
H    -9.3819770    0.3518620   -0.3261880  
H    -7.5373370   -2.6144000   -1.2681120  
H    -6.9309340    4.3139150    1.2561930  
C     5.6361080   -2.1768180   -0.0971340  
C     4.9227040   -1.0147120   -0.1612140  
C     5.9659830    0.0376750   -0.1438660  
C     7.2516380   -0.7199640   -0.0762420  
N     7.0464400   -2.0078380   -0.0560120  
C     8.5243280   -0.0493400   -0.0363070  
C     8.5282340    1.3054570   -0.0328680  
O     9.6393920    2.0577810    0.0106690  
C     7.2504060    2.0963130   -0.0760190  
O     7.3332410    3.3228070   -0.0666910  
C     5.9539470    1.3849160   -0.1349550  
H     9.4397000   -0.6293810    0.0025660  
H     9.3270330    2.9890250    0.0035110  
H     5.0566680    1.9926760   -0.1834290  
H     5.2364670   -3.1836300   -0.0878470  
