64


C    -3.7794100   -0.1466190    0.3931200  
C    -2.4407300   -0.0352290    0.0825080  
C    -2.1355260    1.3585510   -0.0632890  
C    -3.3414150    2.0699290    0.1743200  
N    -4.3309760    1.1341230    0.4127690  
C    -3.4196980    3.4656960    0.1489080  
C    -2.2523300    4.1591290   -0.1344290  
O    -2.2669710    5.5256320   -0.1877190  
C    -1.0416620    3.4698790   -0.3881630  
O     0.0231220    4.3062060   -0.6821720  
C    -0.9482520    2.0777750   -0.3610380  
H    -1.7630490   -0.8651670   -0.0577370  
H    -5.2273330    1.3418390    0.8266500  
H    -4.3401760    4.0110790    0.3310130  
H    -1.3755540    5.8037330   -0.4611930  
H     0.7582470    3.7665000   -1.0175390  
C    -4.1854770   -2.4539150    1.3323730  
C    -4.5980560   -1.3148380    0.6741960  
C    -5.9886210   -1.5261660    0.3290590  
C    -6.3497450   -2.8099250    0.8114380  
N    -5.2286150   -3.3530200    1.4080120  
C    -7.6313710   -3.3490980    0.6444540  
C    -8.5670870   -2.5800790   -0.0294030  
O    -9.8318230   -3.0575730   -0.2189900  
C    -8.2196010   -1.2995890   -0.5355280  
O    -9.2535000   -0.6618870   -1.1964580  
C    -6.9533410   -0.7699570   -0.3675920  
H    -5.1901340   -4.2487030    1.8683210  
H    -7.9095760   -4.3318290    1.0115190  
H   -10.3182320   -2.3866220   -0.7283390  
H    -8.9273100    0.1619580   -1.5875880  
H    -6.7050960    0.2025840   -0.7871390  
H    -3.2246370   -2.6790470    1.7724460  
C     0.5179270    0.3567280   -1.5333640  
C     0.3289530    1.3981040   -0.6494060  
C     1.6309100    1.6646030   -0.0686180  
C     2.5522990    0.7605000   -0.6540760  
N     1.8447710   -0.0158790   -1.5463190  
C     3.9212430    0.6908810   -0.2973280  
C     4.3277520    1.5869590    0.6981960  
O     5.6340290    1.6203800    1.0970610  
C     3.4156860    2.4911950    1.2992000  
O     3.9955150    3.2975360    2.2605180  
C     2.0848760    2.5464970    0.9342290  
H     2.2320320   -0.7977330   -2.0525210  
H     5.7098320    2.3280860    1.7617260  
H     3.3411470    3.9305210    2.5914650  
H     1.4048120    3.2448420    1.4145660  
H    -0.2003390   -0.1318560   -2.1759810  
C     4.8627070   -0.5860970   -2.2806770  
C     4.8316410   -0.2485030   -0.9580810  
C     5.8677950   -1.1177780   -0.3515070  
C     6.4072920   -1.9021250   -1.4982770  
N     5.8189210   -1.5818420   -2.6178040  
C     7.4480420   -2.8821920   -1.3246830  
C     7.9159800   -3.0945770   -0.0717250  
O     8.8779180   -3.9808660    0.2385170  
C     7.3768730   -2.3352910    1.1064060  
O     7.8487870   -2.5852860    2.2150210  
C     6.3163860   -1.3249610    0.9000900  
H     7.8246390   -3.4284070   -2.1824770  
H     8.9961570   -3.9040550    1.2107500  
H     5.9739890   -0.7785120    1.7707280  
H     4.2710230   -0.1529270   -3.0793890  
