62


C     0.2886480   -0.8330840   -2.7315500  
C     1.5626400   -0.9085920   -2.2155320  
C     1.6498710    0.0433500   -1.1503410  
C     0.3825060    0.6713020   -1.0683350  
N    -0.4190740    0.1184320   -2.0434710  
C     0.0658710    1.7349520   -0.1840640  
C     1.1322230    2.1609660    0.6044710  
O     0.9627590    3.2098800    1.4845630  
C     2.4148670    1.5656600    0.5719520  
O     3.2829820    2.1297440    1.4403530  
C     2.7107650    0.4664470   -0.2795440  
H     2.3439800   -1.5426210   -2.6020800  
H    -1.3906720    0.3559220   -2.1792310  
H     1.8233000    3.3214020    1.9367270  
H     4.1703730    1.6525770    1.3280770  
H    -0.1646870   -1.3779710   -3.5474270  
C    -4.0886070   -0.0356830    0.0504910  
C    -2.7041890    0.1673920    0.0520650  
C    -2.4630440    1.5583570   -0.1099910  
C    -3.7428190    2.1856750   -0.1885360  
N    -4.6922560    1.2043160   -0.1051080  
C    -3.9044010    3.5708850   -0.2975700  
C    -2.7502770    4.3355540   -0.2947240  
O    -2.8254480    5.6866450   -0.3749830  
C    -1.4539300    3.7399420   -0.2116540  
O    -0.4317370    4.6553260   -0.2591000  
C    -1.2755020    2.3572560   -0.1538700  
H    -1.9580060   -0.5876390    0.2395840  
H    -5.6976230    1.3100110   -0.0371650  
H    -4.8763030    4.0489220   -0.3545390  
H    -1.9037530    6.0074470   -0.3283830  
H     0.2448490    4.3925330    0.4057030  
C    -3.0887320   -4.3847240   -0.2251470  
C    -3.0528130   -3.0270220   -0.3110590  
C    -4.3449270   -2.5264600    0.1009270  
C    -5.1529810   -3.7176260    0.4233740  
N    -4.3288220   -4.8078870    0.2308920  
C    -6.4540940   -3.7154410    0.8340970  
C    -7.1243710   -2.4422250    0.9333310  
O    -8.2837480   -2.2941300    1.2951790  
C    -6.3157240   -1.1503060    0.5337890  
O    -6.9447950   -0.1004430    0.4885790  
C    -4.8625890   -1.2450260    0.2179530  
H    -2.2166090   -2.4482660   -0.6680170  
H    -7.0014400   -4.6174040    1.0880090  
H    -2.3204650   -5.1090220   -0.4598860  
H    -4.6162470   -5.7674630    0.3416200  
C     4.0011060   -0.1600800   -0.2341120  
C     4.4967000   -1.2989830   -0.8431220  
C     5.8486430   -1.4378310   -0.4182580  
C     6.0852680   -0.2703020    0.4966670  
N     5.0081590    0.4558470    0.5983950  
C     7.3447800   -0.0456840    1.1405740  
C     8.3272960   -0.9469650    0.8909850  
O     9.5522030   -0.8862330    1.4087240  
C     8.1263830   -2.1486840   -0.0273200  
O     9.1093840   -2.8869480   -0.1609560  
C     6.8432550   -2.3432880   -0.6631330  
H     3.9700450   -1.9878680   -1.4822670  
H     7.4923160    0.8066090    1.7943090  
H    10.0161480   -1.6764080    1.0364020  
H     6.7250020   -3.2048200   -1.3121370  
