58


C     1.8383060   -0.3218900   -0.5943770  
C     0.9948420    0.6818370   -0.2307480  
C     1.8441530    1.7761710    0.2476070  
C     3.2394250    1.2724790    0.1919740  
N     3.1817350   -0.0106240   -0.3664410  
C     4.3212960    1.9584320    0.6410170  
C     4.1211150    3.3049970    1.1763970  
O     5.0400320    3.9923920    1.5927720  
C     2.6607250    3.8746450    1.2009780  
O     2.4718280    4.9997470    1.6312620  
C     1.5688610    3.0183110    0.7161750  
H     5.3274700    1.5552870    0.6560300  
H     0.5633800    3.4208470    0.7436220  
H     1.5939960   -1.2741020   -1.0398310  
C     7.2757550   -0.0873870   -1.9053540  
C     7.6426790   -1.3103740   -1.4484630  
C     6.4990610   -1.8796630   -0.7653170  
C     5.4246420   -0.8629460   -0.8621580  
N     5.9476530    0.1889550   -1.5700550  
C     4.1751510   -1.0100310   -0.3192850  
C     3.8678170   -2.2715430    0.3619970  
O     2.7731990   -2.5223280    0.8546040  
C     4.9972660   -3.3660080    0.4494850  
O     4.7262000   -4.4210840    0.9974690  
C     6.2993860   -3.0731560   -0.1431490  
H     8.6064580   -1.7811090   -1.5745080  
H     7.0709560   -3.8320550   -0.0652300  
H     7.8471320    0.6415080   -2.4639690  
H     5.4715340    1.0627320   -1.7393820  
C    -1.4289250   -2.6690960    1.1095810  
C    -2.6736330   -2.2007090    0.8236470  
C    -2.5168150   -0.8721660    0.2792720  
C    -1.0580910   -0.6094290    0.2561600  
N    -0.4565320   -1.7407490    0.7705210  
C    -0.4612570    0.5414940   -0.2014610  
C    -1.3579070    1.5987340   -0.6828040  
O    -0.9541220    2.6651550   -1.1199090  
C    -2.9086900    1.3590440   -0.6354110  
O    -3.6398370    2.2891750   -0.9264010  
C    -3.4241320    0.0499600   -0.1814560  
H    -3.6060380   -2.7195150    0.9839650  
H    -1.1338060   -3.6183300    1.5367440  
H     0.5385940   -1.8587750    0.9279580  
C    -6.6108250   -1.0246570    2.8056810  
C    -5.3968670   -0.7537670    2.2674530  
C    -5.6540330   -0.5112450    0.8520340  
C    -7.1357440   -0.6777830    0.7240170  
N    -7.6865660   -0.9788000    1.8664170  
C    -7.8179150   -0.4885040   -0.5295090  
C    -7.0722830   -0.1521870   -1.6066480  
O    -7.5711440    0.0448020   -2.8372940  
C    -5.5758950   -0.0092790   -1.5249530  
O    -4.9723490    0.1789170   -2.5758820  
C    -4.8781870   -0.1643020   -0.2080330  
H    -4.4398300   -0.7122200    2.7667870  
H    -8.8933940   -0.6140980   -0.5864700  
H    -6.7949730    0.2390400   -3.4071530  
H    -6.8416610   -1.2547610    3.8392790  
