58


C     0.8898670    1.0568500   -0.1202230  
C    -0.4949180    1.0716010   -0.0832670  
C    -0.9442250   -0.2760790   -0.0200850  
C     0.2812420   -1.1134820   -0.0271440  
N     1.3447150   -0.2488260   -0.1370530  
C     0.3009920   -2.4886550    0.0460860  
C    -1.0067100   -3.0944110    0.4088930  
O    -1.1055380   -4.1998350    0.9090840  
C    -2.3175120   -2.2843060    0.1636020  
O    -3.3462130   -2.9176120    0.0204990  
C    -2.2290580   -0.8105180    0.0460440  
H    -1.1162650    1.9529440   -0.0590060  
H     2.2871500   -0.5280570    0.1560210  
C     1.8216030    2.1499550   -0.1191670  
C     1.5714820    3.4979950   -0.1384560  
C     2.8679080    4.1290270   -0.1164390  
C     3.8379560    2.9842660   -0.0814600  
N     3.2240990    1.8369090   -0.0826930  
C     5.2601700    3.2032820   -0.0507490  
C     5.6980040    4.4847670   -0.0546670  
O     6.9877150    4.8393510   -0.0291980  
C     4.7444460    5.6603710   -0.0895570  
O     5.2426460    6.7854840   -0.0902430  
C     3.2986560    5.4138110   -0.1201410  
H     0.6125100    3.9959760   -0.1669540  
H     5.9421280    2.3607980   -0.0278190  
H     6.9886390    5.8233970   -0.0400170  
H     2.6447600    6.2799870   -0.1430270  
C     4.5768470   -2.2011800    1.3595360  
C     5.0195450   -3.4470920    1.0839890  
C     3.8956340   -4.1225820    0.4473880  
C     2.7934520   -3.1008740    0.4489870  
N     3.2180810   -1.9838500    0.9699460  
C     1.4648670   -3.3791330   -0.0811440  
C     1.3451950   -4.5910650   -0.7196800  
O     0.2530790   -4.9667100   -1.3841720  
C     2.4407150   -5.6220800   -0.7550620  
O     2.2060040   -6.6781260   -1.3391150  
C     3.7348880   -5.3332190   -0.1166650  
H     5.9977110   -3.8675780    1.2700980  
H     0.4284190   -5.8836550   -1.6954650  
H     4.5001000   -6.1018720   -0.1607940  
H     5.1130440   -1.3810440    1.8202770  
C    -3.4273530   -0.0176510   -0.0436690  
C    -3.6301920    1.1610460   -0.7322220  
C    -4.9982360    1.5316140   -0.4884630  
C    -5.5116230    0.4557840    0.4196820  
N    -4.6073310   -0.4427230    0.6696190  
C    -6.8615540    0.4812250    0.9238510  
C    -7.6616130    1.4981910    0.5259910  
O    -8.9396130    1.6468560    0.9040430  
C    -7.1772800    2.5862940   -0.4045350  
O    -7.9846530    3.4695110   -0.7028890  
C    -5.7976450    2.5513050   -0.8921220  
H    -2.9426250    1.6587110   -1.4008050  
H    -7.2085230   -0.3041410    1.5859010  
H    -9.2441890    2.4670360    0.4533910  
H    -5.4805320    3.3552350   -1.5494010  
