58


C     0.6699180    1.7513880   -0.0550010  
C     1.5876360    0.7264160   -0.1432940  
C     2.8927160    1.3144250   -0.2131950  
C     2.6897440    2.7853530   -0.1489090  
N     1.3309660    2.9763060   -0.0598550  
C     3.6877400    3.7067550   -0.1515450  
C     5.0603130    3.2342810   -0.2349820  
O     6.0321000    3.9737540   -0.1984680  
C     5.3044930    1.6919540   -0.3974100  
O     6.4267440    1.3053860   -0.6683090  
C     4.1482190    0.7610140   -0.2896520  
H     1.3599290   -0.3274390   -0.1764730  
H     3.5116580    4.7748490   -0.0734960  
H     0.8367190    3.8543080    0.0097410  
C    -0.7622590    1.7240400    0.0386320  
C    -1.6220640    0.6539230    0.0518310  
C    -2.9383540    1.2213270    0.1635030  
C    -2.7030690    2.7039170    0.2009820  
N    -1.4338120    2.9873630    0.1284440  
C    -3.7841710    3.6452740    0.2886530  
C    -5.0422040    3.1474710    0.3353040  
O    -6.1421800    3.9002270    0.4285290  
C    -5.3223760    1.6615040    0.3164290  
O    -6.4935280    1.3181410    0.4531480  
C    -4.2011400    0.6978600    0.1913520  
H    -1.3727520   -0.3952530   -0.0072840  
H    -3.5823960    4.7100280    0.3157580  
H    -6.8942610    3.2673750    0.4711470  
C    -3.0630010   -2.9641080    2.5239930  
C    -3.1235300   -1.6753300    2.1084780  
C    -4.0231710   -1.6890490    0.9621020  
C    -4.4257020   -3.1291040    0.8372520  
N    -3.8605360   -3.8648980    1.7509460  
C    -5.3426740   -3.5768680   -0.1765320  
C    -5.8423700   -2.6511570   -1.0278180  
O    -6.6939000   -2.9299890   -2.0254800  
C    -5.4482180   -1.2006280   -0.9474760  
O    -5.8764680   -0.4505800   -1.8182270  
C    -4.5225000   -0.7361940    0.1325190  
H    -2.6239770   -0.8146950    2.5287480  
H    -5.6107370   -4.6254700   -0.2408060  
H    -6.8544460   -2.0777090   -2.4862360  
H    -2.4976160   -3.3658240    3.3566570  
C     6.6869020   -1.7052710    2.2711470  
C     6.6428770   -2.9109010    1.6611520  
C     5.7326600   -2.7318540    0.5333220  
C     5.3365200   -1.2903750    0.6115610  
N     5.8730270   -0.7058770    1.6378290  
C     4.4134030   -0.6843100   -0.3427390  
C     3.8683650   -1.5300230   -1.2637510  
O     2.9883560   -1.1500670   -2.2067580  
C     4.2422750   -2.9838340   -1.3530450  
O     3.7142670   -3.6468230   -2.2460290  
C     5.2115450   -3.5507720   -0.3999150  
H     7.1494320   -3.8242200    1.9402370  
H     2.8278070   -1.9595980   -2.7435200  
H     5.4423860   -4.6074180   -0.4953860  
H     7.2464880   -1.4223240    3.1544160  
