60


C     2.8964920    3.2887170   -1.5681410  
C     3.8044270    2.3169990   -1.2439050  
C     3.0858210    1.2724280   -0.5689980  
C     1.7269530    1.6812420   -0.5127680  
N     1.6475150    2.9204950   -1.1070460  
C     0.6861330    0.8807980    0.0169210  
C     1.0794490   -0.4039720    0.4208130  
O     0.1626320   -1.2787270    0.9120330  
C     2.4256510   -0.8383080    0.3694060  
O     2.6034870   -2.1111390    0.8679690  
C     3.4624060   -0.0101270   -0.0715410  
H     4.8614820    2.3436860   -1.4613450  
H     0.7783960    3.3729580   -1.3478830  
H     0.6615410   -2.0969150    1.1094210  
H     3.1868040   -2.5865830    0.2375810  
H     3.0349470    4.2274850   -2.0851560  
C    -0.6870100    1.3625850    0.1056270  
C    -1.1273670    2.6644490    0.1997450  
C    -2.5610120    2.6484130    0.2642860  
C    -2.9552050    1.2199920    0.1705540  
N    -1.7851950    0.4972200    0.0600010  
C    -4.2535340    0.7783880    0.1357150  
C    -5.2944270    1.8054910    0.3986900  
O    -6.4564170    1.5202720    0.6300570  
C    -4.8895190    3.3213820    0.4268990  
O    -5.7764480    4.1601600    0.4998830  
C    -3.4757280    3.6536590    0.3670810  
H    -0.5098070    3.5436180    0.3099080  
H    -3.1948210    4.7020780    0.3979430  
H    -1.7382520   -0.4694430    0.3804810  
C    -2.8964320   -3.0874560    1.8396070  
C    -3.8259240   -3.9457320    1.3634290  
C    -4.6883570   -3.1378970    0.5083720  
C    -4.1194010   -1.7517930    0.6124780  
N    -3.0658660   -1.7433900    1.3798680  
C    -4.6970060   -0.6113910   -0.0783040  
C    -5.7317740   -0.9083020   -0.9260020  
O    -6.3133300   -0.0110410   -1.7261670  
C    -6.3125150   -2.2899420   -1.0617940  
O    -7.2505960   -2.4386590   -1.8426720  
C    -5.7433410   -3.4043850   -0.2824870  
H    -3.9229250   -5.0049940    1.5561040  
H    -7.0417040   -0.4905180   -2.1802480  
H    -6.1936570   -4.3842340   -0.4075950  
H    -2.0709870   -3.2978930    2.5090060  
C     7.2334210    1.9232290    1.3473810  
C     5.9226800    1.6705520    1.1296170  
C     5.8881100    0.3824410    0.4379150  
C     7.3259180    0.0019030    0.3252260  
N     8.1084250    0.9027420    0.8447580  
C     7.7424740   -1.2273710   -0.3004730  
C     6.7756110   -2.0584120   -0.7485360  
O     7.0192500   -3.2509080   -1.3226070  
C     5.3223140   -1.7299230   -0.5880150  
O     4.5242380   -2.6122780   -0.9343940  
C     4.8853810   -0.4091920   -0.0395850  
H     5.0700220    2.2693200    1.4118970  
H     8.7962740   -1.4688660   -0.3813550  
H     6.1426160   -3.6480220   -1.5070160  
H     7.6752600    2.7766390    1.8471150  
