60


C    -1.0058330   -1.5659540    0.9486050  
C    -0.3255700   -0.4975440    0.3718570  
C    -1.3377780    0.5145270    0.1000280  
C    -2.5749050   -0.0040290    0.5523610  
N    -2.3267120   -1.2615210    1.0747630  
C    -3.8185770    0.6530030    0.4154510  
C    -3.7717870    1.8919840   -0.2348550  
O    -4.9122590    2.6233800   -0.4008590  
C    -2.5489970    2.4206760   -0.7100350  
O    -2.6840700    3.6506040   -1.3266310  
C    -1.3444580    1.7596470   -0.5572430  
H    -3.0424630   -1.8877610    1.4128810  
H    -4.6511290    3.4635030   -0.8190290  
H    -1.8071960    4.0262680   -1.4948850  
H    -0.4249400    2.2029970   -0.9198690  
H    -0.6157380   -2.5188920    1.2653040  
C     2.3730550   -3.8589690   -0.3445910  
C     3.5640350   -3.2433740   -0.5420560  
C     3.2816070   -1.8211490   -0.3973160  
C     1.8262210   -1.7562310   -0.1123490  
N     1.3069890   -2.9544410   -0.0918510  
C     1.1074150   -0.4924460    0.1173690  
C     1.8988410    0.6280870    0.0901900  
O     1.4336590    1.8785390    0.3437140  
C     3.3417370    0.6114570   -0.2040910  
O     3.9411950    1.6910440   -0.2583360  
C     4.0390340   -0.6943550   -0.4419040  
H     4.5246110   -3.7020470   -0.7285890  
H     2.2189050    2.4602760    0.2419120  
H     2.1616970   -4.9213170   -0.3501640  
C     5.8847960   -1.4760160   -1.8739030  
C     7.2257150   -1.3559990   -1.9984950  
C     7.6844640   -0.4590710   -0.9610150  
C     6.4776690   -0.0395260   -0.2075680  
N     5.3832660   -0.6832130   -0.8252300  
C     6.5204230    0.7446840    0.8932580  
C     7.8215440    1.2552100    1.3402560  
O     7.9389820    1.9680790    2.3232300  
C     9.1005890    0.8645880    0.5218290  
O    10.1870910    1.2967190    0.8716500  
C     8.9275430   -0.0258010   -0.6272210  
H     7.8408380   -1.8290350   -2.7506050  
H     5.6464020    1.0492950    1.4533930  
H     9.8167240   -0.3296780   -1.1710550  
H     5.1845270   -2.0411620   -2.4724960  
C    -5.2259540   -0.5863100    2.1306160  
C    -5.0534590    0.0662450    0.9439190  
C    -6.3813170   -0.0318990    0.2944450  
C    -7.2140830   -0.7884140    1.2725160  
N    -6.5332220   -1.1033720    2.3398670  
C    -8.5942270   -1.1040030    1.0094780  
C    -9.1196800   -0.7091230   -0.1745860  
O   -10.3874550   -0.9396590   -0.5555580  
C    -8.2995070    0.0379870   -1.1879550  
O    -8.8451430    0.3607210   -2.2421200  
C    -6.8867020    0.3593710   -0.8894700  
H    -9.1744340   -1.6483860    1.7463080  
H   -10.4671710   -0.5383250   -1.4487000  
H    -6.3366360    0.9230170   -1.6337180  
H    -4.4933590   -0.7098540    2.9205910  
