60


C     1.7730340   -0.8059870   -0.0189460  
C     3.0802120   -0.4698190   -0.2772750  
C     3.1493250    0.9818130   -0.2575220  
C     1.8532080    1.4704610    0.0196300  
N     1.0258710    0.3559510    0.1559550  
C     1.5411870    2.8292680    0.1017980  
C     2.5760930    3.7281870   -0.1111300  
O     2.3358400    5.0646330   -0.0402180  
C     3.8857830    3.2644560   -0.4113410  
O     4.7972890    4.2780710   -0.6112340  
C     4.1793050    1.9150820   -0.4908080  
H     0.5417230    3.1935590    0.3112650  
H     3.1702640    5.5239380   -0.2400030  
H     5.6593070    3.9064630   -0.8510300  
H     5.1851640    1.5865390   -0.7393510  
H     1.3034150   -1.7734550    0.0819180  
C    -0.8152340    0.3749360    1.7774140  
C    -2.1712630    0.3821400    1.7519510  
C    -2.5823170    0.3924850    0.3624940  
C    -1.3470780    0.3925710   -0.4463680  
N    -0.3014650    0.3935470    0.4761890  
C    -1.2827420    0.3661480   -1.7998500  
C    -2.5402190    0.3475770   -2.5361850  
O    -2.6111300    0.2683940   -3.7510040  
C    -3.8849490    0.4320340   -1.7212570  
O    -4.9345860    0.5494850   -2.3238910  
C    -3.8137710    0.3993800   -0.2373810  
H    -2.8230780    0.3589260    2.6124200  
H    -0.3491780    0.3514130   -2.3509580  
H    -0.1269420    0.3519150    2.6111640  
C    -5.2438870    1.5057740    1.4706930  
C    -6.4715400    1.3749950    2.0265280  
C    -7.1040500    0.2242360    1.4177710  
C    -6.1305160   -0.3135180    0.4369500  
N    -5.0014160    0.5152110    0.5057770  
C    -6.3379850   -1.4286960   -0.3021460  
C    -7.6118890   -2.1356610   -0.1535340  
O    -7.8763570   -3.1537490   -0.7725170  
C    -8.6702950   -1.5609930    0.8545590  
O    -9.7406760   -2.1336010    0.9833220  
C    -8.3140850   -0.3606830    1.6148330  
H    -6.9070190    2.0221680    2.7742920  
H    -5.6222240   -1.8217940   -1.0141590  
H    -9.0376660    0.0176550    2.3305090  
H    -4.4837250    2.2544410    1.6482380  
C     4.1192770   -2.5450260   -1.3088460  
C     4.1519930   -1.4222270   -0.5392130  
C     5.5117570   -1.4277250    0.0412180  
C     6.1490410   -2.6536360   -0.5257310  
N     5.3283560   -3.2995790   -1.3048350  
C     7.5013220   -3.0220450   -0.1951260  
C     8.1802670   -2.2347870    0.6735630  
O     9.4440030   -2.4618350    1.0695740  
C     7.5553560   -1.0113560    1.2819810  
O     8.2337210   -0.3431740    2.0603400  
C     6.1656310   -0.6501010    0.9241310  
H     7.9411990   -3.9122460   -0.6309860  
H     9.6586500   -1.7352590    1.6942390  
H     5.7472710    0.2345690    1.3941540  
H     3.2927380   -2.8962360   -1.9154160  
