60


C     0.2414310    0.3140140   -0.8675230  
C    -0.1328390    1.5912990   -0.4616990  
C     1.0676970    2.1869650    0.0993820  
C     2.0934560    1.2159620    0.0061910  
N     1.5566290    0.1014040   -0.5954380  
C     3.4235980    1.4068350    0.4808640  
C     3.6636880    2.6614470    1.0799050  
O     4.8927530    2.9694710    1.5648260  
C     2.6411900    3.6321920    1.1906520  
O     3.0568340    4.7957560    1.8075970  
C     1.3613880    3.4167060    0.7172980  
H     2.1455070   -0.7071380   -0.7883970  
H     4.8415450    3.8777420    1.9159890  
H     2.3473580    5.4546930    1.7785840  
H     0.6100490    4.1942580    0.7965620  
H    -0.3473290   -0.4289050   -1.3847940  
C    -4.2468780   -0.1668290   -0.0787470  
C    -2.8769790   -0.0117020   -0.0542300  
C    -2.6220610    1.3480130   -0.4739080  
C    -3.9745370    1.8908130   -0.7490650  
N    -4.9160120    1.0178440   -0.5250420  
C    -4.1802940    3.2461910   -1.1979500  
C    -3.0906200    4.0356120   -1.3064980  
O    -3.1277000    5.3279540   -1.6792800  
C    -1.7051500    3.5325740   -0.9991430  
O    -0.7909600    4.3512040   -1.1176870  
C    -1.4855540    2.1098570   -0.6036210  
H    -2.1482020   -0.6972110    0.3560920  
H    -5.1824750    3.6045050   -1.4043380  
H    -2.1914070    5.6243700   -1.6691810  
C    -3.4114640   -4.4178610   -0.6999990  
C    -4.5487110   -4.9541410   -0.1880470  
C    -5.3662840   -3.8562910    0.2853380  
C    -4.5972490   -2.6237570    0.0147170  
N    -3.4100070   -3.0333560   -0.5541890  
C    -5.0311460   -1.3408270    0.2537170  
C    -6.3559760   -1.2175960    0.9166760  
O    -6.7928380   -0.1673710    1.3451940  
C    -7.2090260   -2.5194170    1.1509710  
O    -8.3422290   -2.4026910    1.5905840  
C    -6.6084510   -3.8144370    0.8415660  
H    -4.8025380   -6.0031640   -0.1429030  
H    -7.1964780   -4.7065510    1.0344440  
H    -2.5637020   -4.9101060   -1.1579170  
H    -2.7706640   -2.3914700   -1.0007450  
C     4.4450340    0.3919660    0.3554740  
C     5.7615190    0.3880980    0.7545170  
C     6.2965670   -0.8837370    0.3678010  
C     5.1483760   -1.5950770   -0.2891620  
N     4.0800660   -0.8557130   -0.2943910  
C     5.2825380   -2.9237570   -0.8227720  
C     6.4944220   -3.5168140   -0.7095490  
O     6.7788170   -4.7438680   -1.1530000  
C     7.6785370   -2.8254650   -0.0499370  
O     8.7290090   -3.4698910   -0.0081530  
C     7.5137780   -1.4801430    0.4808650  
H     6.2889870    1.1811140    1.2570030  
H     4.4401540   -3.4178100   -1.2941300  
H     7.7284480   -4.8808730   -0.9231680  
H     8.3765330   -1.0133800    0.9451790  
