62


C     0.5432620    1.8754630   -0.1272070  
C     1.4509970    0.8312410   -0.0660250  
C     2.7448670    1.3642910   -0.3203660  
C     2.5811230    2.7620120   -0.5254460  
N     1.2433210    3.0584650   -0.3661770  
C     3.6472630    3.6195920   -0.8079260  
C     4.9132970    3.0602570   -0.8563210  
O     5.9852680    3.8460780   -1.1317180  
C     5.1161140    1.6714980   -0.6118420  
O     6.4366380    1.3100880   -0.7143740  
C     4.0555130    0.7994290   -0.3533110  
H     1.1949320   -0.1909530    0.1695370  
H     0.8083110    3.8968960   -0.7244460  
H     3.5229020    4.6838220   -0.9776660  
H     6.7766770    3.2790770   -1.1124990  
H     6.5646200    0.3931330   -0.4207390  
C    -0.8776870    1.8672200    0.0608970  
C    -1.7743150    0.8335750   -0.0595320  
C    -3.0851440    1.3332700    0.2283360  
C    -2.9109300    2.7715170    0.5348120  
N    -1.5611670    3.0612700    0.3632080  
C    -3.9028610    3.6073100    0.9252230  
C    -5.2527440    3.0672100    0.9694540  
O    -6.2235810    3.7080080    1.3398730  
C    -5.4772540    1.5955050    0.4656120  
O    -6.6495880    1.2558040    0.2892000  
C    -4.3260610    0.7194030    0.2237630  
H    -1.5366950   -0.1693050   -0.3775410  
H    -3.7480080    4.6462050    1.1984930  
H    -1.1188720    3.8009000    0.8930310  
C    -2.3314740   -2.8451370    2.1028680  
C    -2.7456300   -1.5751050    1.7933200  
C    -3.6963110   -1.6808850    0.7190680  
C    -3.8246340   -3.0658160    0.4301710  
N    -2.9684610   -3.7469540    1.2728150  
C    -4.7110490   -3.5696030   -0.5271170  
C    -5.5075890   -2.6476520   -1.1865760  
O    -6.4120670   -3.0614210   -2.1148000  
C    -5.4106340   -1.2553060   -0.9180210  
O    -6.2626650   -0.4889010   -1.6785280  
C    -4.4892280   -0.7359190   -0.0020010  
H    -2.4153650   -0.6709930    2.2828930  
H    -2.8917120   -4.7500360    1.3315090  
H    -4.8129290   -4.6287210   -0.7410910  
H    -6.8758160   -2.2500850   -2.4006350  
H    -6.6493700    0.1872990   -1.0718720  
H    -1.6308670   -3.1866900    2.8518720  
C     6.7211420   -1.6201160    2.3152610  
C     6.0759100   -0.5671150    1.7522130  
C     5.1918230   -1.1571100    0.7489860  
C     5.4524870   -2.6241420    0.8632980  
N     6.3474570   -2.8858520    1.7753580  
C     4.7621880   -3.5846070    0.0439780  
C     3.8556200   -3.1145650   -0.8425420  
O     3.1345440   -3.8938480   -1.6629840  
C     3.5779820   -1.6405720   -0.9990760  
O     2.7702170   -1.3180850   -1.8635880  
C     4.2979150   -0.6398480   -0.1399570  
H     6.1545150    0.4788850    2.0129070  
H     4.9722740   -4.6428300    0.1515260  
H     2.5892580   -3.2813260   -2.2033980  
H     7.4542040   -1.5973520    3.1130800  
