58


C    -2.2729600    2.5012110   -0.0378960  
C    -3.5340010    3.0423310    0.0605070  
C    -4.4777970    1.9601390   -0.0072080  
C    -3.6813380    0.7172850   -0.1340620  
N    -2.3650120    1.1168230   -0.1474900  
C    -4.1982130   -0.5527510   -0.2443290  
C    -5.6786190   -0.6312190   -0.3371300  
O    -6.2723970   -1.6682110   -0.5763210  
C    -6.5365420    0.6724470   -0.1223430  
O    -7.7531460    0.5622680   -0.0915150  
C    -5.8439920    1.9441420    0.0141910  
H    -3.7749980    4.0908870    0.1591990  
H    -6.4410980    2.8445650    0.1173890  
H    -1.5510460    0.5368370   -0.2874250  
C    -0.9641160    3.1006560   -0.0335090  
C    -0.5831140    4.4027920    0.1222740  
C     0.8591570    4.3857880    0.0812270  
C     1.2225110    2.9414530   -0.1231830  
N     0.1514840    2.2072720   -0.1897390  
C     2.6070670    2.4820090   -0.2001810  
C     3.5588290    3.4711420   -0.0826950  
O     4.8686010    3.2791610   -0.1737710  
C     3.2061880    4.9303670    0.1226560  
O     4.1447780    5.7216020    0.2064680  
C     1.8043680    5.3429980    0.2041070  
H    -1.2113230    5.2699710    0.2692940  
H     5.2704100    4.1722120   -0.0509580  
H     1.5971360    6.3971340    0.3584790  
C     2.9226990    1.0733230   -0.3735970  
C     2.1286640    0.0822630   -0.8867370  
C     2.9182290   -1.1270530   -0.8218500  
C     4.2116660   -0.6878060   -0.2066970  
N     4.2158910    0.5859090    0.0462460  
C     5.2777720   -1.6227560    0.0524240  
C     5.0768670   -2.9163720   -0.2923730  
O     5.9766650   -3.8936830   -0.1149600  
C     3.7889870   -3.3854640   -0.9312770  
O     3.7076160   -4.5769840   -1.2238450  
C     2.7112810   -2.4161890   -1.1755900  
H     1.1265570    0.1823440   -1.2702120  
H     6.2024620   -1.2816670    0.5043060  
H     5.5470620   -4.7073940   -0.4629480  
H     1.7967220   -2.7932860   -1.6224660  
C    -3.6818160   -2.9026510   -1.0513260  
C    -3.4046110   -1.7673090   -0.3348930  
C    -2.1399530   -2.0937510    0.3663200  
C    -1.7908520   -3.4620110   -0.1272970  
N    -2.6992650   -3.9181820   -0.9448210  
C    -0.6034860   -4.1475250    0.3056740  
C     0.1779840   -3.5412510    1.2331200  
O     1.3167160   -4.0596760    1.7204960  
C    -0.1885610   -2.2068700    1.8150720  
O     0.5463110   -1.7334790    2.6790450  
C    -1.4017490   -1.5107430    1.3324090  
H    -0.3678420   -5.1264720   -0.0971620  
H     1.6339100   -3.4127790    2.3887840  
H    -1.6252700   -0.5554340    1.7957020  
H    -4.5488080   -3.0793990   -1.6709830  
