58


C     1.3504440    2.6431040   -0.7279030  
C     2.5911390    2.1124370   -0.6486890  
C     2.4665770    0.7564080   -0.1646270  
C     1.0150740    0.5198610    0.0197650  
N     0.3659320    1.7220190   -0.3374660  
C     0.4843700   -0.6392720    0.4745300  
C     1.3973160   -1.7269610    0.8065670  
O     1.0147890   -2.7821890    1.2888600  
C     2.9307220   -1.5387500    0.5389880  
O     3.6702300   -2.4851010    0.7392210  
C     3.4102610   -0.2103090    0.0724040  
H     3.5077850    2.6195700   -0.9053180  
H    -0.5779850   -0.7873530    0.6038270  
H     1.0487490    3.6252890   -1.0607400  
C    -0.9785020    2.0265630   -0.2721510  
C    -1.5680930    3.2666780   -0.3547030  
C    -2.9716370    3.0095700   -0.2288850  
C    -3.0723890    1.5109730   -0.0858620  
N    -1.8899370    0.9573410   -0.1121100  
C    -4.3348050    0.8187250    0.0432570  
C    -5.4379810    1.6256340    0.0820890  
O    -6.6740850    1.1733640    0.2532420  
C    -5.3698480    3.1421230   -0.0362800  
O    -6.4473940    3.7370190    0.0198220  
C    -4.0814530    3.7926200   -0.2067160  
H    -1.1002010    4.2354820   -0.4452010  
H    -7.2507930    1.9736810    0.2169780  
H    -4.0686320    4.8727420   -0.3082250  
C    -2.4379190   -2.4510280    2.4363070  
C    -2.8742600   -1.2448190    1.9856160  
C    -3.7484300   -1.4911040    0.8602290  
C    -3.8104630   -2.9685990    0.7119560  
N    -3.0032690   -3.4871620    1.7058940  
C    -4.5397820   -3.6279360   -0.2233620  
C    -5.3239870   -2.8379490   -1.1607800  
O    -6.0446950   -3.3302230   -2.0150690  
C    -5.2270700   -1.2706690   -1.0750220  
O    -5.7904820   -0.6115070   -1.9313220  
C    -4.4266060   -0.6551680    0.0135310  
H    -2.6038430   -0.2795290    2.3834490  
H    -4.5778490   -4.7101780   -0.2993150  
H    -1.7489450   -2.6748660    3.2393760  
H    -2.7468310   -4.4587100    1.7876550  
C     6.7617940   -2.2646320   -2.0814900  
C     5.5249880   -1.9637430   -1.6257470  
C     5.7049130   -0.7980050   -0.7652260  
C     7.1777010   -0.5316800   -0.8303230  
N     7.7876190   -1.3843010   -1.5997260  
C     7.7867620    0.5617230   -0.1189000  
C     6.9771390    1.3649600    0.6063230  
O     7.4060410    2.4197560    1.3214340  
C     5.4907990    1.1457020    0.6739700  
O     4.8440770    1.9357930    1.3601630  
C     4.8598440    0.0084040   -0.0676430  
H     4.5985850   -2.4797470   -1.8261510  
H     8.8580930    0.7184400   -0.1765900  
H     6.6026640    2.7959970    1.7417940  
H     7.0492090   -3.0705420   -2.7458350  
