62


C     0.9072560    1.6583320   -0.1377090  
C    -0.4357480    1.2698590   -0.1081290  
C    -0.4796040   -0.1405200   -0.0163300  
C     0.8716790   -0.5887790    0.0058000  
N     1.6792220    0.5131120   -0.0698140  
C     1.2622920   -1.9513300    0.0269430  
C     0.1992620   -2.8516120   -0.0135560  
O     0.4462720   -4.2052760   -0.0330810  
C    -1.1641980   -2.4612870   -0.0252210  
O    -2.0137120   -3.5108910   -0.0384950  
C    -1.5538550   -1.0977780    0.0040320  
H    -1.2482580    1.9694950   -0.1824520  
H     2.6903790    0.5071770   -0.0524290  
H    -0.4317700   -4.6376250   -0.0381690  
H    -2.9555140   -3.1306640   -0.0553010  
C     4.7335280   -0.7313610    2.6185600  
C     3.4818080   -0.8960350    2.0842970  
C     3.6083630   -1.7932120    0.9663650  
C     4.9808210   -2.1510950    0.8863090  
N     5.6414920   -1.4787170    1.8936950  
C     5.4830360   -3.0561840   -0.0551290  
C     4.5680620   -3.6334980   -0.9197760  
O     4.9794240   -4.5380900   -1.8494410  
C     3.1869460   -3.3024540   -0.8643870  
O     2.4257980   -3.9417390   -1.8183270  
C     2.6830150   -2.3641110    0.0431880  
H     2.5747450   -0.4422660    2.4559450  
H     6.6231180   -1.5691670    2.1033470  
H     6.5317840   -3.3293850   -0.1123490  
H     4.1693090   -4.8173420   -2.3176090  
H     1.6108140   -4.2717540   -1.3808800  
H     5.0570480   -0.1414910    3.4644580  
C    -0.9976020    5.6286700   -0.3432610  
C     0.0765130    6.4441600   -0.4149310  
C     1.2334270    5.5551890   -0.3811620  
C     0.6434770    4.1826220   -0.2852190  
N    -0.6547250    4.2391870   -0.2618750  
C     1.4866630    2.9800560   -0.2270070  
C     2.8396360    3.2167170   -0.2650960  
O     3.7633070    2.2254290   -0.2216040  
C     3.4410810    4.5645940   -0.3541320  
O     4.6745030    4.6504790   -0.3747980  
C     2.5635110    5.7500580   -0.4141420  
H     0.0980060    7.5229070   -0.4828050  
H     4.6316580    2.6872770   -0.2603090  
H     3.0433070    6.7219370   -0.4807490  
H    -2.0468090    5.8972910   -0.3406370  
C    -2.9407880   -0.7374410    0.0566190  
C    -3.5748840    0.4843920    0.1941580  
C    -4.9740930    0.2224960    0.1916610  
C    -5.0876350   -1.2676350    0.0417120  
N    -3.9053980   -1.8103430   -0.0303580  
C    -6.3528930   -1.9376920   -0.0054410  
C    -7.4593330   -1.1598600    0.0966590  
O    -8.7081490   -1.6213350    0.0720550  
C    -7.3874730    0.3560000    0.2537800  
O    -8.4782430    0.9342280    0.3353130  
C    -6.0950500    0.9992490    0.2957800  
H    -3.1215530    1.4542280    0.3149950  
H    -6.4095480   -3.0147230   -0.1167790  
H    -9.2692760   -0.8121650    0.1675190  
H    -6.0684910    2.0781180    0.4082610  
