58


C     1.1711690    1.5604170   -0.2444710  
C    -0.1994640    1.6073490   -0.3044320  
C    -0.6415090    0.2332010   -0.3101650  
C     0.6177320   -0.5469730   -0.1979250  
N     1.6689340    0.2190430   -0.1923190  
C     0.6303480   -1.9980050   -0.1218090  
C    -0.5776520   -2.6148960   -0.2024930  
O    -0.7342520   -3.9470040   -0.1395690  
C    -1.8664260   -1.8606820   -0.3299310  
O    -2.8969090   -2.5349010   -0.3646000  
C    -1.8712660   -0.3679860   -0.4199350  
H    -0.8170630    2.4903690   -0.3678600  
H    -1.7009210   -4.1007180   -0.2175810  
C     1.1375340    5.6045970    1.6463600  
C     0.7638490    4.3517290    1.2768440  
C     1.8505440    3.8594390    0.4475190  
C     2.8345800    4.9871400    0.4432000  
N     2.4081420    6.0041070    1.1406970  
C     4.0925020    4.8951620   -0.2458760  
C     4.3686220    3.7416370   -0.8966960  
O     5.4988600    3.5186950   -1.5843290  
C     3.3932520    2.5907650   -0.9452490  
O     3.7065980    1.6364020   -1.6472110  
C     2.0931880    2.6833780   -0.2048650  
H    -0.1318630    3.8174660    1.5565150  
H     4.7829980    5.7311340   -0.2317210  
H     5.3913390    2.6228970   -1.9753990  
H     0.5910240    6.2997750    2.2731360  
C     3.5725860   -2.0118040    3.1346670  
C     4.5345170   -2.8336410    2.6574960  
C     4.0442370   -3.2729500    1.3544410  
C     2.7305980   -2.5664030    1.2037980  
N     2.4545900   -1.8477770    2.2499360  
C     1.8988570   -2.7393090    0.0242360  
C     2.3472760   -3.6166330   -0.9137280  
O     1.6952440   -3.8912690   -2.0516710  
C     3.6581400   -4.3465350   -0.7772610  
O     3.9788540   -5.1056300   -1.6900380  
C     4.4938780   -4.1276680    0.4160130  
H     5.4633530   -3.1254600    3.1273760  
H     2.2634970   -4.5396570   -2.5248030  
H     5.4268170   -4.6796770    0.4776290  
H     3.5554170   -1.4849900    4.0813570  
C    -3.2243250    1.4767280   -1.4545990  
C    -3.1057140    0.3434360   -0.6838330  
C    -4.4902220    0.0942860   -0.2169300  
C    -5.2763520    1.2154650   -0.8132050  
N    -4.5219730    2.0014340   -1.5418680  
C    -6.6844090    1.3734110   -0.5866720  
C    -7.3004190    0.4690720    0.2136380  
O    -8.6038810    0.4919020    0.5161910  
C    -6.5371560   -0.6644490    0.8459520  
O    -7.1606190   -1.4389260    1.5668440  
C    -5.0878120   -0.8073160    0.5848720  
H    -7.2157070    2.2000930   -1.0446370  
H    -8.7522380   -0.2767230    1.1107650  
H    -4.5873770   -1.6523420    1.0401730  
H    -2.4323830    1.9542650   -2.0187620  
