58


C    -0.6139620    0.6557230   -0.0114270  
C    -0.6688010    2.0241230   -0.1176240  
C    -2.0512810    2.4098710   -0.0900130  
C    -2.8392850    1.1564560    0.0329490  
N    -1.9204660    0.1410340    0.0452790  
C    -4.2152400    1.0926500    0.0499160  
C    -4.9247810    2.3942230    0.0109680  
O    -6.1384780    2.4973590    0.0632240  
C    -4.0930950    3.7261490   -0.0927570  
O    -4.6973220    4.7863560   -0.1250030  
C    -2.6409200    3.6352020   -0.1570280  
H     0.1827730    2.6776150   -0.2075600  
H    -2.0735230    4.5551020   -0.2589250  
H    -2.1276100   -0.7949800    0.3632280  
C     3.6531880    1.5968300   -0.2487860  
C     4.2505110    0.3703640   -0.1630400  
C     3.1146760   -0.5694220   -0.0477490  
C     1.9062850    0.3080810   -0.0738540  
N     2.2441990    1.5611320   -0.2007820  
C     0.5444150   -0.2216760    0.0312610  
C     0.4607740   -1.5837050    0.1819680  
O    -0.6924200   -2.2621510    0.3049680  
C     1.6597750   -2.4759870    0.2348530  
O     1.4581030   -3.6810610    0.3858250  
C     3.0089010   -1.9009120    0.1080040  
H    -0.4284070   -3.2071450    0.4088470  
H     3.8453240   -2.5880660    0.1252330  
H     4.1442230    2.5526690   -0.3818810  
C     7.7871180    2.4814640    1.5441960  
C     6.5046160    2.1308160    1.2772460  
C     6.5996930    0.9435170    0.4365750  
C     8.0690270    0.7144010    0.3095710  
N     8.7568860    1.6176750    0.9495230  
C     8.6068530   -0.3928950   -0.4369110  
C     7.7307120   -1.2457630   -1.0145060  
O     8.0929280   -2.3274780   -1.7246790  
C     6.2450830   -1.0522650   -0.9044340  
O     5.5320620   -1.8860010   -1.4607420  
C     5.6860520    0.1216110   -0.1583680  
H     5.6014190    2.6052590    1.6319160  
H     9.6800370   -0.5276410   -0.5123660  
H     7.2569630   -2.7456130   -2.0227260  
H     8.1373760    3.3112760    2.1462960  
C    -7.7646860   -0.5161770   -2.1611830  
C    -6.7424240    0.2840920   -1.7866380  
C    -6.1084790   -0.3967390   -0.6583370  
C    -6.9232420   -1.6391110   -0.4957490  
N    -7.8838320   -1.7078140   -1.3701160  
C    -6.6272280   -2.6231490    0.5139300  
C    -5.5520750   -2.4025800    1.3004590  
O    -5.1423570   -3.2383430    2.2739020  
C    -4.6843540   -1.1890560    1.1321200  
O    -3.6942000   -1.1183140    1.8663320  
C    -5.0131650   -0.1432380    0.1150420  
H    -6.4576310    1.2358420   -2.2067180  
H    -7.2505910   -3.5045540    0.6144870  
H    -4.3456420   -2.8153310    2.6604060  
H    -8.4767140   -0.3589340   -2.9621130  
