58


C    -1.1680350   -1.0417460   -0.2641670  
C     0.1498890   -1.4462700   -0.3475370  
C     0.9717960   -0.2787490   -0.2874930  
C     0.0371460    0.8707000   -0.1774070  
N    -1.2308770    0.3447160   -0.2175490  
C     0.4147600    2.1919490   -0.0885060  
C     1.8569950    2.4016150    0.1513010  
O     2.3212540    3.4392760    0.5901960  
C     2.8667450    1.2317900   -0.1192370  
O     4.0540090    1.5109550   -0.1626350  
C     2.3492710   -0.1347660   -0.3228760  
H     0.4940970   -2.4685650   -0.3903310  
H    -2.0276730    0.8601660    0.1680700  
C    -2.3705890   -1.8243090   -0.2026870  
C    -2.5236150   -3.1867920   -0.2613310  
C    -3.9395880   -3.4204540   -0.1406250  
C    -4.5327300   -2.0473650   -0.0099100  
N    -3.6160100   -1.1243470   -0.0463700  
C    -5.9509200   -1.8503760    0.1353540  
C    -6.7384760   -2.9519370    0.1503180  
O    -8.0699540   -2.9239440    0.2773860  
C    -6.1702600   -4.3501330    0.0206980  
O    -6.9733230   -5.2831990    0.0457190  
C    -4.7236660   -4.5270980   -0.1256440  
H    -1.7543220   -3.9378770   -0.3733740  
H    -6.3568360   -0.8491990    0.2263200  
H    -8.3528840   -3.8664860    0.2533840  
H    -4.3512920   -5.5429400   -0.2138930  
C    -3.6085770    3.0693370    1.6600480  
C    -3.7205550    4.3931710    1.4163770  
C    -2.5272510    4.7462590    0.6568490  
C    -1.7528470    3.4625690    0.5568700  
N    -2.4094730    2.4943660    1.1332180  
C    -0.4636130    3.3740830   -0.1151770  
C    -0.0826870    4.5143770   -0.7793690  
O     0.9985320    4.5862470   -1.5597870  
C    -0.8489420    5.8051730   -0.7135630  
O    -0.3988040    6.7668270   -1.3345910  
C    -2.0992780    5.8740630    0.0619670  
H    -4.5216370    5.0615650    1.6989790  
H     1.0474300    5.5210270   -1.8620150  
H    -2.6235170    6.8243330    0.0862490  
H    -4.2980610    2.4201860    2.1852740  
C     3.0082390   -2.1974950   -1.5826590  
C     3.2545810   -1.2311490   -0.6390060  
C     4.5650650   -1.5639170   -0.0574960  
C     5.0236910   -2.7971040   -0.7433980  
N     4.0316260   -3.1204220   -1.6520300  
C     6.1886160   -3.4461380   -0.4949230  
C     7.0675950   -2.9154720    0.5417380  
O     8.1354140   -3.4272710    0.8404840  
C     6.5936860   -1.6297900    1.3081780  
O     7.2922920   -1.1832990    2.2025140  
C     5.3167120   -1.0071800    0.9244590  
H     6.4938290   -4.3458130   -1.0205790  
H     5.0348160   -0.0958880    1.4367540  
H     2.1627140   -2.2766960   -2.2525290  
H     4.0921530   -3.8698320   -2.3243470  
