60


C    -0.1380700    1.9203490    0.1398730  
C     1.2208630    1.6438640    0.0489070  
C     1.3763240    0.2515810   -0.2313910  
C     0.0646090   -0.2899030   -0.3243230  
N    -0.8297060    0.7405880   -0.1171160  
C    -0.2131750   -1.6384870   -0.6109530  
C     0.9106640   -2.4358780   -0.8368380  
O     0.7595530   -3.7430660   -1.1566680  
C     2.2390870   -1.9223030   -0.7638140  
O     3.1928830   -2.8710380   -1.0134080  
C     2.5121730   -0.5943880   -0.4311090  
H     2.0021370    2.3890310    0.0927260  
H    -1.8017100    0.5877010    0.1088700  
H     1.6639070   -4.0832220   -1.3129170  
H     3.8976760   -2.4398820   -1.5600500  
C     4.2942440    1.7476760    2.8350360  
C     5.5407200    1.9509740    2.3411150  
C     5.6085400    1.2760440    1.0613660  
C     4.2723340    0.6627500    0.8433220  
N     3.5346320    0.9748540    1.9583450  
C     3.8907980   -0.0771120   -0.2562530  
C     4.9636610   -0.3519170   -1.2094080  
O     4.8675530   -1.1620230   -2.1346210  
C     6.3484260    0.3811640   -1.0667950  
O     7.1613390    0.2561050   -1.9669750  
C     6.6034010    1.1541540    0.1445250  
H     6.3420280    2.4980510    2.8155390  
H     7.5767430    1.6204150    0.2578340  
H     3.8585540    2.0821540    3.7671090  
H     2.5509760    0.7699780    2.0563600  
C    -0.3365890    4.2697500    1.0621930  
C    -0.8127280    3.1576740    0.4209240  
C    -2.2009810    3.5296920    0.0461330  
C    -2.3637710    4.9080780    0.5767870  
N    -1.2663240    5.3262620    1.1554830  
C    -3.5905610    5.6369260    0.4152260  
C    -4.6051400    5.0429420   -0.2633830  
O    -5.8028920    5.6164530   -0.4806780  
C    -4.4618360    3.6723770   -0.8391950  
O    -5.4163860    3.1848680   -1.4469230  
C    -3.1857620    2.9424590   -0.6590190  
H    -3.6821200    6.6377540    0.8226710  
H    -6.3190280    4.9600070   -0.9962580  
H    -3.1203580    1.9651440   -1.1270030  
H     0.6449920    4.4002280    1.5013830  
C    -2.5914080   -1.6532770   -1.4877370  
C    -1.5887230   -2.1557880   -0.7085140  
C    -2.1654990   -3.2884180    0.0166660  
C    -3.5809660   -3.3876940   -0.4145390  
N    -3.7743320   -2.3616500   -1.3199930  
C    -4.4605270   -4.3196550    0.0328940  
C    -3.9963270   -5.2931740    1.0164700  
O    -4.7120140   -6.1677160    1.4802140  
C    -2.5028740   -5.1965850    1.5007650  
O    -2.0987030   -5.9908340    2.3346320  
C    -1.6492000   -4.1467340    0.9315630  
H    -5.4927220   -4.3755330   -0.2991200  
H    -0.6156740   -4.1041020    1.2565690  
H    -2.5498150   -0.8345440   -2.1948600  
H    -4.6263980   -2.1983950   -1.8334130  
