60


C    -3.6565050    0.0887840   -0.0530940  
C    -2.2702940    0.2764640    0.0371070  
C    -2.0033540    1.6647070   -0.0599530  
C    -3.2724390    2.3112570   -0.1881540  
N    -4.2359460    1.3421950   -0.1960540  
C    -3.4158640    3.7009650   -0.2436160  
C    -2.2559840    4.4473140   -0.1326210  
O    -2.3097970    5.7967470   -0.1464860  
C    -0.9667350    3.8325680   -0.0022120  
O     0.0501950    4.7412850    0.0715910  
C    -0.8011770    2.4489870   -0.0084550  
H    -1.5533390   -0.5027510    0.2399750  
H    -5.2396710    1.4699350   -0.1872450  
H    -4.3776910    4.1940000   -0.3319420  
H    -1.3911670    6.1050460   -0.0130630  
H     0.7068560    4.3960680    0.7283650  
C     0.7993950   -0.7997640   -2.4784070  
C     2.0103210   -0.9878290   -1.8936510  
C     2.1356020   -0.0024740   -0.8420100  
C     0.8706010    0.7738640   -0.8501050  
N     0.1206600    0.2543860   -1.8771180  
C     0.5301720    1.7987860    0.0093350  
C     1.5991250    2.2108490    0.9126000  
O     1.5531710    3.2211180    1.6170360  
C     2.9263440    1.3730850    0.9991730  
O     3.7758180    1.7394300    1.7891380  
C     3.1275120    0.2416360    0.0707110  
H     2.7515200   -1.7207650   -2.1721450  
H     0.3434010   -1.3308530   -3.3032780  
H    -0.8387840    0.5138640   -2.0552480  
C     6.5202770   -0.8017090   -2.6839600  
C     5.3513840   -0.2916200   -2.2248050  
C     5.2672660   -0.7269570   -0.8354380  
C     6.5271550   -1.5099170   -0.6278300  
N     7.2509450   -1.5505090   -1.7107840  
C     6.8549270   -2.1012240    0.6425950  
C     5.9807750   -1.9302710    1.6608800  
O     6.1524470   -2.4332090    2.8927210  
C     4.6892110   -1.1773890    1.4828810  
O     3.9075960   -1.1693220    2.4275320  
C     4.3749920   -0.5297990    0.1694720  
H     4.6346300    0.3171360   -2.7566020  
H     7.7767490   -2.6599580    0.7594690  
H     5.3503240   -2.1769560    3.3983380  
H     6.9459940   -0.6957710   -3.6749550  
C    -2.7614470   -4.3151500   -0.2928880  
C    -2.6006880   -2.9667010   -0.3653170  
C    -3.9154370   -2.4036060   -0.0902570  
C    -4.7652440   -3.5945180    0.1173030  
N    -4.0893010   -4.7110680    0.0091240  
C    -6.1761070   -3.4984470    0.3942140  
C    -6.7317560   -2.2673430    0.4328790  
O    -8.0443380   -2.0402270    0.6465330  
C    -5.9170340   -1.0368860    0.2118560  
O    -6.5327380    0.0360240    0.2087940  
C    -4.4261350   -1.1285050    0.0072930  
H    -1.6958950   -2.4340430   -0.6160150  
H    -6.7608520   -4.3994270    0.5434770  
H    -8.1572280   -1.0680690    0.6018390  
H    -2.0113230   -5.0821820   -0.4451840  
