60


C    -2.2727940    3.9234980    0.0079140  
C    -1.1824400    3.1097430    0.1756690  
C    -1.6439670    1.7548840    0.0587500  
C    -3.0368900    1.8138220   -0.1976140  
N    -3.3888820    3.1463470   -0.2263100  
C    -3.8573770    0.6738060   -0.3712100  
C    -3.1938190   -0.5535700   -0.2691310  
O    -3.8867110   -1.7182210   -0.4343370  
C    -1.8034900   -0.6359640   -0.0062410  
O    -1.3580180   -1.9400390    0.1050980  
C    -1.0011990    0.4927390    0.1564560  
H    -0.1668220    3.4392460    0.3420710  
H    -4.3359910    3.4818870   -0.3140320  
H    -3.2356670   -2.4414230   -0.3801260  
H    -0.3909160   -1.9776420    0.0346200  
H    -2.3480000    5.0015360    0.0222080  
C     1.1027150    1.0008440    1.4794850  
C     0.4363720    0.3825550    0.4588540  
C     1.4383950   -0.3968600   -0.2627650  
C     2.7225900   -0.1964340    0.4452560  
N     2.4422260    0.6385070    1.5125740  
C     3.9270940   -0.7290380    0.0750660  
C     3.9207000   -1.5820220   -1.1342520  
O     4.9195280   -2.1450390   -1.5479550  
C     2.5705120   -1.7856810   -1.9159620  
O     2.5875110   -2.4522880   -2.9374880  
C     1.3588400   -1.1593960   -1.3913380  
H     0.4418080   -1.2777030   -1.9607860  
H     0.7044530    1.6720020    2.2287540  
H     3.1570570    1.1054170    2.0510250  
C     5.2900860   -0.6835990    2.1985020  
C     5.1606670   -0.5337790    0.8447770  
C     6.4851510   -0.1386470    0.3506390  
C     7.3702010   -0.0728410    1.5385070  
N     6.5781350   -0.4038640    2.6242520  
C     8.6857240    0.2572770    1.5102330  
C     9.2866990    0.5937240    0.2230090  
O    10.4598520    0.9073210    0.0951520  
C     8.3632590    0.5583010   -1.0477920  
O     8.8338770    0.8637410   -2.1305560  
C     6.9561590    0.1633080   -0.8844860  
H     9.3121600    0.2918800    2.3963110  
H     6.3463600    0.1085570   -1.7786740  
H     4.5439990   -1.0044500    2.9144580  
H     6.9212610   -0.5449300    3.5618790  
C    -5.8897450    1.7082910   -1.4890230  
C    -5.2863530    0.7986120   -0.6681910  
C    -6.4223110    0.0379200   -0.0954430  
C    -7.6286540    0.6573580   -0.7141300  
N    -7.3072650    1.6254860   -1.5276640  
C    -8.9590280    0.1998080   -0.4072890  
C    -9.0920350   -0.8073710    0.4882300  
O   -10.2693530   -1.3283030    0.8738710  
C    -7.8965800   -1.4371100    1.1439880  
O    -8.0957980   -2.3439840    1.9512550  
C    -6.5394650   -0.9576580    0.8021510  
H    -9.8143100    0.6667660   -0.8830900  
H   -10.0420640   -2.0317650    1.5208020  
H    -5.7020010   -1.4577900    1.2736620  
H    -5.4020280    2.4384700   -2.1250730  
