60


C     1.6484760   -0.3981490    0.4926710  
C     2.8971350    0.1700710    0.3034460  
C     2.6756630    1.5900870    0.0685650  
C     1.2847440    1.8179030    0.1236110  
N     0.6843150    0.5817290    0.3872400  
C     0.6940310    3.0699190   -0.0558870  
C     1.5494260    4.1341980   -0.3024130  
O     1.0417570    5.3829350   -0.4870030  
C     2.9543230    3.9308550   -0.3631630  
O     3.6689160    5.0824760   -0.6138500  
C     3.5242530    2.6838250   -0.1828350  
H    -0.3775770    3.2289870   -0.0171470  
H     1.7919340    5.9782800   -0.6604850  
H     4.6127100    4.8711510   -0.6747780  
H     4.5975360    2.5309500   -0.2284130  
H     1.3585790   -1.4194040    0.6915620  
C    -1.3597130    0.4575250    1.7410130  
C    -2.6615380    0.1374150    1.5549910  
C    -2.8444980   -0.1855400    0.1504030  
C    -1.5202230   -0.0346450   -0.4907440  
N    -0.6596780    0.3738460    0.5280640  
C    -1.2360930   -0.2835620   -1.7914560  
C    -2.3283200   -0.7349550   -2.6474010  
O    -2.1822380   -1.0191250   -3.8247820  
C    -3.7637150   -0.8456850   -2.0193080  
O    -4.7055530   -1.0800100   -2.7525870  
C    -3.9383600   -0.5952450   -0.5606780  
H    -3.4281700    0.1189570    2.3146550  
H    -0.2437550   -0.1797650   -2.2167070  
H    -0.8233050    0.7486800    2.6337670  
C    -6.8157210    2.1218070    1.5081910  
C    -5.7285300    1.6028260    0.8799480  
C    -5.9994070    0.2016360    0.6330640  
C    -7.3587630   -0.0527050    1.1724320  
N    -7.7865690    1.1480950    1.7077270  
C    -8.0144570   -1.2394560    1.1062640  
C    -7.3418540   -2.3618850    0.4658070  
O    -7.8527290   -3.4628300    0.3338770  
C    -5.8797290   -2.1427260   -0.0637560  
O    -5.2573950   -3.1044340   -0.4763330  
C    -5.2786620   -0.7855140    0.0160190  
H    -4.8327720    2.1391630    0.6067150  
H    -9.0187070   -1.3902990    1.4900970  
H    -6.9927810    3.1344970    1.8457950  
H    -8.7072960    1.3119660    2.0837740  
C     4.1498860   -0.5357960    0.3390720  
C     4.3931000   -1.8752200    0.5340270  
C     5.8157490   -2.0330470    0.4758970  
C     6.3321380   -0.6403570    0.2288780  
N     5.3631040    0.2227150    0.1500920  
C     7.7397770   -0.3675420    0.1053280  
C     8.5889950   -1.4152550    0.2189150  
O     9.9197110   -1.3238330    0.1281100  
C     8.0991570   -2.8330620    0.4678500  
O     8.9693360   -3.7027820    0.5539410  
C     6.6700510   -3.0847770    0.5894550  
H     3.6698810   -2.6630040    0.6934100  
H     8.0887680    0.6435340   -0.0724830  
H    10.2437420   -2.2469880    0.2520660  
H     6.3546400   -4.1082160    0.7660860  
