60


C     0.1194040   -2.6011600   -0.7815400  
C    -0.6214360   -1.6328870   -0.1091260  
C    -1.9557800   -1.6656740   -0.6100370  
C    -1.9992210   -2.7114590   -1.5754490  
N    -0.7240520   -3.2258510   -1.6919840  
C    -3.1725820   -3.1023280   -2.2203420  
C    -4.3319220   -2.4256750   -1.8682160  
O    -5.5131690   -2.7661990   -2.4341700  
C    -4.3204000   -1.3583020   -0.9224380  
O    -5.5532190   -0.7866160   -0.7390340  
C    -3.1418580   -0.9193890   -0.3152150  
H    -0.2290210   -0.9543160    0.6328200  
H    -0.4934620   -4.0827340   -2.1724760  
H    -3.2122890   -3.9058850   -2.9479700  
H    -6.1844730   -2.1836560   -2.0276770  
H    -5.6449490   -0.5844100    0.2200270  
C    -0.3533590    2.5632130   -0.0922720  
C    -1.0422260    1.4515750   -0.5250720  
C    -2.0935610    1.2341050    0.4267080  
C    -1.9204920    2.3456260    1.4128130  
N    -0.9153540    3.1143970    1.1184640  
C    -2.7952180    2.4856380    2.5490010  
C    -3.8121990    1.6022470    2.6572300  
O    -4.7296060    1.6346380    3.6368090  
C    -4.0294350    0.5011030    1.6499350  
O    -5.0548680   -0.1827190    1.8197670  
C    -3.0684500    0.2743360    0.5569510  
H    -0.9081390    0.9088880   -1.4484060  
H    -2.6463760    3.2900730    3.2600000  
H    -5.3559550    0.9049360    3.4402970  
C     3.0202490    0.6444250   -2.1242780  
C     3.8094180    1.7292970   -2.3252510  
C     3.0994900    2.8770030   -1.8003100  
C     1.8095770    2.3677350   -1.2826560  
N     1.8170940    1.0179980   -1.5248720  
C     0.8515030    3.1332090   -0.6420530  
C     1.1302870    4.5896650   -0.5490180  
O     0.3108540    5.4029140   -0.1698410  
C     2.5253980    5.1224840   -1.0354680  
O     2.8014430    6.2970060   -0.8556820  
C     3.4399330    4.1902030   -1.6968010  
H     4.7894070    1.7393920   -2.7792600  
H     4.3875520    4.5804960   -2.0557140  
H     3.1972520   -0.3971650   -2.3574700  
H     1.1146500    0.3733400   -1.1854560  
C     2.3270600   -3.5134420   -1.6378800  
C     1.5157230   -2.9259380   -0.7006450  
C     2.4153300   -2.6949030    0.4573310  
C     3.7360840   -3.1923430   -0.0053630  
N     3.6659740   -3.6687390   -1.2245970  
C     4.8959760   -3.1456070    0.8393140  
C     4.7498110   -2.6579740    2.0976800  
O     5.7529730   -2.5575460    2.9865920  
C     3.4245980   -2.1850980    2.6065400  
O     3.3597490   -1.7602610    3.7601220  
C     2.2445850   -2.2405240    1.7129190  
H     5.8500800   -3.5057540    0.4704970  
H     5.3474530   -2.1831600    3.7988480  
H     1.2972610   -1.9161550    2.1316690  
H     2.0543970   -3.8332310   -2.6372620  
