62


C     1.8013300   -0.2937110   -0.4924390  
C     3.1105820   -0.2530950   -0.0525980  
C     3.3648900    1.1297210    0.3284490  
C     2.1736690    1.8552080    0.0880640  
N     1.2224530    0.9544270   -0.4178540  
C     2.0420420    3.2171370    0.3653620  
C     3.1549230    3.8816480    0.8616870  
O     3.0796860    5.2156330    1.1443060  
C     4.3664430    3.1848820    1.0729400  
O     5.3940240    3.9724370    1.5585950  
C     4.4841220    1.8302440    0.8120210  
H     1.1278650    3.7678310    0.1889280  
H     3.9526630    5.4856760    1.4776070  
H     6.1726900    3.4183240    1.7162130  
H     5.4150020    1.3136760    1.0152380  
H     1.2402560   -1.1303440   -0.8688130  
C    -2.3581350   -1.1208160    0.7941270  
C    -3.3438250   -0.4164070    0.1654220  
C    -2.6074990    0.6434320   -0.5645670  
C    -1.1799610    0.3870070   -0.2415980  
N    -1.0449150   -0.6426190    0.5443630  
C    -0.1132310    1.2294270   -0.7643650  
C    -0.4798160    2.2709940   -1.5681210  
O     0.3908850    3.1118700   -2.1551200  
C    -1.9084300    2.5609090   -1.8707720  
O    -2.1540500    3.5177830   -2.6095330  
C    -2.9717060    1.6913040   -1.3236490  
H    -0.1705850    3.7426100   -2.6594190  
H    -3.9942260    1.9218530   -1.5969290  
H    -2.4729790   -2.0031630    1.4126630  
C    -5.8002340   -1.3681370    3.6887730  
C    -7.0151590   -1.4465370    3.0603880  
C    -6.7869860   -1.1769090    1.6691420  
C    -5.3958400   -0.9474460    1.5114150  
N    -4.8198470   -1.0822810    2.7568470  
C    -4.7910960   -0.6146940    0.2741650  
C    -5.6643620   -0.5239220   -0.8169840  
O    -5.1786740   -0.2321020   -2.0612400  
C    -7.0548240   -0.7577410   -0.6746840  
O    -7.7573890   -0.6325030   -1.8601070  
C    -7.6243830   -1.0842430    0.5409750  
H    -7.9627680   -1.6696530    3.5309060  
H    -3.8537720   -0.8785270    2.9626490  
H    -5.9338120   -0.2665000   -2.6750980  
H    -8.6787920   -0.8960650   -1.7209580  
H    -8.6959830   -1.2548940    0.6211650  
H    -5.5418650   -1.5028650    4.7295800  
C     3.1696680   -3.7566130   -2.6859930  
C     4.1984500   -4.4786120   -2.1906480  
C     4.7019810   -3.6964070   -1.0658320  
C     3.8223000   -2.4850350   -1.0292880  
N     2.9395270   -2.5292160   -1.9842100  
C     3.9929970   -1.4155830   -0.0346980  
C     5.0029850   -1.6279590    0.8684850  
O     5.2815780   -0.7930010    1.8985270  
C     5.8885200   -2.8186680    0.8467990  
O     6.7588380   -2.9130840    1.7206370  
C     5.7008500   -3.8601750   -0.1820840  
H     4.5843040   -5.4270180   -2.5380990  
H     6.0270100   -1.2314850    2.3682010  
H     6.3769360   -4.7097470   -0.1604930  
H     2.5267430   -3.9933710   -3.5252590  
