60


C    -2.9680480    1.5654430    0.5457550  
C    -1.6700440    1.1972350    0.3788680  
C    -1.6575090   -0.1664480   -0.0820810  
C    -3.0061320   -0.5863650   -0.1698100  
N    -3.8135190    0.4895740    0.2393770  
C    -3.3782340   -1.8266480   -0.6930340  
C    -2.3609260   -2.6651560   -1.1200610  
O    -2.6612360   -3.8849320   -1.6403820  
C    -1.0005980   -2.2765270   -1.0373190  
O    -0.1168530   -3.2384210   -1.4740450  
C    -0.6167580   -1.0405110   -0.4974810  
H    -0.8122920    1.8159830    0.5924930  
H    -4.4057240   -2.1549680   -0.7751100  
H    -1.8058400   -4.2882350   -1.8814300  
H     0.5248620   -2.8127270   -2.0811100  
H    -3.3955120    2.4850690    0.9155090  
C     1.6977010    0.5050810    2.9247550  
C     2.9405470    0.6294350    2.4074330  
C     2.8239530    0.1751030    1.0249820  
C     1.3745120   -0.1735420    0.8745500  
N     0.7321640    0.0156780    1.9873660  
C     0.8095350   -0.6731470   -0.3816550  
C     1.7184380   -0.8317740   -1.3847890  
O     1.3926070   -1.3306900   -2.6104770  
C     3.1643820   -0.5077350   -1.2705060  
O     3.8806820   -0.7446930   -2.2435060  
C     3.7037520    0.0500120    0.0036110  
H     3.8403170    0.9708510    2.8982850  
H     2.2386900   -1.3320320   -3.1159860  
H     1.3651370    0.7304730    3.9306170  
C     7.2068180   -1.2272960    2.4976290  
C     5.9430480   -1.1208340    2.0216400  
C     6.0264150   -0.1410550    0.9450000  
C     7.4783230    0.2398120    0.9137190  
N     8.1581230   -0.3969830    1.8224890  
C     7.9945100    1.1865860   -0.0387770  
C     7.1248850    1.7328400   -0.9201260  
O     7.4657230    2.6356300   -1.8513580  
C     5.6595800    1.3891330   -0.9092790  
O     4.9297710    1.9912750   -1.6899480  
C     5.1382710    0.3825280    0.0636820  
H     5.0574110   -1.6419090    2.3549170  
H     9.0482360    1.4418540   -0.0332070  
H     6.6336110    2.8642780   -2.3200320  
H     7.5601440   -1.8582210    3.3046290  
C    -6.7124760    3.5422770   -1.1003480  
C    -5.5372010    2.8953730   -0.9010730  
C    -5.8965440    1.6650740   -0.2022000  
C    -7.3712660    1.7490820   -0.0596940  
N    -7.8451010    2.8457010   -0.5870630  
C    -8.1455980    0.7056870    0.5666040  
C    -7.4858380   -0.3778320    1.0316150  
O    -8.0809410   -1.4278540    1.6279510  
C    -5.9934580   -0.5005160    0.9321920  
O    -5.4681900   -1.4787930    1.4529260  
C    -5.2053090    0.5821560    0.2485940  
H    -4.5481370    3.1971200   -1.2135890  
H    -9.2223220    0.8048460    0.6464990  
H    -7.3531460   -2.0276940    1.8982180  
H    -6.8719940    4.4905260   -1.5995640  
