60


C    -0.7657400    0.7361870    1.0745500  
C    -0.4701700    1.9580220    0.5022910  
C    -1.6983600    2.4101850   -0.1307860  
C    -2.6764700    1.4117440    0.0877000  
N    -2.0830000    0.3850610    0.8303730  
C    -3.9974370    1.5296010   -0.3608570  
C    -4.3282880    2.6674210   -1.0809770  
O    -5.6002950    2.8360190   -1.5395540  
C    -3.3536830    3.6669180   -1.3327310  
O    -3.8289410    4.7420090   -2.0566120  
C    -2.0568680    3.5531110   -0.8689910  
H    -4.7593140    0.7874590   -0.1542110  
H    -5.6348170    3.7057880   -1.9747990  
H    -3.1677760    5.4505860   -2.0513990  
H    -1.3437700    4.3538730   -1.0300310  
H    -0.1471140    0.0731800    1.6622320  
C     3.5267510    0.1942720    0.1038460  
C     4.2852700    1.3370310    0.2933740  
C     3.3857980    2.4409080    0.4775280  
C     2.0213250    1.8775940    0.3965550  
N     2.1813400    0.5260760    0.1736350  
C     0.8527260    2.5879410    0.5192210  
C     1.0158650    4.0449750    0.7209050  
O     0.0724490    4.8113160    0.8372510  
C     2.4659250    4.6628470    0.8027710  
O     2.5641250    5.8739370    0.9489690  
C     3.6058340    3.7733530    0.6859720  
H     5.3573520    1.3910140    0.4125970  
H     4.6005650    4.2028590    0.7533880  
H     1.4492810   -0.1666800    0.0907240  
C     7.3074430   -1.4737630   -1.4053990  
C     7.0389140   -2.7953260   -1.2775130  
C     5.6902440   -2.9110250   -0.7605270  
C     5.1974300   -1.5261890   -0.5768900  
N     6.2278830   -0.7056970   -0.9575510  
C     3.9404660   -1.1788100   -0.1237980  
C     3.0039690   -2.3001830    0.0769360  
O     1.8090600   -2.1536450    0.3026790  
C     3.5440330   -3.7739370   -0.0097380  
O     2.7910200   -4.6831430    0.2934380  
C     4.9151290   -3.9884140   -0.4672230  
H     7.6984400   -3.6149690   -1.5219160  
H     5.2633860   -5.0116650   -0.5658480  
H     8.1977270   -0.9802470   -1.7711450  
H     6.1119080    0.2839200   -1.1249920  
C    -2.6252820   -1.2591470    2.6040590  
C    -2.7036310   -0.7603000    1.3421990  
C    -3.4551920   -1.7704890    0.5719490  
C    -3.7717060   -2.8134250    1.5889870  
N    -3.2847850   -2.5081520    2.7606920  
C    -4.5231670   -3.9912870    1.2443840  
C    -4.8935040   -4.1535330   -0.0489620  
O    -5.5851000   -5.2101480   -0.5092500  
C    -4.5475470   -3.1404800   -1.1017190  
O    -4.9127790   -3.3587360   -2.2555470  
C    -3.8000650   -1.9206600   -0.7196690  
H    -4.7568490   -4.7253210    2.0075730  
H    -5.6992020   -5.0486240   -1.4712170  
H    -3.5873810   -1.2009110   -1.5036960  
H    -2.1288900   -0.8129890    3.4570130  
