60


C    -1.2787360   -0.8714950    3.3424210  
C    -2.5678570   -0.7014400    2.9109760  
C    -2.5025120    0.0110240    1.6666710  
C    -1.1277860    0.2587890    1.4079410  
N    -0.4067260   -0.2577270    2.4641970  
C    -0.6593750    0.9483180    0.2666210  
C    -1.6473130    1.2819060   -0.6739830  
O    -1.2983110    1.8659250   -1.8514310  
C    -3.0169120    1.0265110   -0.4369080  
O    -3.8427160    1.4642660   -1.4661180  
C    -3.4877910    0.4118330    0.7234590  
H    -3.4582740   -1.0518400    3.4121410  
H     0.5620320   -0.5297680    2.3345330  
H    -2.1299680    2.1029060   -2.3004020  
H    -4.7136480    1.6858100   -1.1011200  
H    -0.9021490   -1.3783640    4.2199580  
C     3.1424680   -1.2643480    0.5851520  
C     4.0756350   -0.3631840    0.1462510  
C     3.2867300    0.8587690   -0.1253950  
C     1.8766370    0.4741130    0.2090430  
N     1.8287980   -0.7566680    0.6521220  
C     0.7441350    1.3720370    0.0563180  
C     1.0668870    2.6533730   -0.3092650  
O     0.1842820    3.6530800   -0.3977280  
C     2.4633810    3.0668510   -0.6615220  
O     2.6424620    4.2356570   -1.0055050  
C     3.5689310    2.0962830   -0.5704300  
H     0.7066070    4.4306250   -0.6992750  
H     4.5617300    2.4504660   -0.8123120  
H     3.3194690   -2.2922750    0.8643350  
C     6.1255870   -4.1257590   -0.7439470  
C     7.4207540   -3.7477810   -0.8064110  
C     7.4115450   -2.3138650   -0.5346850  
C     5.9647800   -1.9840090   -0.3273790  
N     5.2271880   -3.0462290   -0.4545060  
C     5.4998890   -0.6205320   -0.0358070  
C     6.4962390    0.3149530    0.0659430  
O     6.2855650    1.6098990    0.3823310  
C     7.9430580    0.0050600   -0.1334070  
O     8.7481320    0.9309180   -0.0066750  
C     8.3655460   -1.3704800   -0.4520640  
H     8.2900830   -4.3563440   -1.0129210  
H     7.1840660    2.0136890    0.3911530  
H     9.4274130   -1.5471140   -0.5936130  
H     5.7065920   -5.1145580   -0.8849920  
C    -5.6099690    0.3520500    2.1266180  
C    -4.9161660    0.1852440    0.9622920  
C    -5.9253130   -0.3821030    0.0331970  
C    -7.1732900   -0.4579340    0.8474960  
N    -6.9784600   -0.0216780    2.0616300  
C    -8.4035600   -0.9675800    0.3018350  
C    -8.3947360   -1.4148260   -0.9770920  
O    -9.4671140   -1.9225620   -1.6089090  
C    -7.1484860   -1.3790040   -1.8129010  
O    -7.2166470   -1.8021760   -2.9662000  
C    -5.8990210   -0.8342140   -1.2362560  
H    -9.2956560   -0.9982830    0.9176740  
H    -9.1507330   -2.1582880   -2.5084780  
H    -5.0248330   -0.8133240   -1.8782460  
H    -5.2238210    0.7413620    3.0606400  
