58


C     2.3955620   -0.6427150   -0.0379170  
C     1.0793890   -0.2754730   -0.1102630  
C     1.0556110    1.1873180   -0.1604170  
C     2.4687000    1.6299450   -0.1269080  
N     3.2499670    0.4595150   -0.0247590  
C     2.8564200    2.9224360   -0.2209510  
C     1.8214890    3.9609910   -0.3294890  
O     2.0983410    5.1443530   -0.4234960  
C     0.3240010    3.5124280   -0.3276870  
O    -0.5534010    4.3557210   -0.4244900  
C     0.0366780    2.0787300   -0.2337870  
H     3.8839970    3.2551850   -0.2453510  
H    -0.9952360    1.7534800   -0.2399520  
H     2.8438850   -1.6233250    0.0064490  
C    -0.0457010   -1.1793340   -0.1431050  
C    -0.0629530   -2.5453740   -0.0442810  
C    -1.4465820   -2.9303680   -0.1538470  
C    -2.1856290   -1.6354470   -0.3166070  
N    -1.3647450   -0.6277220   -0.3078940  
C    -3.6386670   -1.5681850   -0.4542340  
C    -4.2745930   -2.7789500   -0.4679000  
O    -5.5975130   -2.9224020   -0.6477850  
C    -3.5597770   -4.0898690   -0.3020190  
O    -4.2481740   -5.1125750   -0.3314700  
C    -2.1032010   -4.1121960   -0.1361750  
H     0.7744200   -3.2151210    0.0947790  
H    -5.7569280   -3.8937830   -0.6051560  
H    -1.6262370   -5.0800290   -0.0186850  
C    -3.7898560    0.8251420   -1.2096670  
C    -4.3076620   -0.2713420   -0.5687570  
C    -5.5847530    0.1595290    0.0049070  
C    -5.7533930    1.5834050   -0.3826000  
N    -4.6381640    1.9097320   -1.1323720  
C    -6.8031410    2.3682080   -0.0343410  
C    -7.8552930    1.7896830    0.7957200  
O    -8.8410260    2.4137940    1.1569560  
C    -7.6901350    0.2940520    1.2444500  
O    -8.5476600   -0.2088740    1.9534870  
C    -6.5070450   -0.4489940    0.7956520  
H    -6.8936090    3.4083370   -0.3321680  
H    -6.4249920   -1.4825970    1.1056590  
H    -2.8511380    0.9069350   -1.7363710  
H    -4.4223720    2.8352310   -1.4713200  
C     4.6208490    0.3363510    0.0895820  
C     5.5909780    1.2835480    0.3094480  
C     6.8209630    0.5432310    0.3351960  
C     6.4096960   -0.8851140    0.1105390  
N     5.1161670   -0.9925830   -0.0255310  
C     7.3656870   -1.9526150    0.0631670  
C     8.6687090   -1.6225480    0.2405870  
O     9.6732130   -2.4976380    0.2265700  
C     9.1198910   -0.1879010    0.4786580  
O    10.3306680   -0.0163880    0.6263060  
C     8.1260080    0.8763120    0.5163180  
H     5.4890760    2.3409120    0.4850350  
H     7.0438970   -2.9739400   -0.1055530  
H    10.4854740   -1.9597250    0.3822700  
H     8.4780900    1.8886100    0.6859770  
