62


C     1.1170270   -1.7588310   -2.6186090  
C     2.3876520   -1.5691660   -2.1228340  
C     2.3035200   -0.5688110   -1.1034300  
C     0.9406650   -0.1884190   -1.0268720  
N     0.2484540   -0.9293540   -1.9599830  
C     0.4374290    0.8361750   -0.1867490  
C     1.4094640    1.4989750    0.5587620  
O     1.0498280    2.5432880    1.3866260  
C     2.7808100    1.1565730    0.5308910  
O     3.5352660    1.9184240    1.3541770  
C     3.2717850    0.0900120   -0.2718260  
H     3.2703680   -2.0645980   -2.4933840  
H    -0.7486300   -0.8704330   -2.1063980  
H     1.8789950    2.8448370    1.8093300  
H     4.4957830    1.6131140    1.2460480  
H     0.7670660   -2.4203470   -3.3981990  
C    -3.2492170   -1.6790640    0.2936620  
C    -1.9578450   -1.2319250    0.2410350  
C    -2.0020910    0.1799100   -0.0390540  
C    -3.3702320    0.5356690   -0.1363980  
N    -4.1258410   -0.6174790    0.0649710  
C    -3.8043290    1.8523090   -0.3202810  
C    -2.8258400    2.8293910   -0.3912040  
O    -3.1731510    4.1332580   -0.5505490  
C    -1.4431720    2.5059550   -0.3009890  
O    -0.6119450    3.5929850   -0.4271050  
C    -0.9996590    1.1871850   -0.1608160  
H    -1.0755120   -1.8378320    0.3894030  
H    -4.8498840    2.1238500   -0.4018080  
H    -2.3338500    4.6319180   -0.5587240  
H     0.1050010    3.5068550    0.2403530  
H    -3.6411830   -2.6764230    0.4359670  
C    -6.7725420   -1.9518740    3.2097330  
C    -7.9571750   -1.8751320    2.5506270  
C    -7.6797180   -1.3845450    1.2157790  
C    -6.2128830   -1.1824590    1.1583900  
N    -5.7192970   -1.5574760    2.3881570  
C    -5.5337860   -0.7180700    0.0688760  
C    -6.3111440   -0.4092030   -1.1428820  
O    -5.7992360   -0.0348850   -2.1832300  
C    -7.8765780   -0.5866750   -1.0802630  
O    -8.5309810   -0.2822200   -2.0641340  
C    -8.4765180   -1.1020850    0.1500890  
H    -8.9295130   -2.1299300    2.9459370  
H    -9.5536590   -1.2343310    0.1696620  
H    -6.5703550   -2.2655070    4.2252590  
H    -4.7516030   -1.4719550    2.6607960  
C     4.6569280   -0.2796440   -0.2188570  
C     5.3519850   -1.3373120   -0.7779340  
C     6.7094640   -1.1975660   -0.3732570  
C     6.7314390    0.0418700    0.4752530  
N     5.5382760    0.5583130    0.5611030  
C     7.9327990    0.5326930    1.0815360  
C     9.0642960   -0.1815720    0.8594880  
O    10.2614240    0.1345810    1.3488440  
C     9.0836660   -1.4481920    0.0089100  
O    10.1872570   -1.9952390   -0.1048270  
C     7.8543780   -1.9134010   -0.5902150  
H     4.9568730   -2.1464050   -1.3693480  
H     7.9242410    1.4321450    1.6869200  
H    10.8604020   -0.5750380    1.0077610  
H     7.8931410   -2.8160870   -1.1911020  
