58


C    -2.7280850   -1.4261800    0.5067320  
C    -1.5415130   -0.7787840    0.5302000  
C    -1.7818120    0.5991100    0.1658420  
C    -3.2388880    0.7113280   -0.0810890  
N    -3.7761320   -0.5744300    0.1156000  
C    -3.8798910    1.8740260   -0.3416990  
C    -3.0817790    3.0919020   -0.4571230  
O    -3.5765290    4.1872740   -0.6660750  
C    -1.5260990    2.9825940   -0.3089640  
O    -0.8497520    3.9689610   -0.5352510  
C    -0.9407700    1.6740040    0.0813490  
H    -0.5812960   -1.2215410    0.7424530  
H    -4.9501440    1.9594810   -0.4800120  
H    -2.9511620   -2.4660010    0.6999600  
C     2.1842270   -0.7433440   -1.8439630  
C     3.3308890   -0.3069580   -1.2436060  
C     2.8589990    0.7097690   -0.2758960  
C     1.3755530    0.7224680   -0.4473000  
N     1.0026150   -0.1257980   -1.3668800  
C     0.5145590    1.6086870    0.3148860  
C     1.1396970    2.4432090    1.1986010  
O     0.4848110    3.2795610    2.0119590  
C     2.6291630    2.4780100    1.3617110  
O     3.1007280    3.2664710    2.1785250  
C     3.4724180    1.5696340    0.5561620  
H     1.1779120    3.7766210    2.4999040  
H     4.5467980    1.6476230    0.6877210  
H     2.1000880   -1.5063420   -2.6086310  
C     5.2265330   -0.9940060   -2.7638800  
C     4.6912440   -0.6993100   -1.5408940  
C     5.8067270   -0.9450110   -0.5980380  
C     6.9373290   -1.3731280   -1.4737360  
N     6.5825340   -1.4017220   -2.7302260  
C     8.2243190   -1.7180950   -0.9340050  
C     8.3821520   -1.6746030    0.4117320  
O     9.5261510   -1.9735600    1.0468940  
C     7.2536100   -1.2857630    1.3230560  
O     7.4643350   -1.2775920    2.5338520  
C     5.9399380   -0.9267320    0.7411030  
H     9.0280050   -2.0131810   -1.5994300  
H     9.3358280   -1.8601840    2.0036400  
H     5.1509290   -0.6674560    1.4399440  
H     4.7288220   -0.9210270   -3.7236590  
C    -6.3668230   -2.9724380    2.7718410  
C    -5.2884190   -2.2870820    2.3158100  
C    -5.7003780   -1.7555160    1.0213930  
C    -7.0961070   -2.2447660    0.8559940  
N    -7.4805520   -2.9531010    1.8820860  
C    -7.8907130   -1.9245060   -0.3031000  
C    -7.3302150   -1.1544240   -1.2623580  
O    -7.9599570   -0.7734370   -2.3870040  
C    -5.9169580   -0.6581600   -1.1561690  
O    -5.4546480   -0.0390390   -2.1077840  
C    -5.1173040   -0.9713570    0.0753710  
H    -4.3422590   -2.1312590    2.8140180  
H    -8.9062530   -2.2958310   -0.3815660  
H    -7.3008910   -0.2700530   -2.9108000  
H    -6.4663570   -3.5020950    3.7116900  
