60


C     1.2362100    2.4711810   -0.0026640  
C     0.1497810    1.6424780    0.2443200  
C     0.6927060    0.3071740    0.4030430  
C     2.0925530    0.4085990    0.2327960  
N     2.3806790    1.7341870   -0.0074830  
C     2.9823600   -0.7005060    0.3169500  
C     2.3666610   -1.9406010    0.5888870  
O     3.1101020   -3.0724970    0.6773900  
C     0.9684170   -2.0453100    0.7849710  
O     0.5372120   -3.3241340    1.0710080  
C     0.1327460   -0.9478180    0.7086120  
H     3.3423180    2.0247160   -0.1766900  
H     2.4930870   -3.8083520    0.8464530  
H    -0.4324900   -3.3642260    1.0280000  
H    -0.9262260   -1.0648620    0.9146460  
H     1.2560390    3.5325280   -0.2049010  
C    -1.2365840    2.0272910    0.2981850  
C    -1.8555620    3.2314000    0.5312310  
C    -3.2792480    3.0356880    0.4539120  
C    -3.4761450    1.6000000    0.1571670  
N    -2.2158780    1.0280390    0.1233610  
C    -4.6749090    0.9776720   -0.0392000  
C    -5.8857380    1.8171300    0.1091390  
O    -7.0114300    1.3550680    0.0733050  
C    -5.7003380    3.3518730    0.4033630  
O    -6.7003670    4.0513950    0.4760180  
C    -4.3496840    3.8713080    0.5874680  
H    -1.3591920    4.1579640    0.7829190  
H    -4.2432910    4.9306860    0.7998410  
H    -2.0328500    0.2063710   -0.4370410  
C    -3.1883000   -2.5837030    2.0872480  
C    -3.5783780   -3.5533790    1.2154610  
C    -4.2835230   -2.8972440    0.1283540  
C    -4.2425480   -1.4472550    0.4275880  
N    -3.5465160   -1.3253980    1.6214380  
C    -4.7886180   -0.4590090   -0.3438400  
C    -5.4647530   -0.9004600   -1.5882680  
O    -5.8736150   -0.1180070   -2.4252770  
C    -5.5903290   -2.4419340   -1.8768290  
O    -6.2228230   -2.8054730   -2.8549820  
C    -4.9241060   -3.3783310   -0.9702810  
H    -3.4467870   -4.6189840    1.3384880  
H    -4.9853610   -4.4374920   -1.2008070  
H    -2.6782270   -2.6788110    3.0375320  
H    -3.4477740   -0.4603860    2.1306740  
C     4.4109930   -0.5587280    0.1284460  
C     5.4184080   -1.4910290    0.1707570  
C     6.6370750   -0.7774810   -0.0921880  
C     6.2085030    0.6481620   -0.2854710  
N     4.9212640    0.7708920   -0.1570550  
C     7.1526800    1.6939430   -0.5731890  
C     8.4575000    1.3434380   -0.6644620  
O     9.4506520    2.1970300   -0.9249020  
C     8.9259580   -0.0902580   -0.4740610  
O    10.1367580   -0.2890730   -0.5798070  
C     7.9448690   -1.1310260   -0.1833500  
H     5.3204710   -2.5463840    0.3615410  
H     6.8196910    2.7168430   -0.7095050  
H    10.2683860    1.6465660   -0.9261010  
H     8.3114740   -2.1442560   -0.0534600  
