62


C    -0.9525370    0.1187030   -0.2738880  
C    -2.3225950    0.0179650   -0.5114920  
C    -2.8858210    1.3058120   -0.3233770  
C    -1.8082860    2.1840870    0.0169060  
N    -0.6651290    1.4351980    0.0520050  
C    -1.9860000    3.5549720    0.2356100  
C    -3.2705520    4.0542460    0.1047400  
O    -3.5085800    5.3740440    0.3188410  
C    -4.3602290    3.2046490   -0.2448750  
O    -5.5616260    3.8671480   -0.3189750  
C    -4.2072090    1.8349200   -0.4505290  
H    -2.8388800   -0.8861750   -0.7995870  
H     0.2815970    1.7446440    0.2224090  
H    -1.1710090    4.2214290    0.4962960  
H    -4.4642790    5.5197980    0.2020250  
H    -6.2768820    3.2096200   -0.3921180  
C     0.1059010   -0.8391780   -0.3217590  
C     0.1080500   -2.1661140   -0.6665520  
C     1.4714620   -2.5961230   -0.5433010  
C     2.2198790   -1.3736340   -0.0868320  
N     1.4168060   -0.3571650    0.0338610  
C     3.6619040   -1.3790330    0.1621220  
C     4.2710260   -2.5854940   -0.0496290  
O     5.5834990   -2.8097870    0.1600440  
C     3.5512380   -3.8163540   -0.5179440  
O     4.2324490   -4.8403740   -0.6605990  
C     2.1144470   -3.7703530   -0.7591300  
H    -0.7298980   -2.7700690   -0.9852890  
H     5.6989110   -3.7644460   -0.0616200  
H     1.6285040   -4.6808570   -1.0947300  
C     3.7843980    0.7762070    1.4614040  
C     4.3447810   -0.1658990    0.6161780  
C     5.6782070    0.3178920    0.3040160  
C     5.8488700    1.5431880    0.9966770  
N     4.6811000    1.7865970    1.6972640  
C     7.0103020    2.3189790    0.9118590  
C     8.0310320    1.8524450    0.0988810  
O     9.1896100    2.5646320   -0.0219000  
C     7.8777980    0.6358030   -0.6137780  
O     8.9748590    0.3008250   -1.3875910  
C     6.7271120   -0.1253490   -0.5265870  
H     4.5152060    2.5832030    2.2921300  
H     7.1329170    3.2552990    1.4468740  
H     9.7689930    2.0652720   -0.6229760  
H     8.8227510   -0.5623710   -1.7997310  
H     6.6473360   -1.0603440   -1.0705240  
H     2.8044240    0.7843310    1.9111440  
C    -6.3709500    1.2184240   -1.6710870  
C    -5.3710380    0.9995090   -0.7645650  
C    -5.7714180   -0.2647380   -0.1020580  
C    -7.0429750   -0.6501140   -0.7780240  
N    -7.3829450    0.2198550   -1.6889990  
C    -7.7628320   -1.8409470   -0.4102970  
C    -7.2657300   -2.5963550    0.5988840  
O    -7.8360900   -3.7260520    1.0470750  
C    -6.0033150   -2.2161500    1.3200350  
O    -5.6151180   -2.9486700    2.2276080  
C    -5.2749050   -0.9920360    0.9155310  
H    -8.6789530   -2.1015520   -0.9285820  
H    -7.2576970   -4.0429220    1.7749340  
H    -4.3645380   -0.7527960    1.4558090  
H    -6.4394290    2.0328330   -2.3842200  
