60


C     1.5558760   -0.2760780   -1.5583530  
C     0.7460190    0.8059350   -1.3886680  
C     1.1447040    1.4658790   -0.1697510  
C     2.2220350    0.7209550    0.3673280  
N     2.4551520   -0.3684600   -0.4900670  
C     2.9485060    1.1476420    1.4809490  
C     2.5597250    2.3427950    2.0657980  
O     3.2319600    2.8198380    3.1445190  
C     1.4657720    3.0983340    1.5656510  
O     1.2101260    4.2383700    2.2801960  
C     0.7135350    2.6654940    0.4677250  
H    -0.0446460    1.1037440   -2.0618590  
H     3.7890010    0.6029050    1.8905760  
H     2.8177540    3.6791380    3.3552990  
H     0.9890280    4.9466320    1.6267190  
H     1.5588490   -1.0384660   -2.3225760  
C    -3.3222410    1.1866710   -0.4436650  
C    -3.8943680    2.3445790   -0.9145980  
C    -2.9044790    3.3819620   -0.8277920  
C    -1.6790920    2.7469280   -0.2734400  
N    -2.0016660    1.4326170   -0.0673440  
C    -0.4860630    3.3887900   -0.0189530  
C    -0.5126050    4.8365560   -0.2211280  
O     0.3836090    5.5962350    0.1526380  
C    -1.7479240    5.5111210   -0.9240740  
O    -1.6667470    6.6910410   -1.2269600  
C    -2.9381880    4.7044810   -1.1560210  
H    -4.9068850    2.4594240   -1.2733110  
H    -3.8049460    5.1843090   -1.5988170  
H    -1.3899850    0.7090920    0.2869060  
C    -3.8539930   -0.1422220   -0.2919500  
C    -5.1022600   -0.6237850   -0.5776130  
C    -5.0615440   -2.0239500   -0.2214680  
C    -3.6640140   -2.2409930    0.2828430  
N    -2.9679480   -1.1426960    0.2380850  
C    -3.2177710   -3.5290850    0.7427380  
C    -4.1069830   -4.5501200    0.7061940  
O    -3.8341400   -5.7981940    1.1001480  
C    -5.5232080   -4.3637370    0.2036530  
O    -6.2558230   -5.3503930    0.2075520  
C    -5.9563720   -3.0379170   -0.2614370  
H    -5.9484060   -0.0851710   -0.9805160  
H    -2.2037170   -3.6586510    1.1036490  
H    -4.6626980   -6.3090270    0.9590060  
H    -6.9785340   -2.9428440   -0.6143320  
C     5.3057480   -2.1333870   -3.3665450  
C     4.3549100   -1.3191570   -2.8451010  
C     4.2027280   -1.7551490   -1.4604220  
C     5.1674940   -2.8764210   -1.3261750  
N     5.8109580   -3.0936130   -2.4408590  
C     5.3541500   -3.5869270   -0.0849930  
C     4.6151030   -3.2040570    0.9795630  
O     4.6927840   -3.7715600    2.1974500  
C     3.6067110   -2.0960760    0.8875250  
O     2.9152480   -1.8722040    1.8754540  
C     3.4504340   -1.3442260   -0.4040280  
H     3.8389470   -0.5013560   -3.3268090  
H     6.0740080   -4.3956590   -0.0276310  
H     4.0142020   -3.3219400    2.7449360  
H     5.7123410   -2.1211240   -4.3706810  
