62


C     0.4399370    0.4109310   -1.6317340  
C     1.6838500   -0.1347760   -1.4680830  
C     2.2707730    0.4769070   -0.3124850  
C     1.3112440    1.3867190    0.2006520  
N     0.1949720    1.3464700   -0.6334610  
C     1.5124880    2.1252470    1.3732840  
C     2.7140340    1.9446440    2.0408120  
O     2.9625410    2.6474040    3.1813760  
C     3.6897790    1.0354280    1.5589200  
O     4.8264020    1.0150090    2.3343190  
C     3.5015570    0.2990310    0.3803790  
H     2.1309190   -0.8772820   -2.1124680  
H     0.7671700    2.8001220    1.7790910  
H     3.8369350    2.3686220    3.5053010  
H     5.3932050    0.2664010    2.0869740  
H    -0.3095530    0.2328390   -2.3889460  
C    -4.0653280    0.1092530   -0.1240290  
C    -2.6782570    0.1105230   -0.2700840  
C    -2.2610040    1.4635980   -0.3435610  
C    -3.4279980    2.2761380   -0.2343130  
N    -4.4988930    1.4332430   -0.1049930  
C    -3.3835480    3.6754670   -0.2475420  
C    -2.1398670    4.2702150   -0.3844160  
O    -2.0338520    5.6252010   -0.4130390  
C    -0.9559740    3.4868140   -0.5154230  
O     0.1888500    4.2289930   -0.6752210  
C    -1.0021050    2.1004740   -0.4889840  
H    -2.0679130   -0.7767250   -0.3115520  
H    -5.4683430    1.6958200   -0.0005380  
H    -4.2690000    4.2948740   -0.1542140  
H    -1.0899820    5.8420340   -0.5130040  
H     0.9609780    3.6403270   -0.7177740  
C    -3.3541620   -4.2372560   -0.1392230  
C    -4.6056950   -4.7208110    0.0182900  
C    -5.4624820   -3.5421530    0.0982730  
C    -4.5189190   -2.3888780   -0.0334070  
N    -3.2960670   -2.8060880   -0.1726980  
C    -4.9885880   -0.9953340   -0.0022530  
C    -6.3467360   -0.8447100    0.1496030  
O    -6.9619850    0.3685760    0.1982120  
C    -7.2927000   -1.9683170    0.2793740  
O    -8.4956170   -1.7059010    0.4131610  
C    -6.7857330   -3.3543980    0.2471640  
H    -4.9257620   -5.7519470    0.0747670  
H    -7.9163680    0.1528970    0.3128310  
H    -7.5149590   -4.1531020    0.3454080  
H    -2.4273820   -4.7887910   -0.2388920  
C     5.8611490   -3.0765370    2.1487130  
C     4.9428290   -2.0886970    1.9953670  
C     5.1449040   -1.5909530    0.6357100  
C     6.2584890   -2.4324420    0.1109820  
N     6.6744750   -3.2942200    0.9987290  
C     6.7653310   -2.2743710   -1.2273770  
C     6.1923970   -1.3287870   -2.0052020  
O     6.5564990   -1.0749730   -3.2730520  
C     5.0796290   -0.4439840   -1.5026800  
O     4.6723720    0.4204640   -2.2719100  
C     4.5473030   -0.6165750   -0.1075200  
H     4.1876290   -1.7653140    2.6979860  
H     7.5747470   -2.9032740   -1.5809030  
H     5.9933000   -0.3238270   -3.5620700  
H     6.0217110   -3.7021600    3.0189360  
