60


C    -4.2291850   -0.0892950   -0.1381760  
C    -2.8422150    0.0170650   -0.2767310  
C    -2.5237310    1.3939890   -0.3623960  
C    -3.7499190    2.1175470   -0.2596500  
N    -4.7533840    1.1987050   -0.1322800  
C    -3.8101320    3.5161830   -0.2675770  
C    -2.6109920    4.1999530   -0.3837550  
O    -2.5980800    5.5535880   -0.3919700  
C    -1.3667780    3.5083880   -0.5176420  
O    -0.2832570    4.3339600   -0.7050590  
C    -1.3147190    2.1216120   -0.5118040  
H    -2.1444560   -0.8048780   -0.2510030  
H    -5.7328020    1.3752080    0.0498360  
H    -4.7396920    4.0665150   -0.1735990  
H    -1.6650210    5.8295640   -0.4622270  
H     0.5081170    3.9688000   -0.2645050  
C     0.1894520    0.5207330   -1.7081550  
C     1.4818910    0.1153190   -1.6764190  
C     2.1277490    0.7988260   -0.5736060  
C     1.0771520    1.6299370    0.0546420  
N    -0.0790840    1.4404340   -0.6823970  
C     1.2513800    2.4070170    1.1659900  
C     2.5638600    2.4185490    1.7901460  
O     2.8178540    3.0194910    2.8221990  
C     3.7190680    1.6050000    1.1017790  
O     4.8432390    1.7018690    1.5595600  
C     3.4139010    0.7655220   -0.0916360  
H     1.9364210   -0.6051430   -2.3389450  
H     0.4350960    2.9166150    1.6694550  
H    -0.6093150    0.2462150   -2.3830390  
C     4.7103230   -0.0081080   -2.0975550  
C     4.4916910    0.0258480   -0.7458030  
C     5.5303290   -0.8224290   -0.1453850  
C     6.3443190   -1.3405850   -1.2720270  
N     5.7880400   -0.8076690   -2.4225770  
C     7.4086790   -2.1719220   -1.1490440  
C     7.7867610   -2.6174860    0.1888300  
O     8.7277600   -3.3654890    0.4028350  
C     6.9226820   -2.1098910    1.3980420  
O     7.1979350   -2.4908170    2.5234580  
C     5.8045610   -1.1932240    1.1299100  
H     7.9868860   -2.5306710   -1.9950560  
H     5.2479930   -0.8277350    1.9845000  
H     4.1744850    0.5183530   -2.8762120  
H     6.1768390   -0.9090020   -3.3475780  
C    -3.6692940   -4.5085800   -0.7457660  
C    -3.4462700   -3.1692490   -0.7909550  
C    -4.6494280   -2.5569520   -0.2423930  
C    -5.5146310   -3.7158900    0.0760750  
N    -4.9375290   -4.8549890   -0.2062150  
C    -6.8382330   -3.5634380    0.6249360  
C    -7.3009560   -2.3090560    0.8195300  
O    -8.5322600   -2.0257610    1.2897970  
C    -6.4694440   -1.1109380    0.4962410  
O    -7.0095430   -0.0096210    0.6512690  
C    -5.0523190   -1.2675260    0.0096170  
H    -2.5811100   -2.6670970   -1.1961600  
H    -7.4367670   -4.4400200    0.8466870  
H    -8.5947210   -1.0481450    1.3054860  
H    -3.0107440   -5.3032180   -1.0756410  
