58


C     0.2049620   -2.9132550   -0.5570320  
C    -0.4997020   -3.7811580   -1.3578940  
C    -1.8634830   -3.3307040   -1.3900350  
C    -1.9209480   -2.1136640   -0.5398180  
N    -0.6469530   -1.9254330   -0.0653460  
C    -3.0624060   -1.4001720   -0.2809760  
C    -4.2940620   -1.8410060   -0.9724780  
O    -5.3292410   -1.1989560   -0.9417990  
C    -4.2555220   -3.1549640   -1.8299280  
O    -5.2938590   -3.5642450   -2.3262830  
C    -2.9736880   -3.8319720   -2.0037480  
H    -0.1036170   -4.6490840   -1.8648810  
H    -2.9523200   -4.7322060   -2.6102370  
H    -0.3113230   -1.1475860    0.4869830  
C    -0.8245450    2.4998340    0.0971220  
C    -1.2348820    1.2618100   -0.3443470  
C    -2.3039450    0.8636140    0.5367220  
C    -2.4376770    2.0078690    1.4882740  
N    -1.5802840    2.9510400    1.2345930  
C    -3.4335130    2.0228940    2.5279030  
C    -4.2522660    0.9508920    2.6226560  
O    -5.2176060    0.8192600    3.5438160  
C    -4.1182740   -0.2451400    1.7112950  
O    -4.8186970   -1.2183830    1.9732280  
C    -3.1202790   -0.2305920    0.6029000  
H    -0.8496930    0.7312260   -1.1991430  
H    -3.5088660    2.8719850    3.1978240  
H    -5.6036630   -0.0718060    3.3880590  
C     1.7745550    1.8992200   -3.3974280  
C     2.5084530    3.0334730   -3.4084690  
C     2.0360330    3.7987310   -2.2631750  
C     0.9670390    2.9389670   -1.6482830  
N     0.8314330    1.8346330   -2.3224650  
C     0.2160930    3.3461490   -0.4550110  
C     0.5771820    4.5719630    0.0702720  
O     0.0474960    5.1365020    1.1510810  
C     1.6548120    5.4379830   -0.5429810  
O     1.8921200    6.5112990    0.0104050  
C     2.3707620    4.9931160   -1.7441440  
H     3.2802730    3.3302380   -4.1046570  
H     0.5226870    5.9962740    1.2465830  
H     3.1336880    5.6522180   -2.1468840  
H     1.8189580    1.0657990   -4.0882100  
C     1.5939490   -2.8889050   -0.1803410  
C     2.6110310   -3.7358820   -0.5270260  
C     3.7818850   -3.2221570    0.1450610  
C     3.2870510   -2.0131140    0.8860380  
N     2.0144780   -1.8258580    0.6923030  
C     4.1665010   -1.2080870    1.6917130  
C     5.4670830   -1.5790120    1.7612400  
O     6.3978530   -0.9287040    2.4677250  
C     5.9968600   -2.7926930    1.0262140  
O     7.1933480   -3.0462200    1.1514560  
C     5.0800890   -3.5996080    0.2099590  
H     2.5638430   -4.6074320   -1.1646270  
H     3.7840540   -0.3404640    2.2174040  
H     7.2334350   -1.4286030    2.3271220  
H     5.4956280   -4.4622450   -0.3014630  
