60


C    -0.1251430    1.5463240    0.1069310  
C     1.0925590    0.9080490   -0.0124450  
C     0.8622620   -0.5047050    0.0344040  
C    -0.6011610   -0.6798000    0.1513160  
N    -1.1315380    0.5842840    0.2091780  
C    -1.2788150   -1.8805500    0.1821790  
C    -0.4243350   -3.0615380    0.2376800  
O    -0.8406940   -4.2014840    0.4505650  
C     1.1323880   -2.9204820    0.0636480  
O     1.8040190   -3.9326610    0.1259940  
C     1.7290530   -1.5698150   -0.0558760  
H     2.0468090    1.3830410   -0.1662460  
H    -2.1173300    0.8088260    0.1562580  
C     4.9665420    0.4942870    2.2337790  
C     3.7652640    0.0259220    1.8004630  
C     4.0072080   -0.7385980    0.5946830  
C     5.4704830   -0.6833550    0.3651910  
N     5.9877920    0.1004030    1.3806700  
C     6.1309940   -1.3189830   -0.6371810  
C     5.3539090   -2.1205680   -1.5715470  
O     5.8532760   -2.7633810   -2.4814690  
C     3.7931500   -2.1415930   -1.4048470  
O     3.1223930   -2.6592050   -2.2777020  
C     3.1781640   -1.4576200   -0.2307300  
H     2.8112180    0.1792990    2.2810950  
H     7.2088820   -1.2809850   -0.7608480  
H     5.1939760    1.0916300    3.1068940  
H     6.9709610    0.2599330    1.5360640  
C     2.3019780    5.2623420    0.7551930  
C     1.9399150    3.9517760    0.7367410  
C     0.5430340    3.9469170    0.3413410  
C     0.2182130    5.3995040    0.1746480  
N     1.2546430    6.1584470    0.4022340  
C    -1.0950270    5.8532330   -0.1907700  
C    -2.0627200    4.9207690   -0.3445200  
O    -3.3393460    5.2066970   -0.6458120  
C    -1.7862480    3.4571750   -0.1612000  
O    -2.7560340    2.7004550   -0.2421130  
C    -0.3962280    2.9734240    0.1101470  
H     2.5492440    3.1028800    1.0072360  
H    -1.2895550    6.9131850   -0.3095820  
H    -3.8131980    4.3474420   -0.6575400  
H     3.2697880    5.6763360    1.0132000  
C    -4.3816750    0.0401450   -2.4421140  
C    -3.2007490   -0.4005500   -1.9001600  
C    -3.5288450   -1.2122040   -0.7584570  
C    -4.9466670   -1.2348120   -0.6728080  
N    -5.4353440   -0.4485310   -1.6971100  
C    -5.6436360   -1.9831570    0.2810690  
C    -4.8851080   -2.7500280    1.1508030  
O    -5.4918370   -3.5257140    2.0883800  
C    -3.4645250   -2.7510890    1.0941940  
O    -2.8746600   -3.5502150    2.0437240  
C    -2.7572770   -1.9620880    0.1809750  
H    -2.2160570   -0.1919450   -2.2926370  
H    -6.4114200   -0.3260460   -1.9165770  
H    -6.7270650   -2.0070370    0.3389200  
H    -4.7675170   -3.9990980    2.5421800  
H    -2.1357140   -4.0277750    1.5955780  
H    -4.5605620    0.6621710   -3.3077160  
