62


C     1.4082200    0.2080260   -1.1798780  
C     2.7566200    0.2003590   -0.9059680  
C     3.0025130    1.3391670   -0.0406170  
C     1.7631570    1.9911510    0.1613270  
N     0.7899380    1.2822780   -0.5591580  
C     1.6301420    3.1124450    0.9847220  
C     2.7780050    3.6087730    1.5868670  
O     2.6963220    4.7041220    2.3965010  
C     4.0340820    2.9942410    1.3632010  
O     5.0857730    3.6109140    2.0109790  
C     4.1569290    1.8735080    0.5592560  
H     0.6860180    3.6134540    1.1502480  
H     3.5968230    4.9009680    2.7070920  
H     5.9108310    3.1455440    1.8084240  
H     5.1321720    1.4214250    0.3972080  
H     0.8222160   -0.5007920   -1.7424430  
C    -2.5039660   -1.4432370    0.0402420  
C    -3.5943010   -0.6371040   -0.1171120  
C    -3.0087580    0.6947780   -0.4045930  
C    -1.5414630    0.4634570   -0.3798960  
N    -1.2588060   -0.7827940   -0.1272240  
C    -0.5914860    1.5437180   -0.6100370  
C    -1.1086920    2.7836880   -0.8571020  
O    -0.3621530    3.8700090   -1.1290470  
C    -2.5753200    3.0369410   -0.8488910  
O    -2.9585380    4.1855310   -1.0845030  
C    -3.5165960    1.9231050   -0.6055150  
H    -1.0135890    4.5959660   -1.2570040  
H    -4.5755650    2.1476710   -0.6430510  
H    -2.4965920   -2.5094210    0.2333750  
C    -5.4960220   -3.2067380    2.9063030  
C    -6.7824670   -3.1291380    2.4417560  
C    -6.7608770   -2.2805240    1.2843590  
C    -5.4153990   -1.8751380    1.0890980  
N    -4.6669130   -2.4645550    2.0856530  
C    -5.0030530   -0.9980680    0.0554150  
C    -6.0232930   -0.5417720   -0.7891660  
O    -5.7282670    0.2886940   -1.8341590  
C    -7.3698630   -0.9447930   -0.6094580  
O    -8.2350220   -0.4012090   -1.5420670  
C    -7.7505370   -1.8034020    0.4038510  
H    -7.6458600   -3.6178520    2.8716060  
H    -3.6902840   -2.2760610    2.2522140  
H    -6.5593210    0.4397750   -2.3189350  
H    -9.1145950   -0.7926280   -1.4371100  
H    -8.7928050   -2.0930470    0.5202950  
H    -5.0900870   -3.7406860    3.7538060  
C     3.7490180   -1.3237630   -2.6743520  
C     3.7007150   -0.7722050   -1.4286760  
C     4.7842820   -1.4673250   -0.6922590  
C     5.3766900   -2.3947620   -1.6961020  
N     4.7630590   -2.3079120   -2.8437390  
C     6.4748390   -3.2645120   -1.3632780  
C     6.9399100   -3.2444580   -0.0906340  
O     7.9566440   -4.0058190    0.3567900  
C     6.3393560   -2.3496840    0.9504310  
O     6.8157960   -2.3819850    2.0859560  
C     5.2155690   -1.4600690    0.5830220  
H     6.8945160   -3.9192670   -2.1192200  
H     8.0538770   -3.7720450    1.3056410  
H     4.7994550   -0.8372540    1.3685950  
H     3.1196890   -1.0769220   -3.5209580  
