64


C    -1.2539300   -0.9271320   -0.4161670  
C     0.0255720   -1.4270050   -0.5725640  
C     0.9317670   -0.3211110   -0.5617560  
C     0.1499390    0.8493280   -0.3773820  
N    -1.1709130    0.4548360   -0.2635130  
C     0.6725800    2.1518300   -0.3150940  
C     2.0640600    2.2461240   -0.4362450  
O     2.6656360    3.4631040   -0.3816400  
C     2.8664540    1.0929600   -0.6025380  
O     4.2205480    1.3792420   -0.7085220  
C     2.3476240   -0.2042370   -0.6569710  
H     0.2794550   -2.4752320   -0.6331430  
H    -1.9447670    1.0891190   -0.4048510  
H     3.6118800    3.3162260   -0.5592870  
H     4.6561090    0.6737270   -1.2121770  
C    -2.5261180   -1.6052790   -0.3535320  
C    -2.9155230   -2.8303540   -0.8570780  
C    -4.2893940   -3.0253470   -0.5107940  
C    -4.7042650   -1.8748120    0.2125210  
N    -3.6274330   -1.0077290    0.2642720  
C    -5.9963160   -1.7315610    0.7285440  
C    -6.8935620   -2.7651730    0.5026480  
O    -8.1665660   -2.6782340    0.9863670  
C    -6.5026140   -3.9161930   -0.2330280  
O    -7.5106220   -4.8509110   -0.3795810  
C    -5.2246460   -4.0557030   -0.7402220  
H    -2.2933080   -3.4883680   -1.4479740  
H    -3.5472690   -0.2496320    0.9264790  
H    -6.3163130   -0.8563350    1.2847080  
H    -8.6307140   -3.4909340    0.7210540  
H    -7.1772470   -5.6090500   -0.8816930  
H    -4.9476250   -4.9477850   -1.2984940  
C     2.9797220   -2.4784630   -1.6129180  
C     3.2041500   -1.3799490   -0.8317190  
C     4.4613380   -1.7136140   -0.1149440  
C     4.8322590   -3.0619810   -0.6312630  
N     3.9653620   -3.4931010   -1.5073150  
C     6.0097610   -3.7498790   -0.1728280  
C     6.7668620   -3.1512300    0.7785770  
O     7.8851200   -3.6839400    1.3020170  
C     6.4043130   -1.8086720    1.3401480  
O     7.1390670   -1.3265190    2.2022700  
C     5.1990940   -1.1114680    0.8396960  
H     6.2576870   -4.7249070   -0.5777330  
H     8.2026250   -3.0255120    1.9581800  
H     4.9819290   -0.1353100    1.2601900  
H     2.1504810   -2.6318880   -2.2925080  
C    -2.0391070    3.1643490    3.0133090  
C    -2.5327920    4.3403880    2.5113250  
C    -1.8999140    4.5566530    1.2401230  
C    -1.0255760    3.4612100    1.0207730  
N    -1.1396830    2.6223700    2.1119670  
C    -0.2079230    3.3299600   -0.1234260  
C    -0.3048010    4.3551920   -1.0655160  
O     0.4175700    4.2908840   -2.2181190  
C    -1.1744460    5.4593600   -0.8597050  
O    -1.1520780    6.3784750   -1.8939570  
C    -1.9673480    5.5721990    0.2658040  
H    -3.2602560    4.9807040    2.9912550  
H    -0.5727300    1.8023950    2.2632380  
H     0.2326140    5.1059870   -2.7160790  
H    -1.7263820    7.1262090   -1.6729170  
H    -2.6255860    6.4294870    0.3930880  
H    -2.2546340    2.6573110    3.9434310  
