60


C     0.6487930    1.6269010   -0.1895910  
C     1.6602000    0.6666030   -0.2058750  
C     1.0443310   -0.6148910   -0.1856770  
C    -0.3625400   -0.3947110   -0.1849770  
N    -0.5680030    0.9566640   -0.1784550  
C    -1.3260300   -1.4337180   -0.1825520  
C    -0.7889580   -2.7327760   -0.2204450  
O    -1.5868310   -3.8089210   -0.3081850  
C     0.6212790   -2.9752510   -0.2271080  
O     0.9280080   -4.3096850   -0.2510400  
C     1.5630240   -1.9513360   -0.1710660  
H     2.7100980    0.9024290   -0.2607980  
H    -1.4638750    1.4192810   -0.1135670  
H    -0.9827200   -4.5787990   -0.3620360  
H     1.6940940   -4.4216220   -0.8693580  
C     4.5923570   -0.2630970    2.5332960  
C     5.7114750   -0.8603750    2.0545950  
C     5.3014680   -1.7224350    0.9660030  
C     3.8273710   -1.5678610    0.8452620  
N     3.4634950   -0.6954500    1.8395830  
C     3.0205130   -2.2052530   -0.0757460  
C     3.7062010   -3.1830430   -0.9177800  
O     3.1250580   -3.9760920   -1.6627930  
C     5.2755970   -3.2865510   -0.8855180  
O     5.8223840   -4.0049510   -1.7052460  
C     6.0007520   -2.5384440    0.1357360  
H     6.7196870   -0.7328720    2.4202480  
H     7.0798060   -2.6459950    0.1780320  
H     4.4808420    0.4470080    3.3416460  
H     2.5470240   -0.2744730    1.9026030  
C     4.1416610    4.3038710   -0.0664800  
C     3.5578690    5.5198380   -0.1410650  
C     2.1246540    5.2520520   -0.2022100  
C     2.0247980    3.7605340   -0.1591720  
N     3.2040990    3.2199870   -0.0714440  
C     0.7285390    3.0691920   -0.2040520  
C    -0.3690610    3.8945590   -0.2582870  
O    -1.6461640    3.4302390   -0.2961260  
C    -0.2922150    5.3681150   -0.2911620  
O    -1.3514820    6.0055410   -0.3438320  
C     1.0281850    6.0286570   -0.2622670  
H     4.0300580    6.4923230   -0.1521250  
H    -2.2026770    4.2424110   -0.3293560  
H     1.0417550    7.1142220   -0.2870140  
H     5.1969080    4.0673110   -0.0066760  
C    -2.7531810   -1.1644250   -0.1701170  
C    -3.4230030   -0.1022810   -0.7285900  
C    -4.8123100   -0.2890910   -0.3916220  
C    -4.8226700   -1.5485560    0.4233010  
N    -3.6337850   -2.0577490    0.5441620  
C    -6.0440710   -2.0754390    0.9787600  
C    -7.1905470   -1.4052090    0.7195290  
O    -8.4014320   -1.7762950    1.1600170  
C    -7.2126570   -0.1416280   -0.1136150  
O    -8.3104340    0.3915980   -0.2874420  
C    -5.9590010    0.3833790   -0.6560780  
H    -3.0254800    0.6723270   -1.3697130  
H    -6.0243210   -2.9832590    1.5712510  
H    -9.0186660   -1.0956040    0.8067430  
H    -6.0129680    1.2956800   -1.2422130  
