60


C     0.6913560    1.5505590   -0.2260520  
C    -0.5913680    1.0331070   -0.2089890  
C    -0.4959480   -0.3899720   -0.2109010  
C     0.9460470   -0.7057240   -0.1930740  
N     1.6025970    0.4956900   -0.2292690  
C     1.5150440   -1.9629090   -0.1354670  
C     0.5619740   -3.0629890   -0.2372310  
O     0.8926650   -4.2434360   -0.3633190  
C    -0.9878610   -2.7808560   -0.2362640  
O    -1.7165540   -3.7433620   -0.3720060  
C    -1.4713920   -1.3792750   -0.1840050  
H    -1.4850200    1.6309800   -0.1850810  
H     2.6050740    0.6055200   -0.1597350  
C    -1.6421820    5.2922480   -0.2875620  
C    -0.6652320    6.2250460   -0.2738190  
C     0.5824190    5.4714790   -0.2537510  
C     0.1481950    4.0365220   -0.2566910  
N    -1.1467410    3.9464120   -0.2792570  
C     1.1185460    2.9348940   -0.2388330  
C     2.4374960    3.3198190   -0.2302430  
O     3.4677760    2.4573350   -0.2185450  
C     2.8846970    4.7481890   -0.2248620  
O     4.0996640    4.9556080   -0.2053830  
C     1.8825240    5.8220130   -0.2394850  
H    -0.7639880    7.3014500   -0.2776590  
H     4.2783130    3.0195570   -0.2030850  
H     2.2451070    6.8453490   -0.2382800  
H    -2.7146160    5.4413600   -0.3037140  
C    -2.8868890   -1.1047460   -0.1512330  
C    -3.5685150   -0.0457360   -0.7108450  
C    -4.9541760   -0.2482410   -0.3805640  
C    -4.9564860   -1.5075750    0.4319470  
N    -3.7644840   -2.0075520    0.5565520  
C    -6.1760460   -2.0418090    0.9846940  
C    -7.3269060   -1.3791560    0.7232840  
O    -8.5359980   -1.7606470    1.1613520  
C    -7.3572220   -0.1167090   -0.1077070  
O    -8.4575360    0.4119510   -0.2834830  
C    -6.1059360    0.4170320   -0.6479240  
H    -3.1703650    0.7373210   -1.3393630  
H    -6.1520090   -2.9509130    1.5750230  
H    -9.1582650   -1.0849380    0.8081370  
H    -6.1638390    1.3306230   -1.2317070  
C     4.5565390   -0.1944450    2.6725470  
C     3.3886790   -0.5525590    2.0468270  
C     3.7318580   -1.4478660    0.9739990  
C     5.1430780   -1.6035010    1.0160910  
N     5.6175290   -0.8131310    2.0442840  
C     5.8451150   -2.4595490    0.1620080  
C     5.0942100   -3.1993810   -0.7372310  
O     5.7030800   -4.0721080   -1.5821830  
C     3.6795670   -3.0724990   -0.8064750  
O     3.1062840   -3.8636170   -1.7692760  
C     2.9725220   -2.1746270    0.0033480  
H     2.3993250   -0.2336110    2.3407130  
H     6.5778290   -0.7761400    2.3484790  
H     6.9224980   -2.5835610    0.2019350  
H     4.9794210   -4.5017490   -2.0789240  
H     2.2809540   -4.2410200   -1.3770980  
H     4.7199900    0.4513470    3.5237110  
