60


C    -2.9654730   -0.9859120   -0.0739240  
C    -3.6207780    0.0635280   -0.6762930  
C    -5.0198370   -0.1324830   -0.3987990  
C    -5.0560890   -1.3796340    0.4326520  
N    -3.8697310   -1.8773320    0.6126840  
C    -6.2968850   -1.9069310    0.9424140  
C    -7.4361810   -1.2492800    0.6241410  
O    -8.6615840   -1.6249580    1.0178360  
C    -7.4319820    0.0010710   -0.2269200  
O    -8.5239220    0.5251480   -0.4565800  
C    -6.1592250    0.5278160   -0.7229560  
H    -3.1935060    0.8348150   -1.3001900  
H    -6.2971180   -2.8060890    1.5482560  
H    -9.2699160   -0.9554090    0.6302030  
H    -6.1940520    1.4316360   -1.3235380  
C     0.6847460    1.6222660   -0.1163890  
C    -0.6304450    1.1566800   -0.1170190  
C    -0.5731290   -0.2519890   -0.0828270  
C     0.8925870   -0.5687890   -0.0465590  
N     1.6030810    0.5267210   -0.0709820  
C     1.4044370   -1.9121670    0.0122800  
C     0.4525570   -2.8913570    0.0610520  
O     0.7382200   -4.1798220    0.1586290  
C    -1.0518230   -2.6269960    0.0150160  
O    -1.7374230   -3.6488350   -0.0159670  
C    -1.5448390   -1.2499240   -0.0412790  
H    -1.5281540    1.7467740   -0.0854790  
H    -0.1457490   -4.6301960    0.1322280  
C     4.9513300   -0.8658640    2.5612810  
C     3.6845720   -0.9198710    2.0871590  
C     3.7599750   -1.7585900    0.8947340  
C     5.2081510   -2.1328860    0.8102110  
N     5.8961730   -1.6110930    1.7846060  
C     5.7136500   -2.9860230   -0.2336510  
C     4.8319020   -3.4454690   -1.1499370  
O     5.1605380   -4.2416000   -2.1802420  
C     3.3720030   -3.0776070   -1.1061700  
O     2.6625090   -3.4907180   -2.0181720  
C     2.8493900   -2.2174590    0.0006290  
H     2.7996630   -0.4484580    2.4881710  
H     6.7674270   -3.2392440   -0.2658740  
H     4.3255010   -4.3845370   -2.6773970  
H     5.3107810   -0.3394900    3.4375730  
C    -1.1673190    5.7448060   -0.4965910  
C    -0.9916520    4.3796430   -0.4421190  
C     0.4054750    4.1306890   -0.2580710  
C     1.0315430    5.3994080   -0.2160190  
N     0.0519640    6.3591430   -0.3565160  
C     2.4144200    5.5807890   -0.0738680  
C     3.2038470    4.4503550    0.0210930  
O     4.5513540    4.5666060    0.1529380  
C     2.6314730    3.1496390   -0.0152160  
O     3.5436860    2.1677360    0.0901300  
C     1.2201310    2.9476720   -0.1374820  
H    -1.7891610    3.6625330   -0.5477610  
H     0.2117210    7.3547860   -0.3680660  
H     2.8764190    6.5626660   -0.0446210  
H     4.9071070    3.6597810    0.1994930  
H     3.0526260    1.2851180    0.0424730  
H    -2.0702160    6.3239780   -0.6260440  
