58


C    -0.7529270    1.8634690   -0.1141280  
C    -1.3265100    3.1026670   -0.0952600  
C    -2.7501130    2.9101710    0.0157350  
C    -2.9681310    1.4436050    0.0469290  
N    -1.7204690    0.8591530   -0.0881920  
C    -4.1881730    0.8340640    0.1298970  
C    -5.3427450    1.7364320    0.3869600  
O    -6.4198920    1.3260410    0.7751730  
C    -5.1442860    3.2838360    0.2308150  
O    -6.1299440    4.0047590    0.2570530  
C    -3.7858470    3.7914970    0.0790980  
H    -0.8078590    4.0497220   -0.1182200  
H    -3.6478790    4.8661670    0.0118230  
H    -1.5504780   -0.1020580    0.1800600  
C     1.5012970    2.2441180   -1.0393500  
C     2.7327020    1.6870920   -0.9961960  
C     2.6725200    0.5482420   -0.0994370  
C     1.2786390    0.4853270    0.3933310  
N     0.5941550    1.5400370   -0.2270440  
C     0.8202310   -0.4214710    1.2924830  
C     1.7384220   -1.4585940    1.7549490  
O     1.3932550   -2.3523240    2.5106440  
C     3.2268540   -1.4046420    1.2696670  
O     4.0314510   -2.1703430    1.7634240  
C     3.6226230   -0.3582380    0.2838770  
H     3.5955370    2.0089720   -1.5598710  
H    -0.1859080   -0.4308580    1.6940530  
H     1.1369890    3.0817860   -1.6174480  
C     6.8474230    2.6542000    0.6331080  
C     7.8438080    1.9862380    0.0000340  
C     7.3020200    0.7153890   -0.4371690  
C     5.8826000    0.7017550   -0.0041050  
N     5.6652490    1.9154550    0.6178710  
C     5.0179200   -0.3407800   -0.1847490  
C     5.5377220   -1.5207570   -0.9097820  
O     4.8300390   -2.4634790   -1.2165440  
C     7.0438130   -1.5291010   -1.3558500  
O     7.4824630   -2.5192590   -1.9175030  
C     7.8565510   -0.3424980   -1.0859650  
H     8.8563980    2.3317150   -0.1484800  
H     8.8952270   -0.3590480   -1.4014520  
H     6.8635940    3.6276720    1.1051210  
H     4.8253570    2.1505960    1.1237130  
C    -7.0921470   -1.3742490   -2.2649260  
C    -6.9314950   -2.6448030   -1.8341870  
C    -5.8404610   -2.5815940   -0.8641860  
C    -5.4866500   -1.1300640   -0.8090380  
N    -6.1948130   -0.4387840   -1.6460360  
C    -4.4181600   -0.6165820    0.0528690  
C    -3.6885320   -1.5685850    0.6990070  
O    -2.6161710   -1.2974630    1.4870800  
C    -4.0084440   -3.0304490    0.6452280  
O    -3.3000910   -3.7872130    1.3099310  
C    -5.1390440   -3.5001260   -0.1742680  
H    -7.4647810   -3.5325720   -2.1442110  
H    -2.3407380   -2.1753580    1.8457130  
H    -5.3274860   -4.5691240   -0.1951430  
H    -7.7945890   -0.9978070   -2.9982520  
