58


C     1.6293980   -0.8729290   -0.4670620  
C     2.9027270   -0.4040090   -0.6003860  
C     2.8019680    1.0524220   -0.6504330  
C     1.3588350    1.3773160   -0.5369890  
N     0.6879740    0.1661620   -0.4022110  
C     0.8547570    2.6397510   -0.6032560  
C     1.7805340    3.7586470   -0.7673700  
O     1.4097320    4.9209000   -0.8256370  
C     3.3115200    3.4365880   -0.8742410  
O     4.1056470    4.3540920   -0.9977410  
C     3.7274890    2.0293190   -0.8282580  
H    -0.2064220    2.8608010   -0.5968900  
H     4.7838320    1.8182100   -0.9578050  
H     1.2905400   -1.8947500   -0.3922810  
C    -2.2131210    1.9673640    2.3242740  
C    -3.3302970    1.3318160    1.8888510  
C    -2.9383600    0.4546170    0.8014720  
C    -1.4792370    0.6393960    0.6441340  
N    -1.0984470    1.5554760    1.5981440  
C    -0.7027860   -0.0285780   -0.2686810  
C    -1.3589450   -1.0352960   -1.1068040  
O    -0.7481980   -1.7599110   -1.8765450  
C    -2.9186040   -1.1810270   -1.0095790  
O    -3.4742090   -1.8613580   -1.8490470  
C    -3.6553210   -0.4376340    0.0451280  
H    -4.3226790    1.4277380    2.3022310  
H    -2.0951990    2.6861760    3.1238860  
H    -0.1783420    1.9656340    1.6616200  
C    -7.1561100    2.2660980   -0.2136060  
C    -8.1471510    1.3602310   -0.0208540  
C    -7.5193190    0.0692980    0.1751540  
C    -6.0567160    0.3032380    0.0846240  
N    -5.9052400    1.6562620   -0.1373500  
C    -5.0992280   -0.6704970    0.1747650  
C    -5.5749500   -2.0472140    0.4397980  
O    -4.8123710   -2.9708560    0.6611080  
C    -7.1209820   -2.3142520    0.5039150  
O    -7.5113730   -3.4590300    0.6636980  
C    -8.0294310   -1.1744990    0.3779690  
H    -9.2088690    1.5587870   -0.0195620  
H    -9.0960320   -1.3697500    0.4318700  
H    -7.2220510    3.3296340   -0.4010730  
H    -5.0222360    2.1100640   -0.3126580  
C     4.2600230   -2.3648310   -1.4474140  
C     4.0989560   -1.2255000   -0.7164430  
C     5.3859310   -1.0678410   -0.0082950  
C     6.2003830   -2.2325970   -0.4710400  
N     5.5328340   -2.9814860   -1.3038620  
C     7.5443120   -2.4476250   -0.0034750  
C     8.0498380   -1.5744740    0.9007080  
O     9.2831090   -1.6589600    1.4239360  
C     7.2428790   -0.4130900    1.4111600  
O     7.7631520    0.3299920    2.2401750  
C     5.8677510   -0.2043840    0.9051410  
H     8.1138210   -3.2953860   -0.3677630  
H     9.3600430   -0.9007500    2.0434480  
H     5.3233460    0.6472320    1.3007370  
H     3.5360390   -2.8164590   -2.1158380  
