58


C     1.3009020   -1.4042050   -0.0444880  
C     0.5468720   -0.2575880   -0.0084760  
C     1.5551720    0.8196290    0.1256830  
C     2.8626490    0.0957920    0.0995010  
N     2.6944650   -1.1944070    0.0081640  
C     4.1378710    0.7748570    0.2165240  
C     4.0925580    2.1164560    0.4417930  
O     5.1765740    2.8898690    0.5855570  
C     2.7939300    2.8639360    0.5293080  
O     2.8504760    4.0757940    0.7346080  
C     1.5168840    2.1448190    0.3612700  
H     4.8273370    3.7976960    0.7311640  
H     0.6103980    2.7323660    0.4183390  
H     0.9268370   -2.4155440   -0.0992150  
C    -2.4424680   -3.2323940    1.1577370  
C    -3.6077730   -2.5951100    0.9063610  
C    -3.2212760   -1.2850860    0.3960340  
C    -1.7229530   -1.3107600    0.4032300  
N    -1.2850530   -2.4494500    0.8531410  
C    -0.9060320   -0.1769880   -0.0457360  
C    -1.6261520    0.8966600   -0.5037940  
O    -1.0621720    2.0221750   -0.9898450  
C    -3.1121930    0.9536590   -0.5139080  
O    -3.6412210    2.0006570   -0.8907130  
C    -3.9169520   -0.2164370   -0.0560260  
H    -4.6152070   -2.9583180    1.0481080  
H    -1.8202530    2.6028520   -1.2278340  
H    -2.2964070   -4.2329840    1.5460510  
C    -7.2684130   -0.5106600    2.9060570  
C    -6.0223760   -0.5180360    2.3744960  
C    -6.2167720   -0.2605700    0.9525140  
C    -7.7033520   -0.1109050    0.8120300  
N    -8.3082550   -0.2589120    1.9551280  
C    -8.3207860    0.1770440   -0.4552030  
C    -7.5143810    0.3104280   -1.5336910  
O    -7.9543670    0.5638330   -2.7749980  
C    -6.0208120    0.1480230   -1.4366120  
O    -5.3774080    0.1968520   -2.4794920  
C    -5.3857300   -0.1150170   -0.1098430  
H    -5.0810860   -0.6780610    2.8797230  
H    -9.3981990    0.2774880   -0.5233950  
H    -7.1539030    0.5780240   -3.3439640  
H    -7.5482040   -0.6649250    3.9415090  
C     5.8656190   -1.4870520   -3.1213020  
C     7.0031780   -1.9830960   -2.5842130  
C     7.0294810   -1.4724860   -1.2167000  
C     5.7659770   -0.6735050   -1.1030600  
N     5.1015500   -0.6737300   -2.2191370  
C     5.4051070    0.0207910    0.1220030  
C     6.2958640   -0.0525450    1.1473490  
O     6.1128390    0.5335210    2.3392550  
C     7.5767170   -0.8387240    1.0516210  
O     8.3066250   -0.8527090    2.0415140  
C     7.9026250   -1.5537460   -0.1948590  
H     7.7490820   -2.6109400   -3.0512780  
H     6.9082110    0.2979780    2.8672370  
H     8.8392740   -2.1022220   -0.2228800  
H     5.4844980   -1.6309330   -4.1253400  
