60


C     1.5085450   -0.2312370   -0.3979150  
C     0.6628240    0.7730660   -0.0234380  
C     1.4243600    1.7544520    0.7130320  
C     2.7573060    1.2843960    0.7516520  
N     2.7935210    0.0460600    0.0645200  
C     3.7689590    1.9924570    1.4071980  
C     3.4207620    3.1873980    2.0237230  
O     4.3770170    3.9087830    2.6647460  
C     2.0845480    3.6641650    1.9961600  
O     1.9013580    4.8541630    2.6585520  
C     1.0837040    2.9583930    1.3517210  
H     4.7881870    1.6363180    1.4362060  
H     3.9562290    4.7113830    3.0192900  
H     0.9915620    5.1667110    2.5415530  
H     0.0628660    3.3301590    1.3405930  
H     1.3071830   -1.1161610   -0.9799120  
C    -1.6064690   -0.2160760    0.0748120  
C    -2.8919380    0.0586590   -0.3123290  
C    -2.8521940    1.3576410   -0.9797790  
C    -1.4372120    1.7966140   -0.9397260  
N    -0.7251410    0.7911360   -0.2769720  
C    -0.9706680    2.9450310   -1.4867560  
C    -1.9275670    3.8426070   -2.1375050  
O    -1.6031190    4.9112900   -2.6281880  
C    -3.4309320    3.3973970   -2.1997270  
O    -4.2452390    4.1239220   -2.7441450  
C    -3.8007150    2.1112200   -1.5954780  
H     0.0750790    3.2305840   -1.4677090  
H    -4.8351610    1.7988860   -1.6925910  
H    -1.2364920   -1.0667410    0.6313360  
C    -4.0365350   -0.7913790   -0.0678420  
C    -4.0956860   -2.1533330    0.0779500  
C    -5.4597950   -2.5178380    0.3558800  
C    -6.2274030   -1.2484490    0.3675320  
N    -5.3237500   -0.2436910    0.0508730  
C    -7.5502680   -1.1546000    0.6439860  
C    -8.2891700   -2.3862170    0.9234880  
O    -9.4825000   -2.3975530    1.1811700  
C    -7.5045220   -3.7485070    0.8777440  
O    -8.1117880   -4.7857130    1.0998200  
C    -6.0735080   -3.7129630    0.5818400  
H    -3.2707630   -2.8388470   -0.0551790  
H    -8.0951940   -0.2155160    0.6567970  
H    -5.5383570   -4.6576480    0.5698530  
H    -5.4865790    0.7279650    0.2718200  
C     3.8674470   -0.7901040   -0.1571810  
C     3.8670770   -2.0101070   -0.7972090  
C     5.2281380   -2.4448990   -0.7569280  
C     5.9540550   -1.3397030   -0.0323650  
N     5.1405830   -0.3786680    0.3117790  
C     7.3640270   -1.3925010    0.2189880  
C     8.0276930   -2.4883260   -0.2243220  
O     9.3352440   -2.6889490   -0.0703360  
C     7.3262780   -3.6260510   -0.9599680  
O     8.0446910   -4.5648840   -1.3094370  
C     5.8960710   -3.5445880   -1.2010930  
H     3.0384820   -2.5434910   -1.2376910  
H     7.8613980   -0.5833740    0.7416390  
H     9.5102250   -3.5631590   -0.4943750  
H     5.4262480   -4.3690810   -1.7273620  
