60


C    -0.8974150   -0.8519990    2.6334530  
C    -0.0908800    0.0870020    2.0476520  
C    -0.8104910    0.6296590    0.9294970  
C    -2.0728110   -0.0234980    0.9025450  
N    -2.0874270   -0.9330480    1.9366630  
C    -3.0687300    0.2476440   -0.0591360  
C    -2.7689100    1.2668720   -0.9700610  
O    -3.6993320    1.6560900   -1.8759810  
C    -1.5317370    1.9549720   -0.9450510  
O    -1.4188490    2.9153380   -1.9282710  
C    -0.5148580    1.6328090   -0.0401570  
H     0.9059540    0.3490830    2.3681730  
H    -2.8864130   -1.4882610    2.2021780  
H    -3.2805630    2.3750280   -2.3890140  
H    -1.0693580    3.7246020   -1.4969260  
H    -0.7230330   -1.4801360    3.4953620  
C     3.7282000    0.1643130   -0.0045040  
C     2.3567450    0.2124560   -0.0767740  
C     2.0028940    1.6084530   -0.0178900  
C     3.3156720    2.3122970    0.0902440  
N     4.3126610    1.4842390    0.1097190  
C     3.4086170    3.7492710    0.1598480  
C     2.2555270    4.4465690    0.0730200  
O     2.1857030    5.7886460    0.0913420  
C     0.9250310    3.7638910   -0.0980160  
O    -0.0447600    4.5211210   -0.2671980  
C     0.8112420    2.2872970   -0.0606020  
H     1.6886310   -0.6254230   -0.1788710  
H     4.3744720    4.2319250    0.2557600  
H     1.2359720    6.0053730   -0.0283490  
C     2.7494630   -4.0785470   -0.5685590  
C     3.9669400   -4.6631980   -0.5271690  
C     4.9038250   -3.5689970   -0.3139910  
C     4.0406570   -2.3405290   -0.2489120  
N     2.7889360   -2.6572710   -0.3985260  
C     4.5934080   -0.9956450   -0.0463340  
C     5.9682340   -0.9463980    0.0911390  
O     6.6865590    0.1532550    0.2978400  
C     6.8395800   -2.1805330    0.0291100  
O     8.0516730   -2.0152920    0.1662890  
C     6.2406920   -3.5028290   -0.1841280  
H     4.2152230   -5.7103030   -0.6290510  
H     7.6207930   -0.1618180    0.3488090  
H     6.9102560   -4.3565480   -0.2232780  
H     1.7839180   -4.5481520   -0.7121600  
C    -6.3805060   -0.6388750    2.8366080  
C    -5.2301260   -0.1505230    2.3092050  
C    -5.2092520   -0.6333440    0.9306830  
C    -6.4759790   -1.4136380    0.8075260  
N    -7.1529140   -1.4161360    1.9233520  
C    -6.8629490   -2.0478500   -0.4260490  
C    -6.0305970   -1.9196300   -1.4835780  
O    -6.2567760   -2.4607220   -2.6919030  
C    -4.7219090   -1.1773380   -1.3854970  
O    -3.9830280   -1.2255950   -2.3618880  
C    -4.3488510   -0.4764710   -0.1110800  
H    -4.4975030    0.4886900    2.7809770  
H    -7.7931330   -2.6020450   -0.4841260  
H    -5.4635580   -2.2384770   -3.2276990  
H    -6.7643390   -0.4927290    3.8396810  
