58


C    -0.3423980    1.6677750    0.0077620  
C     1.0408330    1.6472990   -0.0012620  
C     1.4163280    0.2744230   -0.0001820  
C     0.1060300   -0.4701680    0.0056940  
N    -0.9057790    0.3461570    0.0095080  
C     0.0385680   -1.9176300    0.0070420  
C     1.2380640   -2.5651510   -0.0249350  
O     1.3577810   -3.8894350   -0.0648260  
C     2.5745050   -1.8492500   -0.0275030  
O     3.5686340   -2.5742760    0.0217090  
C     2.6217400   -0.3835640   -0.0406040  
H     1.7096490    2.4953760   -0.0061170  
H     2.3299020   -4.0605560   -0.0444530  
C    -0.9220710    4.1297690    0.0366030  
C    -1.2293410    2.7815690    0.0130800  
C    -2.7060080    2.7586050   -0.0014010  
C    -3.0883710    4.1967860    0.0179430  
N    -2.0264290    4.9782180    0.0393620  
C    -4.4527550    4.6254300    0.0109520  
C    -5.4102310    3.6620990   -0.0151450  
O    -6.7227990    3.9084710   -0.0235620  
C    -5.0570010    2.1930220   -0.0380400  
O    -5.9855850    1.3912930   -0.0601350  
C    -3.6348380    1.7843080   -0.0319660  
H    -4.6940470    5.6822690    0.0262900  
H    -7.1597660    3.0271250   -0.0432290  
H    -3.3960560    0.7274330   -0.0547690  
H     0.0695450    4.5679580    0.0550660  
C     4.7915260    2.6433320    2.4677640  
C     3.8228360    1.8121320    2.0123250  
C     4.3786790    1.2052210    0.8087710  
C     5.7443120    1.8112950    0.6986020  
N     5.9775320    2.6486900    1.6688840  
C     6.6521390    1.4542330   -0.3595060  
C     6.2331400    0.5428730   -1.2671640  
O     6.9676490    0.1266200   -2.3103590  
C     4.8593340   -0.0693400   -1.2046410  
O     4.5298420   -0.8053910   -2.1290340  
C     3.9362610    0.2745250   -0.0768790  
H     2.8483930    1.6244240    2.4390080  
H     7.6337290    1.9119960   -0.4101590  
H     6.3942480   -0.4992720   -2.8044540  
H     4.7633090    3.2755210    3.3475110  
C    -3.7079610   -2.0977680   -2.4652850  
C    -2.4821280   -1.7350560   -2.0202840  
C    -2.2703540   -2.5180810   -0.8063570  
C    -3.5251360   -3.3261490   -0.6775640  
N    -4.3564260   -3.0800590   -1.6487200  
C    -3.7206720   -4.2620720    0.3989690  
C    -2.7257160   -4.3911750    1.3051500  
O    -2.7728660   -5.2141140    2.3655820  
C    -1.4562520   -3.5858990    1.2155350  
O    -0.6426180   -3.7211670    2.1243550  
C    -1.2438940   -2.6467660    0.0703060  
H    -1.7980480   -1.0181070   -2.4486310  
H    -4.6410870   -4.8315000    0.4635610  
H    -1.9280020   -5.0703290    2.8455860  
H    -4.2293630   -1.7391770   -3.3449660  
