64


C    -3.3801950    2.3285290    0.4537670  
C    -2.0168040    2.2736390    0.3776370  
C    -1.6730310    1.1967110   -0.5135970  
C    -2.8856170    0.6120400   -0.9502620  
N    -3.9163720    1.3286330   -0.3525900  
C    -2.9529640   -0.4886530   -1.8073260  
C    -1.7458450   -1.0161780   -2.2384360  
O    -1.7366320   -2.0823970   -3.0871230  
C    -0.5111830   -0.4558830   -1.8214980  
O     0.5872610   -1.1056050   -2.3535280  
C    -0.4405130    0.6479410   -0.9642440  
H    -1.3303710    2.9131540    0.9123750  
H    -3.8905700   -0.9256760   -2.1312180  
H    -0.8042300   -2.2748040   -3.2903910  
H     1.3836570   -0.5575930   -2.2426420  
H    -4.0414490    2.9786000    1.0076200  
C    -6.0553490    1.6130510   -1.5148040  
C    -7.3276100    1.1387150   -1.3653110  
C    -7.3337300    0.2655360   -0.2209680  
C    -6.0169410    0.2404320    0.2994980  
N    -5.2525420    1.0755610   -0.5094820  
C    -5.6471670   -0.5075480    1.4208850  
C    -6.6405250   -1.2548230    2.0357200  
O    -6.3436050   -2.0068350    3.1347690  
C    -7.9694880   -1.2465900    1.5335420  
O    -8.8423840   -2.0390280    2.2557070  
C    -8.3239210   -0.5023380    0.4233920  
H    -8.1706200    1.3813450   -1.9978830  
H    -4.6348060   -0.5221120    1.8088170  
H    -7.1621000   -2.4577180    3.4047100  
H    -9.7183950   -2.0132900    1.8435490  
H    -9.3490230   -0.5119730    0.0578760  
H    -5.6202700    2.2853920   -2.2396400  
C     0.8430210    1.2321570   -0.5730810  
C     1.2104610    2.5435470   -0.3719390  
C     2.5994640    2.5670140   -0.0146610  
C     3.0510660    1.2258750   -0.0186620  
N     1.9852490    0.4268370   -0.4069830  
C     4.3633020    0.8536280    0.3354600  
C     5.2320050    1.8936820    0.6809960  
O     6.5278320    1.6125370    0.9843930  
C     4.7991020    3.2430790    0.6647520  
O     5.7880310    4.1428430    1.0091420  
C     3.5052990    3.5910190    0.3222730  
H     0.5680500    3.4004500   -0.5167080  
H     1.9217910   -0.5517480   -0.1563270  
H     6.9555280    2.4494970    1.2368210  
H     5.4186650    5.0376850    1.0402300  
H     3.1970500    4.6344050    0.3210690  
C     4.5120950   -2.4308290   -2.6927820  
C     4.3296800   -1.2161690   -2.1194360  
C     4.7393480   -1.3879340   -0.7280930  
C     5.1606870   -2.8192940   -0.6526180  
N     5.0208440   -3.4236920   -1.7996400  
C     5.6706800   -3.3963870    0.5642300  
C     5.7570900   -2.5939840    1.6494040  
O     6.2117360   -2.9937450    2.8479940  
C     5.3063580   -1.1547470    1.6197770  
O     5.3336370   -0.5408330    2.6805380  
C     4.8060690   -0.5540180    0.3413840  
H     4.0005360   -0.2971000   -2.5832120  
H     5.9731330   -4.4373650    0.5879960  
H     6.1166920   -2.2122120    3.4359400  
H     4.3304330   -2.7131020   -3.7232440  
