60


C    -0.1730330   -2.1981320   -0.5764190  
C     0.9562050   -1.4100810   -0.7748500  
C     1.8787800   -1.6778930    0.2768040  
C     1.2726210   -2.6687720    1.1039290  
N     0.0163550   -2.9286300    0.5941970  
C     1.9152640   -3.2455450    2.1983930  
C     3.2112400   -2.8198600    2.4522890  
O     3.9128870   -3.3501420    3.4809200  
C     3.8428050   -1.8168910    1.6575440  
O     5.1072440   -1.5088290    2.0823720  
C     3.1903900   -1.1949600    0.5913960  
H     1.0734610   -0.7052480   -1.5847670  
H    -0.5253170   -3.7460590    0.8324970  
H     1.4604530   -4.0085430    2.8211830  
H     4.7955750   -2.9303800    3.4425040  
H     5.6637710   -1.3893720    1.2715710  
C     1.5516750    2.7212200   -0.5658000  
C     2.5917060    3.1892170   -1.3327780  
C     3.6269860    2.1936240   -1.3111770  
C     3.1170400    1.0760220   -0.4731240  
N     1.8735190    1.4622870   -0.0552430  
C     3.7978810   -0.0898420   -0.1873280  
C     5.1733980   -0.1336590   -0.6788640  
O     5.9903810   -0.9989320   -0.3530960  
C     5.6958920    0.9782390   -1.6613040  
O     6.7949740    0.8269020   -2.1712840  
C     4.8579140    2.1454460   -1.8949270  
H     2.6314190    4.1372230   -1.8492390  
H     5.2392590    2.9296050   -2.5408510  
H     1.2272910    0.9209220    0.5034100  
C     0.2754410    3.2979640   -0.2363790  
C    -0.2668890    4.4970090   -0.6114570  
C    -1.5689770    4.5387620    0.0133590  
C    -1.6670980    3.2404740    0.7603910  
N    -0.5908080    2.5242120    0.6105600  
C    -2.8349990    2.8965610    1.5265710  
C    -3.8535330    3.7891150    1.5520380  
O    -4.9970500    3.6049440    2.2198030  
C    -3.7853560    5.1067380    0.8092770  
O    -4.7601700    5.8507880    0.8940420  
C    -2.5814640    5.4366080    0.0337050  
H     0.1715990    5.2591130   -1.2402150  
H    -2.8813540    1.9528950    2.0581640  
H    -5.5350860    4.4111910    2.0520760  
H    -2.5682690    6.3898830   -0.4853820  
C    -1.5550720   -2.0063180   -2.6872270  
C    -1.3681570   -2.3056680   -1.3626470  
C    -2.7116930   -2.7451220   -0.9024400  
C    -3.5582900   -2.6525970   -2.1178150  
N    -2.8712450   -2.2112630   -3.1432020  
C    -4.9524480   -2.9930420   -2.0916340  
C    -5.4953090   -3.3811990   -0.9092290  
O    -6.7866390   -3.7280860   -0.7503250  
C    -4.6806240   -3.4481080    0.3396830  
O    -5.2323800   -3.8031350    1.3831510  
C    -3.2438380   -3.0920530    0.2852530  
H    -5.5425190   -2.9263740   -2.9991420  
H    -6.8799900   -3.9503330    0.2013380  
H    -2.7034320   -3.1204620    1.2266710  
H    -0.8063300   -1.6619280   -3.3900590  
