58


C     0.6339480   -1.0319940   -0.6896440  
C     1.8860810   -1.4646780   -0.3728240  
C     1.7140140   -2.7527670    0.3103340  
C     0.2575880   -3.0204920    0.3558890  
N    -0.3687670   -1.9171600   -0.2759100  
C    -0.2936050   -4.1179270    0.9242580  
C     0.5985800   -5.1032440    1.5466790  
O     0.1802290   -6.1186330    2.0778940  
C     2.1366390   -4.8240010    1.5340850  
O     2.8945010   -5.6100840    2.0767880  
C     2.6093870   -3.6028110    0.8675660  
H    -1.3600700   -4.2928820    0.9386620  
H     3.6785770   -3.4364550    0.8302230  
H     0.3545100   -0.1539070   -1.2523080  
C     2.8268960    2.7997120    0.1133620  
C     4.1313230    2.7746210   -0.3081180  
C     4.4546840    1.4286880   -0.6981890  
C     3.2323570    0.6272240   -0.4685370  
N     2.2594090    1.5166320   -0.0395990  
C     3.1275070   -0.7283360   -0.6360120  
C     4.3266600   -1.4120470   -1.1697040  
O     4.3455470   -2.6028550   -1.4297580  
C     5.6252870   -0.5693950   -1.4478080  
O     6.6146070   -1.1541130   -1.8601060  
C     5.5948780    0.8645100   -1.1874680  
H     4.7828140    3.6324360   -0.3950930  
H     6.5008780    1.4337820   -1.3697110  
H     1.4827750    1.2021090    0.5289490  
C     2.4284670    5.0259670    1.2539830  
C     2.0248370    3.8913600    0.6003890  
C     0.5627000    4.0456860    0.4842390  
C     0.2818570    5.3536470    1.1486280  
N     1.3822440    5.9114110    1.5859440  
C    -1.0490940    5.8827420    1.2390940  
C    -2.0582120    5.1672940    0.6801110  
O    -3.3406700    5.5482180    0.6937970  
C    -1.8025680    3.8619840   -0.0257780  
O    -2.7588070    3.2725460   -0.5224470  
C    -0.4211870    3.3384380   -0.1000570  
H    -1.2229580    6.8313050    1.7344840  
H    -3.8417450    4.8528770    0.2152100  
H    -0.2756630    2.4100850   -0.6414580  
H     3.4398400    5.2823230    1.5471840  
C    -1.7088490   -1.6371160   -0.4164160  
C    -2.2769510   -0.4588960   -0.8603000  
C    -3.6839940   -0.6895240   -0.8045830  
C    -3.8143110   -2.1029340   -0.2994820  
N    -2.6448210   -2.6411300   -0.0732850  
C    -5.0901010   -2.7245130   -0.1057830  
C    -6.1861910   -1.9756930   -0.3843480  
O    -7.4404910   -2.4031480   -0.2548680  
C    -6.0914040   -0.5348640   -0.8799400  
O    -7.1676910    0.0330120   -1.0858840  
C    -4.7860390    0.0655140   -1.0735850  
H    -1.8027280    0.4615090   -1.1633360  
H    -5.1586710   -3.7457610    0.2514280  
H    -7.9980360   -1.6347870   -0.5277830  
H    -4.7408860    1.0926090   -1.4200780  
