62


C     0.1546580    1.6634510    0.0549580  
C    -1.0517500    0.9682790    0.1438130  
C    -0.7607900   -0.4223240    0.0903170  
C     0.6570820   -0.5427720   -0.0142810  
N     1.1809400    0.7245510   -0.0296760  
C     1.3366850   -1.7763690   -0.0661130  
C     0.5194720   -2.9051550    0.0179490  
O     1.0721380   -4.1365170    0.0457870  
C    -0.9023310   -2.8132620    0.1184970  
O    -1.5191670   -4.0416690    0.1697900  
C    -1.5760980   -1.5964130    0.1285870  
H    -2.0145180    1.4399250    0.2537340  
H     2.1490920    0.9725140   -0.1785000  
H     0.3230640   -4.7626000    0.1012670  
H    -2.2153510   -3.9995740    0.8628520  
C     4.5693680   -0.2508580    2.4917480  
C     5.6493820   -0.6975870    1.7988390  
C     5.1535270   -1.4075190    0.6382900  
C     3.6741920   -1.3325780    0.7122340  
N     3.3874190   -0.6131980    1.8587820  
C     2.8050230   -1.8864780   -0.1840870  
C     3.4115220   -2.5878590   -1.3377420  
O     2.7525320   -3.0414100   -2.2561980  
C     4.9793330   -2.7198930   -1.4059230  
O     5.4708840   -3.3574720   -2.3249140  
C     5.7798620   -2.0697130   -0.3719110  
H     6.6867410   -0.5545290    2.0639600  
H     6.8602780   -2.1531880   -0.4391740  
H     4.5318320    0.3154780    3.4130910  
H     2.4552310   -0.4231190    2.1926610  
C    -2.6008120    5.0911200    0.2509710  
C    -1.7433180    6.1345810    0.2068920  
C    -0.4160310    5.5343410    0.1209150  
C    -0.6751890    4.0619820    0.1264380  
N    -1.9495060    3.8166040    0.2005450  
C     0.4193870    3.0822270    0.0513130  
C     1.6808740    3.6260510   -0.0263900  
O     2.8125600    2.8715020   -0.1017210  
C     1.9566750    5.0718650   -0.0349150  
O     3.1372310    5.4425200   -0.1078370  
C     0.8332960    6.0268380    0.0432370  
H    -1.9695540    7.1916190    0.2280840  
H     3.5410740    3.5319540   -0.1598060  
H     1.0790150    7.0846860    0.0324400  
H    -3.6816910    5.1102450    0.3169620  
C    -4.3583200    0.6305800   -2.4991780  
C    -5.5349680    0.2251590   -1.9248060  
C    -5.1913550   -0.6440320   -0.8368690  
C    -3.7718360   -0.7219470   -0.7972360  
N    -3.2972940    0.0527820   -1.8335630  
C    -3.0583310   -1.5149330    0.1335900  
C    -3.8575140   -2.2412590    1.0162990  
O    -3.2654930   -3.0769580    1.9498870  
C    -5.2697450   -2.1764080    0.9976920  
O    -5.8724570   -2.9676400    1.9612500  
C    -5.9469330   -1.3866260    0.0902030  
H    -6.5300970    0.5024210   -2.2439550  
H    -2.3216330    0.2461060   -2.0015250  
H    -3.9886090   -3.4812490    2.4638490  
H    -6.8350930   -2.8938890    1.8862500  
H    -7.0343550   -1.3524900    0.0867040  
H    -4.1822520    1.2867450   -3.3398390  
