58


C     2.3720930    3.6155410    0.9767360  
C     1.2437540    2.8998450    0.7212990  
C     1.6440690    1.5321480    0.4889620  
C     3.1123290    1.5014390    0.6504490  
N     3.4869500    2.7930590    0.9673130  
C     3.9265260    0.3989350    0.5133270  
C     3.2300580   -0.8542780    0.1538230  
O     3.8056840   -1.9177540   -0.0017270  
C     1.6698140   -0.8460890   -0.0385250  
O     1.1452760   -1.8684760   -0.4437300  
C     0.9191200    0.3985940    0.2026820  
H     0.2356440    3.2835630    0.6936210  
H     2.4826920    4.6712480    1.1859230  
H     4.4467480    3.1053120    0.9859220  
C    -2.1552610    2.5377100   -2.2544940  
C    -0.9686440    2.1631830   -1.7221490  
C    -1.2979280    1.1360650   -0.7459440  
C    -2.7891640    1.0060030   -0.8306670  
N    -3.2700640    1.8338550   -1.7153090  
C    -3.5546500    0.0475910   -0.0288360  
C    -2.7929930   -0.7423560    0.8083550  
O    -3.2631340   -1.6784360    1.6259740  
C    -1.2920590   -0.6022710    0.9244620  
O    -0.7432940   -1.2808240    1.7877550  
C    -0.5425140    0.3598040    0.0715800  
H     0.0190200    2.5255960   -1.9663930  
H    -2.4701690   -2.0238190    2.1009400  
H    -2.3386300    3.2786560   -3.0235520  
C    -4.9989280   -0.0342270   -0.1371900  
C    -5.8317550    0.6802120   -0.9619160  
C    -7.1667310    0.2149810   -0.6716090  
C    -6.9751800   -0.8197470    0.3941330  
N    -5.7246310   -0.9638710    0.7041590  
C    -8.0932500   -1.5312860    0.9643460  
C    -9.3286770   -1.2324630    0.5008960  
O   -10.4606250   -1.8096890    0.9331230  
C    -9.5522910   -0.1932790   -0.5740280  
O   -10.7158080    0.0066500   -0.9266870  
C    -8.4008770    0.5187270   -1.1387680  
H    -5.5396160    1.4309570   -1.6774590  
H    -7.9280940   -2.2762150    1.7347340  
H   -11.1779220   -1.3849520    0.4105620  
H    -8.6001540    1.2587380   -1.9078410  
C     6.0252600    1.2079710    1.6800110  
C     5.3595410    0.4333270    0.7617310  
C     6.4523110   -0.3021120    0.0746140  
C     7.6935040    0.1993980    0.7296670  
N     7.4260820    1.0696220    1.6702590  
C     9.0012500   -0.2529690    0.3429160  
C     9.0864660   -1.1562840   -0.6635660  
O    10.2366740   -1.6597310   -1.1328480  
C     7.8562660   -1.6735640   -1.3553360  
O     8.0096760   -2.4813830   -2.2679960  
C     6.5195030   -1.2027750   -0.9237180  
H     9.8780790    0.1337550    0.8500750  
H     9.9799770   -2.2797440   -1.8507780  
H     5.6604330   -1.6350880   -1.4211110  
H     5.5822390    1.8538400    2.4300140  
