60


C     1.5529760   -0.2630300   -0.1259970  
C     0.5855630    0.7075030   -0.0552630  
C     1.2901770    1.9758800    0.1230790  
C     2.6755660    1.6944950    0.1372260  
N     2.8227070    0.2927610   -0.0310320  
C     3.6442200    2.6813580    0.3283730  
C     3.2033860    3.9854280    0.5183770  
O     4.1139460    4.9827370    0.7046510  
C     1.8227600    4.2827020    0.5254340  
O     1.5289160    5.6140950    0.7368590  
C     0.8676230    3.2965420    0.3372510  
H     4.6994280    2.4510820    0.3316870  
H     3.6170880    5.8127340    0.8062920  
H     0.5733170    5.7506240    0.6555320  
H    -0.1858330    3.5502300    0.3316760  
H     1.4263420   -1.3262180   -0.2239290  
C    -1.6313430   -2.8555650    1.1863740  
C    -2.9119730   -2.5199620    0.9090120  
C    -2.8411780   -1.1738450    0.3532310  
C    -1.3826800   -0.8441410    0.3702560  
N    -0.6903400   -1.8330200    0.8606120  
C    -0.8491390    0.4291880   -0.1242050  
C    -1.7873410    1.2704930   -0.6582140  
O    -1.4982660    2.4626480   -1.2175660  
C    -3.2521110    0.9800740   -0.6630080  
O    -4.0002600    1.8693100   -1.0672030  
C    -3.7690990   -0.3261370   -0.1541120  
H    -3.8050590   -3.1110490    1.0502700  
H    -2.3712050    2.8289400   -1.4881150  
H    -1.2582050   -3.7822000    1.6058520  
C    -6.8807430   -1.3284320    2.8819990  
C    -5.7084190   -1.0401820    2.2560470  
C    -5.9970130   -0.8915630    0.8470620  
C    -7.4586970   -1.1133450    0.7035360  
N    -7.9288940   -1.3860820    1.9744050  
C    -8.1485590   -1.0305580   -0.4619140  
C    -7.4124070   -0.7009610   -1.6764990  
O    -7.9450650   -0.5701150   -2.7665790  
C    -5.8574630   -0.5177940   -1.5716480  
O    -5.2140470   -0.3836810   -2.5968420  
C    -5.2154020   -0.5760170   -0.2342990  
H    -4.7414080   -0.9447420    2.7253700  
H    -9.2217920   -1.1774920   -0.5337220  
H    -7.0683380   -1.5058280    3.9327960  
H    -8.8965350   -1.5446250    2.2079590  
C     3.9709750   -0.4569210   -0.0920770  
C     4.0756770   -1.8303900   -0.2134560  
C     5.4740980   -2.0925510   -0.2377040  
C     6.1142230   -0.7313020   -0.1182370  
N     5.2199960    0.2148650   -0.0333580  
C     7.5378140   -0.5607200   -0.1051300  
C     8.2916410   -1.6827500   -0.2031900  
O     9.6246040   -1.6987890   -0.2053410  
C     7.6792490   -3.0758420   -0.3235560  
O     8.4880060   -4.0075320   -0.4044070  
C     6.2407080   -3.2186200   -0.3357990  
H     3.2834530   -2.5608710   -0.2703980  
H     7.9734750    0.4283710   -0.0196550  
H     9.8573330   -2.6560430   -0.2887520  
H     5.8324430   -4.2201750   -0.4235140  
