60


C    -0.5326980   -0.7294210   -1.0142740  
C    -0.8128100   -1.7825920   -1.8475650  
C    -2.2280130   -1.9986350   -1.7703930  
C    -2.7511780   -1.0378850   -0.8681670  
N    -1.6903390   -0.3011310   -0.3810860  
C    -4.1225660   -0.9368690   -0.5487280  
C    -4.9714380   -1.8150660   -1.2309400  
O    -6.3153610   -1.7202040   -1.0735310  
C    -4.4576780   -2.7881240   -2.1305640  
O    -5.4366540   -3.5782820   -2.6972170  
C    -3.1083650   -2.9019280   -2.3966500  
H    -0.0974770   -2.3214620   -2.4532760  
H    -1.7991700    0.5952310    0.0721760  
H    -6.7197980   -2.4518310   -1.5720070  
H    -5.0324900   -4.2240360   -3.2953230  
H    -2.7412180   -3.6560820   -3.0891500  
C     1.8468820   -0.7955130   -0.3431410  
C     2.9238960    0.0424640   -0.2157400  
C     2.4426930    1.3852550   -0.5328170  
C     1.0093260    1.2362620   -0.8771170  
N     0.7011960   -0.1211050   -0.7252160  
C     0.1971020    2.2505870   -1.2608650  
C     0.7559110    3.6031030   -1.3142830  
O     0.0981570    4.5763640   -1.6435230  
C     2.2610520    3.7950160   -0.9148260  
O     2.7447760    4.9143920   -0.9362900  
C     3.0356270    2.6080440   -0.5308260  
H    -0.8460680    2.1156210   -1.5262070  
H     4.0684670    2.7657440   -0.2386130  
H     1.8004050   -1.8663310   -0.1978740  
C     4.2569360   -0.3652120    0.1706580  
C     4.6570020   -1.4315360    0.9340250  
C     6.0948650   -1.4334140    0.9869690  
C     6.5347990   -0.2675820    0.1818910  
N     5.3784740    0.3730280   -0.2407080  
C     7.8287410    0.0530940   -0.0596370  
C     8.8725990   -0.7829000    0.5337190  
O    10.0636710   -0.5687550    0.3711950  
C     8.4302070   -2.0012620    1.4245830  
O     9.2927810   -2.7023100    1.9334370  
C     7.0003570   -2.2501000    1.5949690  
H     4.0022610   -2.1143880    1.4567310  
H     8.1334450    0.9054160   -0.6594000  
H     6.7062250   -3.1041160    2.1975620  
H     5.3591480    0.9997120   -1.0322960  
C    -6.6071450   -1.6337630    3.0116870  
C    -6.8277340   -0.3810950    3.4674770  
C    -6.0826390    0.4877760    2.5595660  
C    -5.4844190   -0.4535430    1.5602150  
N    -5.7753900   -1.6861940    1.8424430  
C    -4.6449380    0.0141510    0.4556240  
C    -4.3492090    1.3439060    0.4722970  
O    -3.5203530    1.9424410   -0.4178520  
C    -4.9235610    2.3041220    1.4691950  
O    -4.6156910    3.4908120    1.3552770  
C    -5.8234250    1.8077450    2.5251110  
H    -7.4035040   -0.0692190    4.3277220  
H    -3.5560800    2.9007960   -0.1906170  
H    -6.2097340    2.5348740    3.2328370  
H    -6.9736620   -2.5682840    3.4190170  
