58


C    -0.1358290    1.7838260    0.1034440  
C     1.0493240    1.0964360   -0.0035750  
C     2.1080870    2.0092580    0.2864260  
C     1.4572040    3.3047630    0.5766410  
N     0.0872540    3.1257060    0.3953760  
C     2.0868920    4.4421090    0.9538150  
C     3.5388630    4.4086090    1.0618220  
O     4.2015450    5.3739640    1.4027040  
C     4.2845090    3.0712710    0.7082810  
O     5.5014820    3.0928770    0.7835190  
C     3.4982100    1.8694010    0.3193460  
H     1.1883510    0.0703600   -0.2988110  
H     1.5702360    5.3730140    1.1660370  
H    -0.5974150    3.7048580    0.8615570  
C    -1.7441120   -0.0504090    0.1989550  
C    -3.0701820   -0.2982660    0.0066510  
C    -3.6862420    0.9826910   -0.3545750  
C    -2.5889790    1.9791290   -0.4020720  
N    -1.4195230    1.2932400   -0.0315710  
C    -2.7459560    3.2732800   -0.7739300  
C    -4.0971270    3.7578530   -1.0703740  
O    -4.3203530    4.9077010   -1.4104440  
C    -5.2827000    2.7500270   -0.9240010  
O    -6.4236120    3.1392430   -1.1091660  
C    -4.9702030    1.3570860   -0.5797880  
H    -1.9296320    3.9761920   -0.8860470  
H    -5.7957990    0.6588250   -0.5515010  
H    -0.9787560   -0.7267470    0.5441150  
C    -2.0360090   -3.4675890    2.8404160  
C    -2.9854620   -4.3982840    2.6010030  
C    -3.8029910   -3.8428990    1.5274610  
C    -3.1805690   -2.5106080    1.2419120  
N    -2.1524080   -2.3033150    2.0095460  
C    -3.7047960   -1.6020680    0.2208850  
C    -4.7640950   -2.0807830   -0.4983200  
O    -5.3318870   -1.4286490   -1.5257820  
C    -5.4017500   -3.4148340   -0.2289850  
O    -6.3532980   -3.7370560   -0.9388560  
C    -4.8704030   -4.2821460    0.8362760  
H    -3.1248760   -5.3549420    3.0845710  
H    -6.0576140   -2.0177390   -1.8369700  
H    -5.3618800   -5.2370580    0.9948160  
H    -1.2292160   -3.5016470    3.5621010  
C     4.1801150    0.6395060    0.0173740  
C     5.5328120    0.3680360    0.0165020  
C     5.6637580   -1.0097440   -0.3582920  
C     4.2542820   -1.4786750   -0.5655530  
N     3.3984450   -0.5271370   -0.3483380  
C     3.9586760   -2.8329510   -0.9569480  
C     5.0054510   -3.6730380   -1.1317480  
O     4.8928060   -4.9565530   -1.4927190  
C     6.4427040   -3.2290160   -0.9295360  
O     7.3119180   -4.0835200   -1.1173460  
C     6.7160990   -1.8522110   -0.5337180  
H     6.3272320    1.0565080    0.2499400  
H     2.9324830   -3.1514620   -1.1033390  
H     5.8204840   -5.2876610   -1.5346990  
H     7.7537220   -1.5645640   -0.3969270  
