58


C     2.1366500   -0.4707620    0.2052710  
C     1.2583210    0.5750100    0.2628330  
C     2.0572730    1.7909860    0.0896140  
C     3.4633660    1.3490940   -0.0627460  
N     3.4535260   -0.0502080    0.0337430  
C     4.5058690    2.1803210   -0.3016180  
C     4.2510540    3.6199600   -0.3553360  
O     5.1324870    4.4380900   -0.5658640  
C     2.7841400    4.1155700   -0.1201490  
O     2.5555220    5.3139960   -0.1083400  
C     1.7340070    3.1078440    0.0707770  
H     5.5253820    1.8436190   -0.4319630  
H     0.7144250    3.4628300    0.1553910  
H     1.9261000   -1.5284480    0.2356110  
C    -1.1139850   -1.9927780    2.9877700  
C    -0.1152190   -1.3310140    2.3458470  
C    -0.7292790   -0.4402220    1.3855390  
C    -2.1845290   -0.6238840    1.5342690  
N    -2.3507750   -1.5641420    2.5298400  
C    -3.1724020    0.0121170    0.8095550  
C    -2.6816040    0.9617590   -0.2013970  
O    -3.4132980    1.6132270   -0.9291410  
C    -1.1293340    1.1915130   -0.3698300  
O    -0.7781130    1.9727300   -1.2369130  
C    -0.1808350    0.4412830    0.4771370  
H     0.9411170   -1.4295520    2.5421690  
H    -1.0563670   -2.7379310    3.7697940  
H    -3.2389120   -1.9949860    2.7419460  
C    -5.2013310   -0.4719430    2.2513330  
C    -4.5915830   -0.1928000    1.0524970  
C    -5.7179020   -0.2149420    0.0807890  
C    -6.9079370   -0.5424950    0.9123570  
N    -6.5926550   -0.6771560    2.1754620  
C    -8.2233590   -0.6757970    0.3483070  
C    -8.3594590   -0.5099970   -0.9895950  
O    -9.5226170   -0.6135870   -1.6516100  
C    -7.1788510   -0.1932260   -1.8599620  
O    -7.3728220   -0.0686150   -3.0677570  
C    -5.8376740   -0.0416110   -1.2491140  
H    -9.0648670   -0.9089080    0.9911970  
H    -9.3023410   -0.4428280   -2.5938450  
H    -5.0238330    0.2325990   -1.9084050  
H    -4.7377590   -0.4872250    3.2314020  
C     3.7951060   -3.6262370   -2.3782110  
C     5.0832030   -3.9769110   -2.1646880  
C     5.6043530   -2.9816690   -1.2319080  
C     4.4425900   -2.0737370   -0.9915350  
N     3.3920420   -2.4552480   -1.6533920  
C     4.5506990   -0.9190210   -0.1097160  
C     5.7390890   -0.7400450    0.5394540  
O     5.9652170    0.2401760    1.4284660  
C     6.9106460   -1.6385800    0.3050100  
O     7.9412740   -1.4000940    0.9351810  
C     6.7889210   -2.7789800   -0.6253340  
H     5.6305360   -4.8075100   -2.5878740  
H     6.9013670    0.1223040    1.7089330  
H     7.6661410   -3.4045440   -0.7586580  
H     3.0628470   -4.1123450   -3.0107740  
