60


C     2.7873490   -1.7374360   -0.3267910  
C     3.7512250   -0.7522660   -0.1431180  
C     3.0252490    0.4555840    0.2086220  
C     1.6511260    0.1289650    0.2207210  
N     1.5458300   -1.2115020   -0.1165140  
C     0.6307480    1.0735680    0.4765500  
C     1.0585050    2.3757640    0.7648090  
O     0.1467470    3.3214560    1.1033980  
C     2.4361150    2.7086630    0.7693320  
O     2.6789990    4.0284300    1.0809970  
C     3.4173450    1.7765490    0.4910620  
H     0.6813450   -1.7321620   -0.1496670  
H     0.6270210    4.1601290    1.2239390  
H     3.6325950    4.1994090    1.0563810  
H     4.4719590    2.0326650    0.4905380  
H     2.9071770   -2.7790660   -0.5877630  
C    -1.9579410   -2.0202920    2.3999690  
C    -0.8841340   -1.2689150    2.0590790  
C    -1.3873650   -0.2948910    1.0968330  
C    -2.8386790   -0.6148100    0.9807660  
N    -3.1573380   -1.6221250    1.7424810  
C    -3.7461210    0.1562800    0.1234010  
C    -3.1534890    1.1879840   -0.5567980  
O    -3.8087120    2.0086470   -1.4040550  
C    -1.6925850    1.5034340   -0.4868790  
O    -1.2852900    2.3777460   -1.2488700  
C    -0.7982730    0.7332240    0.4291340  
H     0.1255770   -1.3354330    2.4383040  
H    -3.1096120    2.5989090   -1.7742630  
H    -2.0042370   -2.8454760    3.1000480  
C    -5.1575310   -0.1702460    0.0207620  
C    -5.8663850   -1.1742340    0.6410110  
C    -7.2341210   -1.0799600    0.2100990  
C    -7.2985100    0.0685770   -0.7279700  
N    -6.0219630    0.5719540   -0.7991830  
C    -8.4306290    0.4821220   -1.3554130  
C    -9.6705600   -0.2411210   -1.1001040  
O   -10.7377270    0.0558650   -1.6173300  
C    -9.6261990   -1.4623530   -0.1083220  
O   -10.6561970   -2.0798280    0.1184390  
C    -8.3446200   -1.8117940    0.5076460  
H    -5.4468140   -1.8904190    1.3279930  
H    -8.4594950    1.3251780   -2.0388330  
H    -8.3247580   -2.6558090    1.1904970  
H    -5.7238120    1.3592120   -1.3548030  
C     5.1691110   -0.9242180   -0.2824210  
C     5.8862260   -2.0475810   -0.6288570  
C     7.2633140   -1.6611360   -0.6122350  
C     7.2344490   -0.2065550   -0.2211880  
N     6.0188260    0.2148640   -0.0319140  
C     8.4420400    0.5643970   -0.0909210  
C     9.6132350   -0.0691190   -0.3345480  
O    10.8158140    0.5081490   -0.2557990  
C     9.6764490   -1.5367030   -0.7315220  
O    10.8043300   -1.9978470   -0.9261090  
C     8.4425420   -2.2953800   -0.8567510  
H     5.5014370   -3.0288780   -0.8698450  
H     8.3979890    1.6102220    0.1919480  
H    11.4527560   -0.2086520   -0.4881210  
H     8.5223370   -3.3397020   -1.1415610  
