58


C    -1.7600580    2.1387650   -2.4798570  
C    -2.9292030    1.7161710   -1.9265530  
C    -2.5984110    0.8797170   -0.7970640  
C    -1.1226950    0.8383690   -0.7420360  
N    -0.6764190    1.6505220   -1.7667390  
C    -0.3719210    0.0783540    0.1152470  
C    -1.1191570   -0.7264270    1.1023520  
O    -0.5678290   -1.4090010    1.9458740  
C    -2.6861170   -0.6274170    1.1318020  
O    -3.2639540   -1.1451150    2.0666050  
C    -3.3844830    0.1623630    0.0818500  
H    -3.9206920    1.9410580   -2.2859260  
H    -1.5978650    2.7654560   -3.3467050  
H     0.2905670    1.7303190   -2.0418930  
C     2.8447670    3.1411540    0.4742860  
C     1.6486160    2.5003000    0.4121610  
C     1.9241070    1.0902650    0.2194000  
C     3.3988760    0.9635560    0.1831580  
N     3.8938750    2.2445460    0.3144330  
C     4.0923800   -0.2095560    0.0303630  
C     3.2868660   -1.4432980   -0.0376580  
O     3.7804280   -2.5560910    0.0015120  
C     1.7297930   -1.3209050   -0.1322140  
O     1.0918820   -2.3049090   -0.4522220  
C     1.0936880    0.0045970    0.0955980  
H     0.6739970    2.9535130    0.5109140  
H     3.0549530    4.1920210    0.6228370  
H     4.8705890    2.4599000    0.4531820  
C     7.5575550    1.2484700    2.5085540  
C     6.2869200    1.0037300    2.0952340  
C     6.4312690    0.2441180    0.8579430  
C     7.9116210    0.1174670    0.6882720  
N     8.5605200    0.7136270    1.6515210  
C     8.4934270   -0.6046600   -0.4115630  
C     7.6521780   -1.1692270   -1.3081860  
O     8.0543630   -1.8639430   -2.3823400  
C     6.1571030   -1.0111010   -1.2062850  
O     5.4866970   -1.4195810   -2.1469040  
C     5.5551490   -0.3034060   -0.0274640  
H     5.3654010    1.2542780    2.6017750  
H     9.5711200   -0.6859660   -0.4983190  
H     7.2340950   -2.1044040   -2.8662320  
H     7.8717670    1.7759970    3.4018550  
C    -4.8344240    0.1739210    0.0443400  
C    -5.6710240    1.2181790   -0.2590610  
C    -7.0125240    0.6924640   -0.1498590  
C    -6.8109450   -0.7455270    0.2204030  
N    -5.5524920   -1.0434150    0.3388690  
C    -7.9281550   -1.6384620    0.4025290  
C    -9.1724720   -1.1281950    0.2510170  
O   -10.3026360   -1.8356350    0.3980070  
C    -9.4059960    0.3208270   -0.1059280  
O   -10.5742250    0.6917520   -0.2251260  
C    -8.2537090    1.2099550   -0.3018370  
H    -5.4001910    2.2453200   -0.4582990  
H    -7.7554790   -2.6763740    0.6640110  
H   -11.0307750   -1.1970070    0.2277370  
H    -8.4618210    2.2417460   -0.5684480  
