60


C     0.9008560   -0.2725080   -1.0132130  
C     2.0898490   -0.6689460   -0.4704200  
C     2.5201590    0.3698620    0.4258960  
C     1.5333300    1.3848770    0.3858720  
N     0.5415080    0.9782050   -0.5098980  
C     1.5815840    2.5207360    1.2001880  
C     2.6594170    2.6395220    2.0626800  
O     2.7646810    3.7356120    2.8648430  
C     3.6602980    1.6382740    2.1222460  
O     4.6659190    1.9124880    3.0196860  
C     3.6264460    0.4995640    1.3099570  
H     2.6012510   -1.5956300   -0.6876670  
H     0.8371030    3.3060790    1.1649400  
H     3.6028580    3.6560100    3.3527270  
H     5.3981830    1.2888110    2.8669860  
H     0.2779730   -0.7470070   -1.7573200  
C    -3.6439900   -0.3057460   -0.5051310  
C    -2.2861140   -0.2412270   -0.3458690  
C    -1.8675990    1.0605530   -0.7922500  
C    -3.0888370    1.7674990   -1.2296170  
N    -4.1524790    0.8991110   -0.9913410  
C    -3.1289460    3.0211230   -1.7401160  
C    -1.8718620    3.7534980   -1.8492620  
O    -1.7993510    4.9007820   -2.2563840  
C    -0.5443870    3.0342160   -1.4048900  
O     0.5143700    3.6160310   -1.5592700  
C    -0.6381620    1.6667820   -0.8482270  
H    -1.6573950   -0.9918950    0.1078200  
H    -4.0445840    3.5159170   -2.0474050  
H    -5.0312150    0.9642140   -1.4858610  
C    -4.0801900   -2.7188590   -0.3365470  
C    -5.0978830   -3.5609200   -0.0586330  
C    -6.2682400   -2.7590270    0.2381960  
C    -5.8454010   -1.3425210    0.1199350  
N    -4.4921310   -1.3711690   -0.2601810  
C    -6.6534180   -0.2880160    0.3902610  
C    -8.0464620   -0.5547530    0.7679680  
O    -8.8369060    0.3393840    1.0171930  
C    -8.5230640   -2.0458370    0.8510840  
O    -9.6823870   -2.2860430    1.1413340  
C    -7.5357320   -3.0980690    0.5824980  
H    -5.0525110   -4.6404120   -0.0690800  
H    -6.3312120    0.7462490    0.3741850  
H    -7.8588510   -4.1298900    0.6804570  
H    -3.0608330   -2.9330830   -0.6243650  
C     5.3044470   -1.0475060    2.4745060  
C     4.7078670   -0.4887580    1.3787870  
C     5.4667830   -1.0602680    0.2398560  
C     6.4677640   -1.9618280    0.8756390  
N     6.3657050   -1.9472530    2.1761710  
C     7.4119950   -2.7137340    0.0909290  
C     7.3878490   -2.5539330   -1.2543610  
O     8.2117670   -3.1881850   -2.1051870  
C     6.4114430   -1.6269500   -1.9207470  
O     6.4484530   -1.5361690   -3.1465420  
C     5.4445040   -0.8712830   -1.0924090  
H     8.1212360   -3.3716890    0.5808410  
H     7.9604910   -2.8689310   -2.9995000  
H     4.7539870   -0.2110450   -1.6075940  
H     5.0271030   -0.9060570    3.5133510  
