60


C    -1.2028050   -0.4007400   -1.5213650  
C     0.1254540   -0.7001350   -1.4215330  
C     0.2961510   -1.5524040   -0.2709140  
C    -0.9894610   -1.7480190    0.2885140  
N    -1.9027170   -1.0106650   -0.4784540  
C    -1.2245020   -2.6370510    1.3403900  
C    -0.1304060   -3.3262020    1.8390530  
O    -0.2927400   -4.2174790    2.8503430  
C     1.1786430   -3.1225390    1.3235290  
O     2.1433750   -3.8579490    1.9587180  
C     1.4292610   -2.2066000    0.2958500  
H     0.8947660   -0.3669580   -2.1034680  
H    -2.2056800   -2.8150240    1.7618470  
H     0.5892380   -4.6060330    3.0081380  
H     2.7820400   -4.1623000    1.2690920  
H    -1.7296990    0.2441790   -2.2083960  
C     3.3492240    1.6865890   -0.1501490  
C     4.5711320    1.3107700   -0.6397200  
C     4.5638480   -0.1245250   -0.7429640  
C     3.2288130   -0.5704970   -0.2787500  
N     2.5275120    0.5779890    0.0361750  
C     2.7993420   -1.8690190   -0.1606760  
C     3.8234080   -2.8763090   -0.4613230  
O     3.6928290   -4.0722480   -0.2019490  
C     5.1820000   -2.4386590   -1.1228310  
O     5.9303620   -3.3151660   -1.5266820  
C     5.4943740   -1.0193660   -1.1788840  
H     5.3706050    1.9693630   -0.9446550  
H     6.4623300   -0.7242080   -1.5703070  
H     1.6648470    0.5709240    0.5621070  
C     3.7470000    3.9937770    0.6018690  
C     3.0539430    5.1259160    0.8501720  
C     1.6569100    4.8615880    0.5690790  
C     1.5817810    3.4515530    0.1176490  
N     2.8960570    2.9523910    0.1768960  
C     0.4426310    2.8509510   -0.3026860  
C    -0.8051630    3.6205010   -0.2666030  
O    -1.8696130    3.1523860   -0.6372570  
C    -0.7559370    5.0964490    0.2592750  
O    -1.7881320    5.7422940    0.3224370  
C     0.5509420    5.6444110    0.6420940  
H     3.4654310    6.0580730    1.2097280  
H     0.3846250    1.8402660   -0.6899840  
H     0.5876430    6.6799080    0.9661660  
H     4.8016730    3.7867410    0.7153470  
C    -5.3897510   -1.3762770   -3.1599680  
C    -4.1090170   -1.4072190   -2.7173910  
C    -4.1885020   -1.0295440   -1.3102270  
C    -5.6402040   -0.7963940   -1.0771070  
N    -6.3380060   -1.0035120   -2.1590050  
C    -6.1588320   -0.4167620    0.2134690  
C    -5.2800140   -0.2699960    1.2297920  
O    -5.6258500    0.0696680    2.4841850  
C    -3.8039650   -0.4720030    1.0387530  
O    -3.0678030   -0.2505630    1.9941890  
C    -3.2874630   -0.8989050   -0.3035230  
H    -3.2180750   -1.6762870   -3.2660200  
H    -7.2237210   -0.2609260    0.3440680  
H    -4.7840880    0.1473120    2.9819240  
H    -5.7542890   -1.6060380   -4.1539990  
