58


C    -2.3209750   -0.7338400    0.0930660  
C    -3.3650230    0.1372140   -0.0649590  
C    -2.8512430    1.4623200    0.2869210  
C    -1.4194000    1.2732780    0.6275100  
N    -1.1419060   -0.0789240    0.4542800  
C    -0.5903510    2.2609560    1.0619380  
C    -1.1204880    3.6139130    1.1953310  
O    -0.4399310    4.5601470    1.5633360  
C    -2.6315780    3.8380290    0.8505110  
O    -3.1019800    4.9601480    0.9494540  
C    -3.4298630    2.6836640    0.4212110  
H     0.4314780    2.0830600    1.3771000  
H    -4.4742160    2.8615040    0.2028330  
H    -2.3233060   -1.8058750   -0.0152710  
C     2.8187530    0.9210320   -1.0645790  
C     3.5503980   -0.0678970   -0.4727660  
C     2.5927900   -0.8922270    0.2745220  
C     1.2651750   -0.2713660    0.0657240  
N     1.4628300    0.7965780   -0.7777550  
C     0.1037680   -0.7184870    0.6381750  
C     0.1701280   -1.9246790    1.4759580  
O    -0.8126830   -2.4213490    1.9997780  
C     1.5754820   -2.5956200    1.6894320  
O     1.6371870   -3.5900070    2.3912740  
C     2.7464810   -2.0030440    1.0383890  
H     3.7015870   -2.4945550    1.1768130  
H     3.1543170    1.7080280   -1.7273850  
H     0.7615150    1.4913190   -0.9902490  
C     6.8368510    2.7788240    0.1432200  
C     7.8930720    1.9841030   -0.1615540  
C     7.3670670    0.6783250   -0.5025990  
C     5.8930050    0.7820360   -0.3741450  
N     5.6343970    2.0908410   -0.0154700  
C     5.0059360   -0.2423860   -0.5714460  
C     5.5844900   -1.5454990   -0.9500420  
O     4.9025060   -2.5357370   -1.1602480  
C     7.1465070   -1.6696650   -1.1046400  
O     7.6129320   -2.7545320   -1.4120970  
C     7.9685570   -0.4861190   -0.8644120  
H     8.9352130    2.2681150   -0.1532190  
H     9.0443530   -0.5854320   -0.9698610  
H     6.8224650    3.8145190    0.4560390  
H     4.7369210    2.4098050    0.3184900  
C    -5.5167630   -3.5988640    0.6716990  
C    -6.7262060   -3.3568920    0.1200950  
C    -6.6307180   -2.0094870   -0.4337310  
C    -5.2392710   -1.5706420   -0.0957340  
N    -4.5998540   -2.5032910    0.5430530  
C    -4.7187970   -0.2509600   -0.4624380  
C    -5.5704620    0.5235980   -1.2012310  
O    -5.2448560    1.7309230   -1.7044650  
C    -6.9631860    0.1043270   -1.5522240  
O    -7.6425960    0.8882200   -2.2175180  
C    -7.4673710   -1.2128050   -1.1220010  
H    -7.5894930   -4.0065210    0.0828640  
H    -6.0545300    2.0347000   -2.1753120  
H    -8.4839040   -1.4730950   -1.4007190  
H    -5.1758870   -4.4913340    1.1817790  
