60


C     2.4434860   -1.2239310   -0.9268900  
C     1.2839030   -0.5102640   -0.9061260  
C     1.5364430    0.7154030   -0.1914400  
C     2.8941710    0.6862340    0.2086230  
N     3.4422460   -0.5297380   -0.2340180  
C     3.5208930    1.7746270    0.8180230  
C     2.7498480    2.9063990    1.0366450  
O     3.3046800    4.0007200    1.6176650  
C     1.3822000    2.9601630    0.6615280  
O     0.7707870    4.1481370    0.9719420  
C     0.7357350    1.8630390    0.0788040  
H     0.3498750   -0.8254660   -1.3475740  
H     4.5623640    1.7762480    1.1117700  
H     2.6021240    4.6791600    1.6314070  
H     0.2074500    4.3927470    0.2010180  
H     2.6601040   -2.2007590   -1.3322840  
C    -2.4776630   -1.0003540    1.0586850  
C    -1.3204820   -0.3014430    0.9808970  
C    -1.5464160    0.8338570    0.1176210  
C    -2.9597310    0.7422680   -0.3174960  
N    -3.4815330   -0.4272290    0.2617750  
C    -3.5855880    1.6687480   -1.0806730  
C    -2.8084770    2.8220230   -1.5138860  
O    -3.2534110    3.6937300   -2.2413840  
C    -1.3368790    2.9711030   -0.9893400  
O    -0.7883060    4.0524330   -1.1923960  
C    -0.7067970    1.8610930   -0.2557140  
H    -0.3933510   -0.5484490    1.4740510  
H    -4.6098540    1.5901690   -1.4208390  
H    -2.7017750   -1.9055440    1.6055220  
C    -6.3973840   -1.8128960    3.2776400  
C    -5.2749820   -1.2772100    2.7366260  
C    -5.5000770   -1.3101930    1.2959800  
C    -6.8501800   -1.9256930    1.1522600  
N    -7.3692770   -2.2148380    2.3126400  
C    -7.4679060   -2.1300030   -0.1336120  
C    -6.7818670   -1.7478300   -1.2342470  
O    -7.2426840   -1.8724500   -2.4901060  
C    -5.4069830   -1.1503140   -1.1438680  
O    -4.8151010   -0.9104700   -2.1905480  
C    -4.7969090   -0.9092850    0.2049460  
H    -4.4147750   -0.8766580    3.2536730  
H    -8.4549250   -2.5742960   -0.1944900  
H    -6.5218400   -1.5620260   -3.0782460  
H    -6.6261650   -1.9508600    4.3275290  
C     6.3223780   -2.3572680   -3.0416380  
C     5.2015870   -1.7562400   -2.5713160  
C     5.4535050   -1.5485160   -1.1485870  
C     6.8137840   -2.1072150   -0.9366250  
N     7.3186110   -2.5771410   -2.0444930  
C     7.4642240   -2.0823400    0.3504090  
C     6.7954940   -1.5284530    1.3858660  
O     7.2843120   -1.4306490    2.6358710  
C     5.4088090   -0.9759760    1.2291810  
O     4.8393030   -0.5716020    2.2374660  
C     4.7604400   -0.9790950   -0.1261580  
H     4.3213290   -1.4601010   -3.1231540  
H     8.4606440   -2.4951830    0.4609400  
H     6.5662770   -1.0333540    3.1733280  
H     6.5340690   -2.6644250   -4.0587670  
