58


C     0.2996010    1.6648170    0.3899110  
C     0.2601360    3.0242980    0.5741070  
C     1.6131820    3.5004190    0.4505740  
C     2.4458340    2.3097530    0.1941610  
N     1.5962660    1.2372040    0.1605180  
C     3.8177720    2.2923100    0.0187910  
C     4.4834690    3.6156740    0.0762370  
O     5.6814640    3.7717590   -0.0808680  
C     3.6096930    4.8955910    0.3587980  
O     4.1744100    5.9764210    0.4163790  
C     2.1695180    4.7433480    0.5359090  
H    -0.6058600    3.6246450    0.8082680  
H     1.5865290    5.6391190    0.7255460  
H     1.9846840    0.3137460   -0.0490480  
C    -2.0745690    1.1414080    0.1315900  
C    -2.9233120    0.0768040    0.1235440  
C    -2.1102830   -1.1124940    0.3757580  
C    -0.7175190   -0.6373020    0.5553840  
N    -0.7526180    0.7588270    0.3700870  
C     0.3201660   -1.4540450    0.8603120  
C     0.0830160   -2.9008840    0.9108000  
O     0.9880290   -3.7009180    1.0819000  
C    -1.3769640   -3.4220490    0.7100460  
O    -1.6058200   -4.6159840    0.7875250  
C    -2.4260690   -2.4302300    0.4355510  
H     1.3338620   -1.1277000    1.0539610  
H    -3.4331210   -2.8018220    0.2788400  
H    -2.3027510    2.1852290   -0.0278720  
C    -4.3516880    0.1458690   -0.1213550  
C    -5.0520900    1.0185790   -0.9085230  
C    -6.4538080    0.6997400   -0.7927680  
C    -6.5362020   -0.4478030    0.1426150  
N    -5.2272420   -0.7767380    0.4732330  
C    -7.6928730   -1.0176850    0.5572260  
C    -8.9527440   -0.4915390    0.0292460  
O   -10.0420150   -0.9413660    0.3456500  
C    -8.8873790    0.6990050   -0.9960550  
O    -9.9286410    1.1427440   -1.4538880  
C    -7.5722210    1.2372240   -1.3511700  
H    -4.6233740    1.7707440   -1.5555870  
H    -7.7364730   -1.8522080    1.2503780  
H    -7.5397180    2.0705680   -2.0463790  
H    -4.9909390   -1.2961000    1.3067550  
C     4.5580850    1.0745580   -0.1850720  
C     5.9023740    0.8810820   -0.3937100  
C     6.0898270   -0.5386550   -0.4933860  
C     4.7169820   -1.1235640   -0.3160890  
N     3.8312360   -0.1827020   -0.1519510  
C     4.4808130   -2.5400910   -0.3266570  
C     5.5564480   -3.3402390   -0.5292890  
O     5.5048910   -4.6714400   -0.5650690  
C     6.9581710   -2.7841490   -0.7330980  
O     7.8540190   -3.6095860   -0.9115430  
C     7.1669270   -1.3402860   -0.6989960  
H     6.6571600    1.6476240   -0.4598720  
H     3.4882780   -2.9431920   -0.1525210  
H     6.4329550   -4.9629580   -0.7247660  
H     8.1788240   -0.9736540   -0.8379660  
