58


C     0.6964640   -0.0966900   -1.4217900  
C     2.0299680   -0.2597480   -1.2202630  
C     2.4439520    0.6898720   -0.2201520  
C     1.2224480    1.4285200    0.1686640  
N     0.1835750    0.9323960   -0.6288140  
C     1.1589110    2.3371330    1.1731210  
C     2.3837210    2.6383650    1.9079900  
O     2.4067290    3.3818060    2.8759110  
C     3.7237190    1.9934070    1.4163270  
O     4.7678200    2.4294410    1.8614780  
C     3.6623860    0.9273650    0.3796870  
H     2.6567900   -0.9903200   -1.7067880  
H     0.2475930    2.8367650    1.4749710  
H     0.0294290   -0.6370140   -2.0758950  
C    -3.2882250   -1.5767290   -0.3403320  
C    -4.3221210   -0.6771030   -0.3097400  
C    -3.6434310    0.6414080   -0.4194850  
C    -2.2021380    0.2981680   -0.4911260  
N    -2.0093920   -0.9922640   -0.4587360  
C    -1.1700910    1.3165320   -0.5915570  
C    -1.5775820    2.6190070   -0.6291580  
O    -0.7418660    3.6623870   -0.7502120  
C    -3.0189990    2.9849610   -0.5299010  
O    -3.3053380    4.1816530   -0.5647360  
C    -4.0487170    1.9247380   -0.4324460  
H    -1.3207180    4.4581540   -0.7398850  
H    -5.0838630    2.2408790   -0.4158700  
H    -3.3571870   -2.6581300   -0.3394940  
C    -6.3245730   -3.7498850    2.0899360  
C    -7.6152040   -3.5075170    1.7501910  
C    -7.6131580   -2.4003980    0.8175290  
C    -6.1945860   -2.0162520    0.6326640  
N    -5.4648540   -2.8935860    1.4038300  
C    -5.7394810   -0.9696930   -0.1398340  
C    -6.7862990   -0.1797790   -0.8220050  
O    -6.5440960    0.7991920   -1.5095470  
C    -8.2949880   -0.6108120   -0.6787370  
O    -9.1362840    0.0339130   -1.2825240  
C    -8.6199450   -1.7453630    0.1787490  
H    -8.4862730   -4.0372610    2.1069130  
H    -9.6647560   -2.0178080    0.2893730  
H    -5.9160590   -4.4869050    2.7683630  
H    -4.4824180   -2.7731890    1.6044870  
C     4.8749940    0.2123330    0.0245610  
C     5.2839370   -0.2167670   -1.2115050  
C     6.5516640   -0.8772140   -1.0005010  
C     6.7717090   -0.7785410    0.4790690  
N     5.8060750   -0.1438810    1.0710810  
C     7.9386340   -1.3496280    1.1049740  
C     8.8449040   -1.9602710    0.3069940  
O     9.9787330   -2.5280860    0.7455420  
C     8.6565400   -2.0609470   -1.1887790  
O     9.5353810   -2.6400080   -1.8288950  
C     7.4546860   -1.4859490   -1.8042010  
H     4.8070310   -0.0341460   -2.1640350  
H     8.0720960   -1.2697340    2.1779730  
H    10.4177580   -2.8795460   -0.0614020  
H     7.3495220   -1.5879370   -2.8800520  
