62


C     0.6192820    1.6907420   -0.1517740  
C     1.6476240    0.7494920   -0.1619980  
C     1.0617170   -0.5401410   -0.0711810  
C    -0.3496340   -0.3473470   -0.0149980  
N    -0.5829070    0.9979910   -0.0520410  
C    -1.2829730   -1.4159300    0.0143980  
C    -0.7053970   -2.6880700   -0.1004510  
O    -1.4817670   -3.8036630   -0.1386350  
C     0.7030540   -2.9003600   -0.1488140  
O     1.0412090   -4.2318580   -0.1952830  
C     1.6186520   -1.8558420   -0.0945180  
H     2.6955170    0.9640550   -0.2949490  
H    -1.4740460    1.4540470   -0.2017260  
H    -0.8561830   -4.5533470   -0.2275800  
H     1.7669140   -4.3373470   -0.8532950  
C    -2.7183100   -1.1960750    0.1302660  
C    -3.4017500   -0.0994310    0.6081890  
C    -4.8102590   -0.3756750    0.5219650  
C    -4.9247100   -1.7396340   -0.0514510  
N    -3.6364500   -2.1675370   -0.2811310  
C    -6.1008610   -2.3790050   -0.2785820  
C    -7.3422020   -1.6883630    0.0555140  
O    -8.4467580   -2.1843700   -0.1125640  
C    -7.2451320   -0.2379120    0.6587720  
O    -8.2775620    0.3540210    0.9400170  
C    -5.9186880    0.3422960    0.8580470  
H    -2.9709310    0.7871210    1.0475010  
H    -6.1651850   -3.3784730   -0.6976710  
H    -5.8640770    1.3425920    1.2771280  
H    -3.3598490   -3.1040450   -0.5364440  
C     3.8351900    4.7933990    0.2954070  
C     3.1880940    3.6005020    0.3475450  
C     1.8196090    3.8855120   -0.0665940  
C     1.8288340    5.3450790   -0.3227790  
N     3.0082560    5.8723640   -0.1233620  
C     0.6490090    6.0639470   -0.7331150  
C    -0.5042560    5.3700460   -0.8529260  
O    -1.6840820    5.9250820   -1.1926660  
C    -0.5621960    3.9001560   -0.5888310  
O    -1.6755860    3.3699140   -0.6677750  
C     0.6864530    3.1313950   -0.2470210  
H     3.5924340    2.6539170    0.6732970  
H     0.7006530    7.1319680   -0.9132050  
H    -2.3390520    5.1964180   -1.1819920  
H     4.8704250    4.9983290    0.5408550  
C     4.7042090   -0.2022940    2.6247910  
C     5.7932530   -0.8302010    2.0799390  
C     5.3152310   -1.6252910    0.9858950  
C     3.9092720   -1.4285840    0.9085060  
N     3.5681510   -0.5628690    1.9258000  
C     3.0829170   -2.0773800   -0.0419590  
C     3.7504220   -2.9542990   -0.8980090  
O     3.0359020   -3.6591220   -1.8510070  
C     5.1476450   -3.1630450   -0.8394130  
O     5.6080700   -4.0659420   -1.7794930  
C     5.9384780   -2.5074370    0.0829950  
H     6.8152280   -0.7465380    2.4223110  
H     2.6352860   -0.2243530    2.1041270  
H     3.6810720   -4.1854950   -2.3591380  
H     6.5736390   -4.1264820   -1.7332820  
H     7.0115160   -2.6817970    0.1177680  
H     4.6364140    0.4757870    3.4637880  
