60


C    -0.7845430   -1.4308570   -0.6888170  
C     0.5677210   -1.3770510   -0.9166120  
C     0.9951060   -0.0477910   -0.5844040  
C    -0.1552130    0.6541440   -0.1405460  
N    -1.2295960   -0.2119000   -0.1980080  
C    -0.1051040    1.9819630    0.3167150  
C     1.1478310    2.5987060    0.3274010  
O     1.2542890    3.8927240    0.7346970  
C     2.3027070    1.8979250   -0.0873300  
O     3.4543720    2.6612190   -0.0177070  
C     2.2697740    0.5786450   -0.5449720  
H     1.1878640   -2.2037100   -1.2298290  
H    -2.2001470    0.0682990   -0.1620290  
H     2.1843010    4.1539400    0.6053480  
H     4.1068900    2.3176090   -0.6488020  
C    -1.7227490   -3.2675780   -2.0659350  
C    -2.6471880   -4.2511380   -1.9667340  
C    -3.2735290   -4.1320170   -0.6660700  
C    -2.6203710   -2.9812950    0.0044630  
N    -1.6852110   -2.4770010   -0.9049930  
C    -2.9073900   -2.5653690    1.2630360  
C    -3.9420230   -3.2804300    2.0111240  
O    -4.2602170   -2.9786050    3.1503870  
C    -4.6657110   -4.4860610    1.3102180  
O    -5.5392280   -5.0860060    1.9153370  
C    -4.2500670   -4.8464000   -0.0489450  
H    -2.8857010   -4.9828950   -2.7248510  
H    -2.4035020   -1.7390310    1.7519700  
H    -4.7423230   -5.6925920   -0.5184690  
H    -1.0611500   -3.0147410   -2.8831820  
C     3.6616080   -0.9027220   -2.0815740  
C     3.4862350   -0.1204220   -0.9765220  
C     4.7806460   -0.2243200   -0.2649360  
C     5.6054560   -1.1200930   -1.1318840  
N     4.9431580   -1.5041020   -2.1884090  
C     6.9537420   -1.4792510   -0.7822950  
C     7.4566880   -1.0010360    0.3816200  
O     8.6927390   -1.2614570    0.8317930  
C     6.6439200   -0.1154440    1.2866960  
O     7.1667510    0.2801300    2.3254010  
C     5.2633430    0.2530390    0.8987210  
H     7.5286270   -2.1242170   -1.4374670  
H     8.7698840   -0.7883430    1.6890800  
H     4.7158650    0.9016700    1.5746400  
H     2.9367200   -1.0902520   -2.8649320  
C    -1.3902460    3.3079760    2.0052010  
C    -2.6141570    3.8670860    2.1515960  
C    -3.3545180    3.6163530    0.9333140  
C    -2.4400940    2.8534740    0.0457560  
N    -1.2586690    2.6746350    0.7568330  
C    -2.7579360    2.4552050   -1.2157080  
C    -4.0862790    2.7757150   -1.7343110  
O    -4.4532060    2.4599390   -2.8558660  
C    -5.0769530    3.5602600   -0.8005800  
O    -6.1958920    3.8225930   -1.2111740  
C    -4.6078380    3.9524910    0.5321040  
H    -2.9734540    4.4040250    3.0174170  
H    -2.0617620    1.9489030   -1.8755480  
H    -5.2916940    4.5155060    1.1600620  
H    -0.5522810    3.2878620    2.6869330  
