60


C    -2.2445790   -0.5394700   -0.0653970  
C    -1.4125410    0.5573150   -0.1556590  
C    -2.2777030    1.7279380   -0.1243670  
C    -3.6100230    1.2610780   -0.0506020  
N    -3.5679170   -0.1462380   -0.0051040  
C    -4.7099970    2.1194890    0.0214410  
C    -4.4630750    3.4828540   -0.0233670  
O    -5.5014580    4.3597630    0.0382590  
C    -3.1354800    3.9699250   -0.1293200  
O    -3.0465720    5.3438480   -0.1634990  
C    -2.0506040    3.1145680   -0.1794450  
H    -5.7318980    1.7702800    0.0877590  
H    -5.1282300    5.2575590   -0.0000680  
H    -2.1155420    5.6114640   -0.1862330  
H    -1.0422030    3.5110080   -0.2178990  
H    -1.9915380   -1.5881050   -0.0292460  
C     1.2649680   -2.2224190   -2.3550070  
C     0.1645400   -1.5499240   -1.9423310  
C     0.6580330   -0.5348400   -1.0223970  
C     2.1329480   -0.7375830   -1.0075330  
N     2.4708870   -1.7328520   -1.7811780  
C     3.0476420    0.0968500   -0.2172760  
C     2.4359740    1.1187690    0.4772190  
O     3.0619000    2.0273680    1.2255740  
C     0.9433680    1.3378560    0.4650770  
O     0.5316770    2.2916880    1.1277600  
C     0.0337010    0.4311980   -0.2879560  
H    -0.8594060   -1.6930960   -2.2543250  
H     2.3414160    2.5966940    1.5840940  
H     1.3237160   -3.0466700   -3.0554410  
C     4.4741550   -0.1573330   -0.2037930  
C     5.1727800   -1.1120270   -0.9015510  
C     6.5553350   -0.9414200   -0.5260050  
C     6.5376300    0.1975730    0.4460130  
N     5.3374450    0.6507740    0.6335000  
C     7.7488200    0.6803190    1.0636690  
C     8.9088930    0.0679430    0.7323340  
O    10.1115070    0.4062210    1.2228360  
C     8.9572220   -1.0832390   -0.2461130  
O    10.0632320   -1.5730590   -0.4807690  
C     7.7132920   -1.5589600   -0.8607350  
H     4.7614660   -1.8359400   -1.5856980  
H     7.7099240    1.5063200    1.7650470  
H    10.7437210   -0.2153050    0.7961030  
H     7.7861030   -2.3887990   -1.5570490  
C    -4.2884990   -3.5442840    2.7228020  
C    -3.6983650   -2.4641310    2.1546000  
C    -4.6127410   -2.0497350    1.0961890  
C    -5.7316370   -3.0316340    1.1763920  
N    -5.5376610   -3.9003640    2.1286690  
C    -6.8737310   -2.9665690    0.2998010  
C    -6.9100020   -1.9759320   -0.6194040  
O    -7.9154280   -1.7934740   -1.4923900  
C    -5.7955780   -0.9774560   -0.7561200  
O    -5.8697200   -0.1594530   -1.6663670  
C    -4.6314910   -1.0421920    0.1860620  
H    -2.7701610   -1.9872200    2.4340010  
H    -7.6698820   -3.6964200    0.3937270  
H    -7.6497630   -1.0358760   -2.0563060  
H    -3.9276280   -4.1354980    3.5557950  
