58


C     3.7697920   -0.6722830   -0.1381560  
C     4.3869180    0.3770110   -0.7737280  
C     5.7995110    0.2084700   -0.5298290  
C     5.8786900   -1.0246400    0.3181690  
N     4.7051870   -1.5380610    0.5371250  
C     7.1409320   -1.5239560    0.8022610  
C     8.2612380   -0.8530580    0.4454710  
O     9.5013810   -1.2047840    0.8135760  
C     8.2134030    0.3835830   -0.4218450  
O     9.2862300    0.9258310   -0.6896380  
C     6.9163060    0.8826010   -0.8933720  
H     3.9279290    1.1312210   -1.3965240  
H     7.1718110   -2.4143000    1.4201680  
H    10.0928440   -0.5346430    0.4030410  
H     6.9214580    1.7775500   -1.5081480  
C     0.0826330    1.8422450    0.0526620  
C     1.4019170    1.4273860   -0.0026320  
C     1.3670420    0.0088990   -0.0293590  
C    -0.0999820   -0.3313950    0.0360600  
N    -0.8292880    0.7505390    0.0716020  
C    -0.5969910   -1.6964350    0.0582280  
C     0.3863330   -2.6632300    0.0381360  
O     0.1662540   -3.9641940    0.0998160  
C     1.8787710   -2.3516020   -0.0572390  
O     2.6054420   -3.3372860   -0.1571140  
C     2.3509110   -0.9585840   -0.0693060  
H     2.2862210    2.0461360   -0.0180980  
H     1.0665040   -4.3729950    0.0300720  
C    -2.0200280   -1.9905290    0.1020690  
C    -3.0482800   -1.1679250    0.4784240  
C    -4.2544590   -1.9492120    0.3242180  
C    -3.7719930   -3.2737310   -0.1815040  
N    -2.4806710   -3.2987000   -0.3095460  
C    -4.6890500   -4.3463850   -0.4788250  
C    -6.0071100   -4.1183540   -0.2755370  
O    -6.9751990   -5.0193820   -0.5005880  
C    -6.5221090   -2.7922220    0.2377070  
O    -7.7391300   -2.6859370    0.3905070  
C    -5.5713770   -1.7101870    0.5232480  
H    -2.9735380   -0.1532120    0.8320220  
H    -4.3155150   -5.2955270   -0.8465980  
H    -7.8118450   -4.5595650   -0.2624340  
H    -5.9777920   -0.7658410    0.8724200  
C     0.3058560    4.3268310    0.2670560  
C    -0.4391440    3.1767890    0.1065000  
C    -1.8398490    3.6100820    0.0211140  
C    -1.8254300    5.0851450    0.1523940  
N    -0.4895420    5.4414780    0.2942120  
C    -2.9177050    5.8852710    0.1274730  
C    -4.2275760    5.2543780   -0.0435020  
O    -5.2693860    5.8877750   -0.0779020  
C    -4.2723580    3.6912200   -0.1896210  
O    -5.3526810    3.1402560   -0.3179180  
C    -3.0065000    2.9425080   -0.1586820  
H    -2.8735920    6.9659010    0.2218660  
H    -3.0387780    1.8668660   -0.2773870  
H     1.3774760    4.4248530    0.3799180  
H    -0.1581420    6.3863940    0.4217370  
