62


C     0.2257970    1.9931750   -0.7316720  
C    -1.1323860    1.7624030   -0.8155430  
C    -1.3492880    0.3588280   -0.6443420  
C    -0.0787680   -0.2348740   -0.4337880  
N     0.8536050    0.7787790   -0.4727530  
C     0.1282210   -1.6250540   -0.2595670  
C    -1.0446860   -2.4143210   -0.2790300  
O    -0.9783240   -3.7504330   -0.0882950  
C    -2.3180080   -1.8264310   -0.4480110  
O    -3.3553580   -2.7501480   -0.4216390  
C    -2.5168760   -0.4543690   -0.6241870  
H    -1.8859210    2.5268570   -0.9354880  
H     1.8465620    0.6217280   -0.5729280  
H    -1.8861280   -4.0914820   -0.1928430  
H    -4.0779230   -2.4349080   -0.9871530  
C     0.6931510    4.2527420   -1.7405370  
C     0.9894240    3.2204060   -0.8743530  
C     2.1876150    3.6148370   -0.1631550  
C     2.5612190    4.8914060   -0.6538320  
N     1.6276710    5.2541570   -1.6061350  
C     3.6781560    5.5896220   -0.1795390  
C     4.4309800    4.9910600    0.8183170  
O     5.5289200    5.6280610    1.3164390  
C     4.0618670    3.7214130    1.3376960  
O     4.8990220    3.2655110    2.3378500  
C     2.9592160    3.0342600    0.8640670  
H     1.6488500    6.1039290   -2.1479230  
H     3.9639090    6.5676420   -0.5529810  
H     5.8975290    5.0632180    2.0175010  
H     4.5351230    2.4550990    2.7236150  
H     2.6829610    2.0764890    1.2998410  
H    -0.1071580    4.3317420   -2.4621830  
C     1.4561500   -2.1859330   -0.1016440  
C     2.5591320   -1.6015720    0.4806570  
C     3.6336610   -2.5487810    0.3390740  
C     3.0100320   -3.6947460   -0.4017860  
N     1.7510640   -3.4873010   -0.6480850  
C     3.7760110   -4.8589030   -0.7686560  
C     5.0767410   -4.8957670   -0.3970490  
O     5.9104490   -5.9127780   -0.6573050  
C     5.7280820   -3.7631810    0.3678310  
O     6.9194770   -3.9000390    0.6562540  
C     4.9370850   -2.5841470    0.7141540  
H     2.5975330   -0.6745910    1.0354390  
H     3.3052190   -5.6698850   -1.3129130  
H     6.7704810   -5.6411920   -0.2620150  
H     5.4420420   -1.7871960    1.2514760  
C    -4.2305730    1.0992010   -1.6831000  
C    -3.8519470    0.1179060   -0.8096620  
C    -5.0858430   -0.1517020   -0.0319830  
C    -6.0976940    0.7767840   -0.6166910  
N    -5.5881530    1.4928800   -1.5825700  
C    -7.4482710    0.8323820   -0.1255640  
C    -7.7782840    0.0324850    0.9174170  
O    -8.9967040   -0.0117170    1.4799120  
C    -6.7757290   -0.8931030    1.5460720  
O    -7.1480680   -1.5884370    2.4895840  
C    -5.3963230   -0.9449120    1.0126800  
H    -8.1611320    1.5113360   -0.5802490  
H    -8.9273760   -0.6727720    2.2033410  
H    -4.7079650   -1.6369070    1.4856540  
H    -3.6084070    1.5744420   -2.4314470  
