58


C     1.3151860    1.4282220   -0.8549720  
C     2.6661470    1.3744760   -0.7647500  
C     3.0082430    0.1651340   -0.0525110  
C     1.7199850   -0.4964090    0.2735560  
N     0.7151900    0.3035170   -0.2649110  
C     1.6072350   -1.6570880    0.9743920  
C     2.8281090   -2.3291610    1.4059440  
O     2.8241780   -3.3901310    2.0097900  
C     4.2027920   -1.6532360    1.0767850  
O     5.2235340   -2.1600310    1.5062650  
C     4.2088000   -0.3867320    0.3038490  
H     3.3589560    2.1090520   -1.1459420  
H     0.6582830   -2.1017790    1.2511500  
H     0.6842700    2.1833380   -1.2985410  
C    -1.6766200   -3.1802750   -1.3463510  
C    -2.9001220   -2.7127850   -0.9890250  
C    -2.7277710   -1.3692070   -0.4789630  
C    -1.2822450   -1.0905450   -0.5767500  
N    -0.7006920   -2.2159580   -1.1056660  
C    -0.6784120    0.0866640   -0.2015280  
C    -1.5447500    1.1730090    0.2303940  
O    -1.1397040    2.2941970    0.5005630  
C    -3.0953670    0.9047570    0.3190150  
O    -3.7899650    1.8412210    0.6707350  
C    -3.6380360   -0.4370670   -0.0138670  
H    -3.8358360   -3.2363790   -1.1047920  
H    -1.3980900   -4.1316040   -1.7782820  
H     0.2941480   -2.3548190   -1.2026380  
C    -5.5473860   -1.9495990    0.6281370  
C    -5.0386870   -0.7431000    0.2090360  
C    -6.2484960    0.0994370    0.0328420  
C    -7.3758860   -0.8133540    0.3831090  
N    -6.9458750   -1.9982220    0.7403160  
C    -8.7488020   -0.3983100    0.3238460  
C    -9.0095430    0.8678180   -0.0837440  
O   -10.2383960    1.3892350   -0.1937650  
C    -7.9001420    1.8106680   -0.4610690  
O    -8.2118030    2.9385460   -0.8349020  
C    -6.4926180    1.3599470   -0.3727650  
H    -9.5351160   -1.0943610    0.5935720  
H   -10.1073180    2.3104150   -0.5105220  
H    -5.7281660    2.0863250   -0.6170400  
H    -4.9768780   -2.8251520    0.9136120  
C     6.2440790    3.5241180    1.1775300  
C     5.3018800    2.5519190    1.1299360  
C     5.9149040    1.4665130    0.3711440  
C     7.2811800    1.9849350    0.0421160  
N     7.4653050    3.1849370    0.5140640  
C     8.2382330    1.1959320   -0.6888130  
C     7.8633260   -0.0430140   -1.0813510  
O     8.6455440   -0.8816720   -1.7788270  
C     6.4864460   -0.5835840   -0.8012060  
O     6.1954510   -1.6669860   -1.2974750  
C     5.5143030    0.2242000    0.0002690  
H     4.3115000    2.5605630    1.5615060  
H     9.2207680    1.5993530   -0.9067750  
H     8.0963860   -1.6793620   -1.9425390  
H     6.1730750    4.4937700    1.6561270  
