64


C    -1.2872110   -0.0863660   -1.6999860  
C    -0.5559810   -0.1997820   -0.5349020  
C    -1.5254790   -0.2555470    0.5371500  
C    -2.8128740   -0.1705940   -0.0470330  
N    -2.6369890   -0.0576820   -1.4095320  
C    -4.0061560   -0.1388100    0.7140900  
C    -3.8543050   -0.2358350    2.1013680  
O    -4.9552840   -0.2998980    2.8970420  
C    -2.5701840   -0.3315190    2.6932560  
O    -2.6046550   -0.4292700    4.0715910  
C    -1.4147030   -0.3324340    1.9379720  
H    -3.3804870   -0.0822540   -2.0906510  
H    -4.6429750   -0.3357430    3.8182230  
H    -1.7043420   -0.5483560    4.4084140  
H    -0.4414580   -0.4270170    2.4097530  
H    -0.9473860   -0.0744150   -2.7263560  
C     2.4043430    2.3952220   -2.4803120  
C     3.5423380    1.8131080   -1.9824390  
C     3.1295870    0.7416140   -1.1116850  
C     1.7115460    0.7157670   -1.1458800  
N     1.3008390    1.7311280   -1.9858000  
C     0.9138390   -0.2108160   -0.4396190  
C     1.6312410   -1.1408530    0.3124610  
O     0.9782850   -2.1068370    1.0233100  
C     3.0510260   -1.1367940    0.3699480  
O     3.5690520   -2.1250370    1.1848990  
C     3.8325560   -0.2011480   -0.3086220  
H     4.5558720    2.0902140   -2.2339330  
H     0.3358180    1.9923710   -2.1189750  
H     1.6899560   -2.6566730    1.4070190  
H     4.3183650   -2.5411990    0.7050530  
H     2.2877370    3.2218420   -3.1670680  
C     6.5020090    3.1738280    0.7097060  
C     7.6941500    2.4971280    0.6843850  
C     7.3956950    1.1356360    0.3438790  
C     5.9878900    1.0494560    0.1663400  
N     5.4719740    2.3042880    0.4149960  
C     5.3086450   -0.1499210   -0.1558670  
C     6.1306090   -1.2702170   -0.2738370  
O     5.5714780   -2.5048770   -0.5598450  
C     7.5332090   -1.2097310   -0.1007550  
O     8.1641660   -2.4325960   -0.2604560  
C     8.1777900   -0.0266120    0.2007160  
H     8.6692860    2.9142880    0.8949400  
H     4.5069130    2.5587990    0.2655660  
H     6.3077080   -3.1406250   -0.6202310  
H     9.1226800   -2.3132310   -0.1923270  
H     9.2569470   -0.0009640    0.3367190  
H     6.2952890    4.2134240    0.9222140  
C    -6.2771580   -2.2524260   -2.5234430  
C    -5.3039190   -1.9291740   -1.6355540  
C    -5.8165620   -0.7648550   -0.9167770  
C    -7.1575820   -0.5330320   -1.5255550  
N    -7.4205750   -1.4015970   -2.4640790  
C    -8.0260970    0.5245910   -1.0754250  
C    -7.5793980    1.3177980   -0.0764330  
O    -8.2742310    2.3459070    0.4399680  
C    -6.2103610    1.1444860    0.5303430  
O    -5.8501180    1.9976200    1.3335720  
C    -5.3333830    0.0046800    0.0962300  
H    -4.3649920   -2.4346070   -1.4593540  
H    -8.9990340    0.6618710   -1.5340970  
H    -7.6728710    2.7569460    1.0994300  
H    -6.2800390   -3.0688140   -3.2364190  
