60


C     2.8470860    1.2524980   -0.8048960  
C     3.8026570    0.4474940   -0.2030400  
C     3.0949670   -0.7370040    0.2535680  
C     1.7341440   -0.5670390   -0.0962990  
N     1.6210240    0.6517950   -0.7401250  
C     0.7169240   -1.4851730    0.2541770  
C     1.1282230   -2.6234250    0.9560790  
O     0.2288770   -3.5953140    1.2487010  
C     2.4879450   -2.8075100    1.3097500  
O     2.7218310   -3.9835880    1.9890430  
C     3.4624230   -1.8867190    0.9792550  
H     0.7788990    1.0001730   -1.1739650  
H     0.6919610   -4.2755210    1.7694510  
H     3.6670970   -4.0689800    2.1837850  
H     4.4981980   -2.0672570    1.2443780  
H     2.9781850    2.1937050   -1.3183310  
C    -1.5841930   -0.6279400   -3.4922350  
C    -0.5654350   -0.9057830   -2.6426960  
C    -1.1773040   -0.9850320   -1.3188100  
C    -2.6170510   -0.7244780   -1.5791770  
N    -2.8501120   -0.5177790   -2.8445950  
C    -3.6064660   -0.7312090   -0.5114150  
C    -3.1577560   -1.0367680    0.7398030  
O    -3.9561050   -1.1245270    1.8166500  
C    -1.7074380   -1.2478440    1.0359630  
O    -1.3987550   -1.3854090    2.2156910  
C    -0.6971480   -1.2603090   -0.0771130  
H     0.4763700   -1.0680760   -2.8801620  
H    -3.3496240   -1.2865990    2.5741120  
H    -1.5429010   -0.5002690   -4.5670810  
C    -5.6580360   -0.9506880   -1.8989080  
C    -6.9258400   -0.4775140   -1.9370880  
C    -7.0860280    0.4385460   -0.8310020  
C    -5.7833800    0.4610890   -0.1206660  
N    -4.9471620   -0.4296590   -0.8036590  
C    -5.5157980    1.2612190    0.9401080  
C    -6.5813980    2.1267610    1.4473920  
O    -6.4218050    2.8782630    2.3968450  
C    -7.9802240    2.0842670    0.7356670  
O    -8.8830510    2.7895660    1.1588570  
C    -8.1326940    1.2028720   -0.4224150  
H    -7.6792500   -0.7327720   -2.6682460  
H    -4.5607830    1.2885390    1.4476770  
H    -9.0902520    1.2026600   -0.9343200  
H    -5.1555970   -1.6338500   -2.5660220  
C     5.9468130    4.2995950    0.4948270  
C     4.9586410    3.3741350    0.4213100  
C     5.6329710    2.1138070    0.1170100  
C     7.0673080    2.4878940    0.0570050  
N     7.2488330    3.7639620    0.2667710  
C     8.1016590    1.5157110   -0.1976820  
C     7.7243450    0.2292280   -0.3634750  
O     8.5813170   -0.7876280   -0.5808670  
C     6.2831700   -0.1877950   -0.3075210  
O     6.0479450   -1.3864220   -0.4605430  
C     5.2038760    0.8335500   -0.0933720  
H     3.9018670    3.5174030    0.5939890  
H     9.1405420    1.8241470   -0.2356880  
H     8.0187680   -1.5862710   -0.6722390  
H     5.8546590    5.3565980    0.7142720  
