62

C   -0.1330038   -1.1420430   -9.5484467  
C   -0.2879650   -0.7389830  -10.8545851  
C   -0.5463928    0.6635833  -10.8296324  
C   -0.5367953    1.0644254   -9.4690600  
N   -0.2848505   -0.0565842   -8.7177416  
C   -0.7566839    2.3857398   -9.0683510  
C   -0.9902200    3.3194703  -10.0592032  
O   -1.2106408    4.6240031   -9.7236128  
C   -1.0040965    2.9388952  -11.4222103  
O   -1.2509056    3.9837997  -12.2885842  
C   -0.7875180    1.6355196  -11.8182297  
H   -0.2238462   -1.3775442  -11.7189480  
H   -0.7508026    2.6976461   -8.0330341  
H   -1.3498599    5.0995054  -10.5529371  
H   -1.2431883    3.6416646  -13.1877436  
H   -0.8043279    1.3739131  -12.8697791  
H    0.0724043   -2.1181866   -9.1435888  
C    2.3446872   -2.1385757   -5.7825615  
C    1.7992131   -1.7303702   -6.9519228  
C    0.7308355   -0.8198481   -6.5697985  
C    0.7735875   -0.7944099   -5.0919255  
N    1.7176446   -1.5654466   -4.6247547  
C   -0.1387079    0.0017019   -4.3179684  
C   -1.0519385    0.7391882   -4.9898753  
O   -1.9638772    1.5275964   -4.3958873  
C   -1.1200789    0.7349605   -6.4810156  
O   -1.9771132    1.4304200   -7.0260375  
C   -0.1732951   -0.0899943   -7.2523616  
H    2.0864381   -2.0122473   -7.9504831  
H   -2.4685598    1.9202485   -5.1309198  
H    3.1667836   -2.8208805   -5.6356219  
C    3.3041273    0.0001178   -1.5420428  
C    2.5845373   -0.0004780   -0.3695851  
C    1.2040007   -0.0000007   -0.7283589  
C    1.1422374    0.0006038   -2.1454372  
N    2.4348641    0.0026111   -2.6077464  
C   -0.0655179    0.0008799   -2.8497918  
C   -1.2321766    0.0002325   -2.1101402  
O   -2.4392814    0.0001148   -2.7472522  
C   -1.1911209   -0.0000007   -0.6955266  
O   -2.4371528   -0.0002320   -0.1032862  
C    0.0000000    0.0000000    0.0000000  
H    3.0031533   -0.0000660    0.6222584  
H    2.7054631   -0.0071097   -3.5745261  
H   -3.1132988   -0.0000648   -2.0551787  
H   -2.3200282   -0.0004072    0.8516409  
H    4.3686625    0.0004073   -1.7024290  
C    0.0000000    0.0000000    1.4700000  
C    1.0662921    0.0000102    2.3034270  
C    0.4961870   -0.0000064    3.6418889  
C   -0.9663858    0.0000850    3.4240247  
N   -1.2632773    0.0000084    2.1528658  
C   -1.8985362    0.0000517    4.5177257  
C   -1.3925775   -0.0004564    5.7720543  
O   -2.1456383   -0.0005410    6.8851312  
C    0.0786232   -0.0009323    6.0245000  
O    0.4683759   -0.0012588    7.1921102  
C    1.0143166   -0.0008442    4.8859032  
H    2.1107198   -0.0000632    2.0421868  
H   -2.9622183    0.0003270    4.3293377  
H   -1.5042274   -0.0009692    7.6184419  
H    2.0724152   -0.0013148    5.1109744  
