62

C   -0.2397192   -1.0853366   -9.5433538  
C   -0.3936036    0.0153265   -8.7325956  
C   -0.6349775    1.1315210   -9.5872586  
C   -0.6171297    0.6466864  -10.9201291  
N   -0.3727179   -0.7027478  -10.8576157  
C   -0.8206091    1.4740833  -12.0286409  
C   -1.0465177    2.8152981  -11.7872142  
O   -1.2516146    3.6677068  -12.8333265  
C   -1.0676867    3.3180518  -10.4644885  
O   -1.3045498    4.6751059  -10.3893730  
C   -0.8667585    2.5024317   -9.3704502  
H   -0.3140926   -1.3191475  -11.6479293  
H   -0.8080863    1.1107580  -13.0469926  
H   -1.3872431    4.5436792  -12.4492148  
H   -1.3027288    4.9333288   -9.4625935  
H   -0.8884739    2.9161708   -8.3690388  
H   -0.0441915   -2.1127709   -9.2881933  
C    2.2675101   -2.0960613   -5.9498179  
C    1.7744249   -1.6329637   -4.7723279  
C    0.6888622   -0.7368507   -5.0938399  
C    0.5891936   -0.7157121   -6.5657132  
N    1.5740357   -1.5599386   -7.0242506  
C   -0.3170776    0.0136356   -7.2645898  
C   -1.2569149    0.8326276   -6.5172659  
O   -2.1110282    1.5252262   -7.0549449  
C   -1.1693694    0.8256867   -4.9577490  
O   -1.9551699    1.5114888   -4.3178632  
C   -0.1496415   -0.0015615   -4.3176961  
H    2.1306439   -1.8896607   -3.7905802  
H    3.0792927   -2.7837268   -6.1230671  
H    1.7590702   -1.7578578   -7.9904993  
C    3.3003543    0.0005276   -1.4738987  
C    2.5232814    0.0003497   -2.6090747  
C    1.1623200   -0.0001320   -2.1820103  
C    1.1711883    0.0000582   -0.7636140  
N    2.4852300   -0.0014919   -0.3662360  
C    0.0000000    0.0000000    0.0000000  
C   -1.2020384    0.0000519   -0.6806477  
O   -2.3759249    0.0003493    0.0157743  
C   -1.2314656   -0.0005115   -2.0955510  
O   -2.5054392   -0.0008039   -2.6250180  
C   -0.0764516   -0.0007274   -2.8495195  
H    2.8919955   -0.0005620   -3.6205304  
H    2.8036267    0.0088183    0.5858662  
H   -3.0835638    0.0000347   -0.6418818  
H   -2.4360047   -0.0011529   -3.5845921  
H    4.3715549    0.0004895   -1.3667136  
C    0.0000000    0.0000000    1.4700000  
C    1.0541688    0.0001722    2.3260392  
C    0.5103138    0.0000454    3.6635956  
C   -0.9576371   -0.0002459    3.5155732  
N   -1.2018458    0.0001392    2.1615969  
C   -1.8348311   -0.0008317    4.5510609  
C   -1.2972847   -0.0009736    5.9014604  
O   -2.0050672   -0.0014265    6.9001319  
C    0.2542623   -0.0004184    6.0817573  
O    0.7184670   -0.0002256    7.2139121  
C    1.0974552   -0.0000873    4.8889129  
H    2.0940752    0.0005483    2.0517982  
H   -2.9081052   -0.0011668    4.4207061  
H    2.1707277    0.0000911    5.0223670  
H   -2.1128194   -0.0014912    1.7406791  
