62

C   -0.3286841    0.7794103   -7.1362122  
C   -1.3572330    0.5373424   -8.0170966  
C   -0.8568254   -0.3623660   -9.0043741  
C    0.4942795   -0.6366728   -8.6709086  
N    0.7834015    0.0740366   -7.5325246  
C    1.3022985   -1.4892480   -9.4292014  
C    0.7359805   -2.0758319  -10.5442723  
O    1.4800440   -2.9170613  -11.3199758  
C   -0.6102763   -1.8142493  -10.8935358  
O   -1.0274836   -2.4734811  -12.0313823  
C   -1.4079138   -0.9730588  -10.1460744  
H   -2.3461740    0.9583982   -7.9562619  
H    2.3328021   -1.7023034   -9.1804613  
H    0.9018653   -3.2114842  -12.0357207  
H   -1.9466390   -2.2425111  -12.1969492  
H   -2.4355801   -0.7916607  -10.4384368  
H   -0.2999282    1.4005352   -6.2573861  
C    1.6628972    0.0337774   -3.2649299  
C    3.0162024    0.0329605   -3.2529409  
C    3.4037228    0.0459987   -4.6551380  
C    2.1237299    0.0535433   -5.3955065  
N    1.0997898    0.0465115   -4.5858856  
C    2.0755556    0.0671416   -6.8316755  
C    3.2525880    0.0733280   -7.4979273  
O    3.3565997    0.0859908   -8.8377266  
C    4.5608680    0.0663577   -6.7792372  
O    5.5929745    0.0724796   -7.4500123  
C    4.5838543    0.0523655   -5.3057380  
H    3.6706628    0.0246394   -2.3981381  
H    4.3151284    0.0875706   -9.0119998  
H    5.5518769    0.0477879   -4.8228903  
C    1.1243417    0.0099160   -0.7919004  
C    0.7474091    0.0234036   -2.1148543  
C   -0.6787366    0.0234950   -2.1414699  
C   -1.1201739    0.0099353   -0.7935547  
N    0.0000000    0.0000000    0.0000000  
C   -2.4730814    0.0065387   -0.4408241  
C   -3.3971947    0.0173286   -1.4675058  
O   -4.7313509    0.0149470   -1.1793468  
C   -2.9763629    0.0305525   -2.8186324  
O   -4.0166449    0.0397843   -3.7247623  
C   -1.6418539    0.0336374   -3.1673480  
H   -2.8160170   -0.0039200    0.5845965  
H   -5.1938800    0.0234391   -2.0274383  
H   -3.6464639    0.0484767   -4.6127342  
H   -1.3497441    0.0436783   -4.2109235  
H    2.1062470    0.0051389   -0.3505406  
C    0.8175213    0.6860729    2.3021913  
C    0.0000000    0.0000000    1.4700000  
C   -0.8887526   -0.7456559    2.3478473  
C   -0.4549825   -0.3816753    3.7138435  
N    0.5448156    0.4573574    3.6934124  
C   -1.0945674   -0.9182058    4.8835240  
C   -2.1210866   -1.7789155    4.6970523  
O   -2.8083856   -2.3554314    5.6976972  
C   -2.5824069   -2.1655116    3.3310774  
O   -3.5227682   -2.9541547    3.2362962  
C   -1.9100805   -1.6015804    2.1470656  
H   -0.7567140   -0.6349833    5.8697035  
H   -3.4728268   -2.9124471    5.2533954  
H   -2.2742832   -1.9066565    1.1752040  
H    1.6189533    1.3585343    2.0405121  
