60

C    7.0238261   -5.3019938   -4.9172506  
C    7.9442825   -4.7772831   -5.7946931  
C    7.6585715   -3.3849477   -5.9145709  
C    6.5438912   -3.1154254   -5.0798417  
N    6.1822909   -4.3014374   -4.4905719  
C    5.9870136   -1.8395314   -4.9503405  
C    6.5661346   -0.8170340   -5.6764913  
O    6.0623702    0.4483526   -5.5868733  
C    7.6785971   -1.0661736   -6.5150457  
O    8.1413691    0.0550636   -7.1723221  
C    8.2283224   -2.3246760   -6.6434951  
H    8.7248625   -5.3302703   -6.2885498  
H    5.4288350   -4.4190151   -3.8375319  
H    6.6049852    0.9998643   -6.1653796  
H    8.8925580   -0.1998543   -7.7166900  
H    9.0803928   -2.4850616   -7.2936746  
H    6.9001182   -6.3110740   -4.5631163  
C    4.6190970   -2.0899185   -2.8279654  
C    3.4606685   -1.6280057   -2.2906063  
C    2.8761400   -0.7301694   -3.2586206  
C    3.7955630   -0.7067284   -4.4122679  
N    4.8319962   -1.5514031   -4.0878917  
C    3.5979911    0.0246977   -5.5381835  
C    2.3999524    0.8436573   -5.6190799  
O    2.1321343    1.5380346   -6.5908894  
C    1.4124497    0.8342976   -4.4088913  
O    0.4006153    1.5200499   -4.4654208  
C    1.7334695    0.0049281   -3.2500363  
H    3.0613136   -1.8865707   -1.3260993  
H    4.2848592    0.0276109   -6.3731166  
H    5.3352946   -2.7782579   -2.4094680  
C    1.1319246    0.0015678   -0.8009268  
C    0.7969914    0.0034958   -2.1169401  
C   -0.6453340    0.0035696   -2.1842669  
C   -1.1266832    0.0015410   -0.7896025  
N    0.0000000    0.0000000    0.0000000  
C   -2.4346129    0.0013913   -0.4276292  
C   -3.4350111    0.0031335   -1.4820181  
O   -4.6384614    0.0030875   -1.2583914  
C   -2.9478961    0.0050442   -2.9661074  
O   -3.7809382    0.0062135   -3.8623773  
C   -1.5113825    0.0053055   -3.2312122  
H   -2.7664565    0.0000174    0.6013448  
H   -1.1823533    0.0068381   -4.2614848  
H    2.1104316    0.0009435   -0.3488059  
C    0.0000000    0.0000000    1.4700000  
C    1.0541688    0.0001722    2.3260392  
C    0.5103138    0.0000454    3.6635956  
C   -0.9576371   -0.0002459    3.5155732  
N   -1.2018458    0.0001392    2.1615969  
C   -1.8348311   -0.0008317    4.5510609  
C   -1.2972847   -0.0009736    5.9014604  
O   -2.0050672   -0.0014265    6.9001319  
C    0.2542623   -0.0004184    6.0817573  
O    0.7184670   -0.0002256    7.2139121  
C    1.0974552   -0.0000873    4.8889129  
H    2.0940752    0.0005483    2.0517982  
H   -2.9081052   -0.0011668    4.4207061  
H    2.1707277    0.0000911    5.0223670  
H   -2.1128194   -0.0014912    1.7406791  
