62

C   10.0618003    0.7114939   -0.9990969  
C   11.3139607    0.4615144   -0.4871676  
C   11.1457468   -0.4470943    0.5994483  
C    9.7574475   -0.7184255    0.7040042  
N    9.1280325    0.0025291   -0.2802107  
C    9.2254800   -1.5778452    1.6700256  
C   10.1111575   -2.1744583    2.5462711  
O    9.6454108   -3.0226876    3.5088716  
C   11.4997700   -1.9159942    2.4581271  
O   12.2507897   -2.5854634    3.4021203  
C   12.0252427   -1.0680569    1.5055481  
H   12.2351595    0.8831376   -0.8513378  
H    8.1683513   -1.7886809    1.7550530  
H   10.4179888   -3.3235442    4.0047279  
H   13.1761593   -2.3559658    3.2731751  
H   13.0932612   -0.8892711    1.4625585  
H    9.7607418    1.3405319   -1.8192390  
C    6.8354432    0.0008786   -4.0255230  
C    5.5758875    0.0005992   -3.5179857  
C    5.7016160    0.0007904   -2.0795742  
C    7.1480384    0.0012362   -1.7886234  
N    7.7802455    0.0008701   -3.0105904  
C    7.6812949    0.0019200   -0.5406883  
C    6.7698186    0.0020121    0.5914541  
O    7.1520256    0.0025450    1.7543038  
C    5.2340027    0.0012938    0.3067212  
O    4.4569015    0.0010577    1.2519061  
C    4.7795901    0.0008674   -1.0815733  
H    4.6629017    0.0001119   -4.0863788  
H    7.1529573    0.0008730   -5.0556079  
H    8.7747879    0.0025945   -3.1444929  
C    3.3321168    0.0004716   -1.3379341  
C    2.6974177    0.0000118   -2.5332316  
C    1.2800432   -0.0002116   -2.2052842  
C    1.2395033    0.0000644   -0.7271298  
N    2.4394059    0.0005460   -0.2131041  
C    0.0000000    0.0000000    0.0000000  
C   -1.1468704    0.0000635   -0.7169542  
O   -2.3742206    0.0000074   -0.1695488  
C   -1.1388774    0.0001608   -2.2096352  
O   -2.2206238    0.0000906   -2.7970409  
C    0.1454514    0.0001818   -2.9324241  
H    3.1367978   -0.0000649   -3.5160956  
H   -2.9844350    0.0001027   -0.9290164  
H    0.1083567    0.0003684   -4.0135594  
C    2.5311839    2.1237619    3.0120429  
C    1.9795631    1.6616747    1.8395852  
C    0.9223175    0.7739173    2.1983588  
C    0.8753926    0.7337535    3.6154372  
N    1.8668922    1.5631002    4.0777464  
C   -0.0496243   -0.0427881    4.3197917  
C   -0.9437528   -0.7922060    3.5801400  
O   -1.8685244   -1.5680278    4.2172520  
C   -0.9124520   -0.7656372    2.1655264  
O   -1.8671164   -1.5663939    1.5732860  
C    0.0000000    0.0000000    1.4700000  
H    2.3005065    1.9304404    0.8477417  
H    2.0679347    1.7444845    5.0445261  
H   -0.0904770   -0.0778569    5.3997470  
H   -2.3849669   -2.0011402    3.5251786  
H   -1.7775064   -1.4909735    0.6183591  
H    3.3468514    2.8078103    3.1724291  
