60

C    6.0338487   -3.0295905   -9.2484759  
C    5.4616834   -2.3468668   -8.2001529  
C    5.3664351   -0.9798297   -8.5960543  
C    5.9004063   -0.8879789   -9.9069178  
N    6.2981742   -2.1501096  -10.2721919  
C    5.9668152    0.3164675  -10.6138037  
C    5.4851348    1.4487655   -9.9860598  
O    5.5254887    2.6510344  -10.6309896  
C    4.9489461    1.3774194   -8.6783035  
O    4.5108005    2.5911499   -8.1902140  
C    4.8833646    0.1895903   -7.9802429  
H    5.1521615   -2.7805726   -7.2646912  
H    6.7061360   -2.3970942  -11.1556775  
H    6.3727415    0.3931541  -11.6130765  
H    5.1457725    3.2994537  -10.0238376  
H    4.1639476    2.4549622   -7.3032250  
H    6.2756234   -4.0740593   -9.3464010  
C    6.1812373   -2.0122605   -4.4510963  
C    5.2702187   -1.6303461   -3.5260204  
C    4.3856200   -0.7126510   -4.2273195  
C    4.9238565   -0.6545500   -5.6033682  
N    5.9763881   -1.4143797   -5.7405736  
C    4.3191903    0.1574945   -6.6231959  
C    3.2262690    0.8784137   -6.2838837  
O    2.5612865    1.6787218   -7.1343809  
C    2.6590319    0.8406141   -4.9036753  
O    1.6623422    1.5226360   -4.6656073  
C    3.2973506   -0.0000934   -3.8752374  
H    5.2063282   -1.9339561   -2.4950913  
H    1.8346677    2.0540005   -6.6049057  
H    7.0103757   -2.6904146   -4.3261563  
C    3.3321174    0.0004714   -1.3379332  
C    2.6974186    0.0000115   -2.5332308  
C    1.2800441   -0.0002119   -2.2052838  
C    1.2395035    0.0000643   -0.7271293  
N    2.4394063    0.0005458   -0.2131034  
C    0.0000000    0.0000000    0.0000000  
C   -1.1468701    0.0000634   -0.7169542  
O   -2.3742201    0.0000072   -0.1695492  
C   -1.1388767    0.0001606   -2.2096354  
O   -2.2206229    0.0000903   -2.7970413  
C    0.1454526    0.0001815   -2.9324239  
H   -2.9844344    0.0001023   -0.9290168  
H    0.1083580    0.0003680   -4.0135594  
H    4.3940040    0.0007617   -1.1498630  
C    0.8175213    0.6860729    2.3021913  
C    0.0000000    0.0000000    1.4700000  
C   -0.8887526   -0.7456559    2.3478473  
C   -0.4549825   -0.3816753    3.7138435  
N    0.5448156    0.4573574    3.6934124  
C   -1.0945674   -0.9182058    4.8835240  
C   -2.1210866   -1.7789155    4.6970523  
O   -2.8083856   -2.3554314    5.6976972  
C   -2.5824069   -2.1655116    3.3310774  
O   -3.5227682   -2.9541547    3.2362962  
C   -1.9100805   -1.6015804    2.1470656  
H   -0.7567140   -0.6349833    5.8697035  
H   -3.4728268   -2.9124471    5.2533954  
H   -2.2742832   -1.9066565    1.1752040  
H    1.6189533    1.3585343    2.0405121  
