62

C    4.9083384   -4.4214948   -8.6385217  
C    3.9542781   -3.5982434   -8.0867109  
C    4.1111559   -3.6697703   -6.6707758  
C    5.1858577   -4.5595926   -6.4155136  
N    5.6459222   -4.9994008   -7.6318720  
C    5.6208733   -4.8690474   -5.1233109  
C    4.9591213   -4.2690703   -4.0696078  
O    5.3431823   -4.5357639   -2.7872717  
C    3.8843157   -3.3787551   -4.3040185  
O    3.3279864   -2.8633815   -3.1515293  
C    3.4544513   -3.0732199   -5.5785349  
H    3.2331657   -3.0184340   -8.6369930  
H    6.4119727   -5.6339895   -7.7676749  
H    6.4392409   -5.5465277   -4.9220715  
H    4.7589106   -4.0218258   -2.2147688  
H    2.6099897   -2.2724540   -3.3982865  
H    5.1201182   -4.6432784   -9.6704714  
C    2.3338133   -2.1434178   -5.7798773  
C    1.7883278   -1.7365448   -6.9496977  
C    0.7199247   -0.8256229   -6.5685995  
C    0.7626761   -0.7985189   -5.0907561  
N    1.7067545   -1.5690021   -4.6227174  
C   -0.1496415   -0.0015615   -4.3176961  
C   -1.0628929    0.7351420   -4.9904329  
O   -1.9748540    1.5241934   -4.3973341  
C   -1.1310333    0.7292327   -6.4815675  
O   -1.9880870    1.4240539   -7.0273726  
C   -0.1842265   -0.0965636   -7.2519840  
H    2.0755606   -2.0195387   -7.9479403  
H   -2.4795477    1.9160033   -5.1328081  
H   -0.2663206   -0.0731943   -8.3303828  
C    3.3003543    0.0005276   -1.4738987  
C    2.5232814    0.0003497   -2.6090747  
C    1.1623200   -0.0001320   -2.1820103  
C    1.1711883    0.0000582   -0.7636140  
N    2.4852300   -0.0014919   -0.3662360  
C    0.0000000    0.0000000    0.0000000  
C   -1.2020384    0.0000519   -0.6806477  
O   -2.3759249    0.0003493    0.0157743  
C   -1.2314656   -0.0005115   -2.0955510  
O   -2.5054392   -0.0008039   -2.6250180  
C   -0.0764516   -0.0007274   -2.8495195  
H    2.8919955   -0.0005620   -3.6205304  
H    2.8036267    0.0088183    0.5858662  
H   -3.0835638    0.0000347   -0.6418818  
H   -2.4360047   -0.0011529   -3.5845921  
H    4.3715549    0.0004895   -1.3667136  
C    0.8175213    0.6860729    2.3021913  
C    0.0000000    0.0000000    1.4700000  
C   -0.8887526   -0.7456559    2.3478473  
C   -0.4549825   -0.3816753    3.7138435  
N    0.5448156    0.4573574    3.6934124  
C   -1.0945674   -0.9182058    4.8835240  
C   -2.1210866   -1.7789155    4.6970523  
O   -2.8083856   -2.3554314    5.6976972  
C   -2.5824069   -2.1655116    3.3310774  
O   -3.5227682   -2.9541547    3.2362962  
C   -1.9100805   -1.6015804    2.1470656  
H   -0.7567140   -0.6349833    5.8697035  
H   -3.4728268   -2.9124471    5.2533954  
H   -2.2742832   -1.9066565    1.1752040  
H    1.6189533    1.3585343    2.0405121  
