62

C    8.1141735    0.7267012   -4.2919657  
C    8.7277208    0.0072894   -3.2927289  
C    9.7956814   -0.7190048   -3.8981669  
C    9.7850159   -0.4000191   -5.2802164  
N    8.7504488    0.4786553   -5.4856896  
C   10.7032156   -0.9372197   -6.1874730  
C   11.6496083   -1.8121416   -5.6904525  
O   12.5703282   -2.3655462   -6.5324929  
C   11.6761891   -2.1430327   -4.3147268  
O   12.6784874   -3.0281634   -3.9751889  
C   10.7705034   -1.6136601   -3.4191692  
H    8.5040773    0.8889065   -6.3682859  
H   10.7003069   -0.6982308   -7.2420241  
H   13.1279474   -2.9376697   -5.9893533  
H   12.6262927   -3.1986650   -3.0297746  
H   10.8154335   -1.8858844   -2.3711454  
H    7.2721407    1.3960247   -4.2478608  
C    4.7390840    0.0009613   -1.2727298  
C    5.7457108    0.0027336   -2.2103686  
C    6.9802492    0.0028847   -1.4958645  
C    6.6612413    0.0008588   -0.1137803  
N    5.2920917    0.0016812   -0.0135513  
C    7.6369656    0.0001205    0.8875936  
C    8.9588063    0.0011446    0.4864540  
O    9.9518660    0.0001378    1.4228541  
C    9.2971112    0.0035421   -0.8877229  
O   10.6560640    0.0047270   -1.1256049  
C    8.3350584    0.0045450   -1.8761454  
H    5.6072444    0.0048931   -3.2779900  
H    4.7730888   -0.0099119    0.8457991  
H    7.4003711   -0.0012777    1.9426874  
H   10.7862574    0.0014178    0.9359716  
H   10.7982731    0.0063054   -2.0771183  
C    3.2798077    0.0005856   -1.4499661  
C    2.5571132    0.0005565   -2.5996564  
C    1.1637425    0.0001547   -2.2210366  
C    1.1336959   -0.0000200   -0.7459475  
N    2.4483509   -0.0001429   -0.3402730  
C    0.0000000    0.0000000    0.0000000  
C   -1.2757370   -0.0000187   -0.6964411  
O   -2.3524597   -0.0000640   -0.1142306  
C   -1.2676502   -0.0000874   -2.2584078  
O   -2.3355774   -0.0004102   -2.8557287  
C    0.0181551    0.0001758   -2.9516297  
H    2.9547342    0.0006074   -3.5989118  
H    0.0150776    0.0003317   -4.0331632  
H    2.7563626    0.0012823    0.6148051  
C    0.8400945    0.7047457    2.2710304  
C    0.0000000    0.0000000    1.4700000  
C   -0.8844236   -0.7423113    2.3369512  
C   -0.4878984   -0.4098547    3.7186280  
N    0.5629682    0.4714286    3.6095011  
C   -1.0836927   -0.9095027    4.8308716  
C   -2.1891196   -1.8367527    4.6554461  
O   -2.7906899   -2.3413415    5.5944904  
C   -2.6257283   -2.2031529    3.2011665  
O   -3.5549479   -2.9829990    3.0410059  
C   -1.9068976   -1.5999348    2.0816745  
H   -0.7774656   -0.6525820    5.8354244  
H   -2.2155208   -1.8586617    1.0779135  
H    1.6384792    1.3747609    1.9961646  
H    1.0518368    0.8833920    4.3830260  
