64

C   -4.7577192    0.0038513   -1.7610491  
C   -5.7908146    0.0072986   -0.8526608  
C   -7.0043588    0.0072403   -1.6022675  
C   -6.6458570    0.0033666   -2.9746332  
N   -5.2743969    0.0033374   -3.0355659  
C   -7.5924701    0.0019326   -4.0035695  
C   -8.9252679    0.0041482   -3.6404961  
O   -9.8910722    0.0025340   -4.6049831  
C   -9.3028312    0.0083944   -2.2765884  
O  -10.6680447    0.0105922   -2.0777693  
C   -8.3695129    0.0100843   -1.2609899  
H   -5.6830131    0.0106803    0.2184886  
H   -4.7309749   -0.0095756   -3.8796670  
H   -7.3257223   -0.0008725   -5.0514437  
H  -10.7390787    0.0048502   -4.1422258  
H  -10.8374766    0.0134018   -1.1307273  
C   -3.3041249    0.0029131   -1.5420450  
C   -2.5845349    0.0028487   -0.3695868  
C   -1.2039994    0.0011051   -0.7283595  
C   -1.1422358    0.0004440   -2.1454379  
N   -2.4348632   -0.0003776   -2.6077477  
C    0.0655194   -0.0009400   -2.8497912  
C    1.2321775   -0.0013629   -2.1101390  
O    2.4392831   -0.0023524   -2.7472501  
C    1.1911212   -0.0010919   -0.6955255  
O    2.4371519   -0.0020037   -0.1032845  
C    0.0000000    0.0000000    0.0000000  
H   -3.0031521    0.0028208    0.6222564  
H   -2.7054529    0.0095914   -3.5745276  
H    0.1193561   -0.0015941   -3.9297468  
H    3.1132988   -0.0027911   -2.0551766  
H    2.3200277   -0.0017211    0.8516425  
C   -6.8352694    2.1423020    2.3569386  
C   -7.0175811    1.6767314    1.0753481  
C   -8.1348052    0.7905826    1.1092703  
C   -8.5972241    0.7549449    2.4497274  
N   -7.7848272    1.5853226    3.1812340  
C   -9.6897592   -0.0189480    2.8525247  
C  -10.3272841   -0.7703217    1.8844454  
O  -11.3997713   -1.5437087    2.2230553  
C   -9.8805398   -0.7482642    0.5417799  
O  -10.6194152   -1.5504812   -0.3031193  
C   -8.8026280    0.0147579    0.1437483  
H   -6.4182876    1.9422017    0.2213188  
H   -7.8773114    1.7696915    4.1638001  
H  -10.0470396   -0.0505652    3.8725997  
H  -11.6899653   -1.9787927    1.4108030  
H  -10.2523257   -1.4781365   -1.1894687  
H   -6.1021392    2.8264993    2.7485416  
C    2.3971438    2.0127888    3.1728260  
C    1.9431056    1.6308205    1.9564670  
C    0.8496017    0.7127664    2.2356185  
C    0.7794028    0.6545384    3.7115134  
N    1.6840587    1.4146091    4.2663826  
C   -0.1885723   -0.1578550    4.3957118  
C   -1.0476298   -0.8789867    3.6398520  
O   -2.0015663   -1.6796266    4.1448486  
C   -1.0022026   -0.8410666    2.1483229  
O   -1.8147390   -1.5232959    1.5241687  
C    0.0000000    0.0000000    1.4700000  
H    2.3054237    1.9346118    0.9892483  
H   -0.2170646   -0.1815267    5.4753125  
H   -2.4487139   -2.0549881    3.3649027  
H    3.2048689    2.6911772    3.3971983  
