64

C   -0.1139546    0.0959902   -8.7389591  
C    0.6536902   -0.5520538   -9.6787612  
C    0.1706300   -0.1507970  -10.9594826  
C   -0.9013986    0.7507760  -10.7362167  
N   -1.0489406    0.8768909   -9.3771946  
C   -1.6165696    1.3483220  -11.7784546  
C   -1.2425264    1.0301702  -13.0695975  
O   -1.9069464    1.5855042  -14.1246631  
C   -0.1757921    0.1324969  -13.3126537  
O    0.0752056   -0.0828798  -14.6520416  
C    0.5300075   -0.4575790  -12.2849469  
H    1.4616397   -1.2313709   -9.4672457  
H   -1.7253470    1.4600348   -8.9185031  
H   -2.4347035    2.0361597  -11.6149345  
H   -1.4925481    1.2344864  -14.9236159  
H    0.8091605   -0.7001845  -14.7285188  
H    1.3422438   -1.1414298  -12.5019682  
C    2.5385455   -2.1201620   -5.9030165  
C    1.9398803   -1.6207030   -7.0364216  
C    0.8981434   -0.7464318   -6.6062662  
C    0.9090951   -0.7521905   -5.1878960  
N    1.9159262   -1.5979814   -4.7935027  
C    0.0139741    0.0003876   -4.4216236  
C   -0.9088193    0.7730861   -5.0995376  
O   -1.8059700    1.5276807   -4.4004510  
C   -0.9357511    0.7917719   -6.5143672  
O   -1.9134457    1.6104179   -7.0409369  
C   -0.0531703    0.0493776   -7.2709569  
H    2.2188914   -1.8582313   -8.0487102  
H    2.1691872   -1.7948565   -3.8421456  
H   -2.3501706    1.9823402   -5.0564961  
H   -1.8632061    1.5656631   -8.0006639  
H    3.3594804   -2.8086765   -5.7982659  
C    3.2798085    0.0005853   -1.4499648  
C    2.5571144    0.0005562   -2.5996554  
C    1.1637436    0.0001546   -2.2210360  
C    1.1336965   -0.0000201   -0.7459470  
N    2.4483513   -0.0001430   -0.3402717  
C    0.0000000    0.0000000    0.0000000  
C   -1.2757367   -0.0000188   -0.6964414  
O   -2.3524597   -0.0000640   -0.1142313  
C   -1.2676494   -0.0000875   -2.2584081  
O   -2.3355762   -0.0004102   -2.8557294  
C    0.0181562    0.0001757   -2.9516296  
H    2.9547357    0.0006072   -3.5989105  
H    4.3498550    0.0008609   -1.3200021  
H    2.7563627    0.0012824    0.6148063  
C    2.5285572    2.1210227    2.9438989  
C    1.9331703    1.6216660    4.0790748  
C    0.8903039    0.7472258    3.6520102  
C    0.8972198    0.7527806    2.2336141  
N    1.9028376    1.5986179    1.8362361  
C    0.0000000    0.0000000    1.4700000  
C   -0.9207814   -0.7726952    2.1506477  
O   -1.8198395   -1.5274828    1.4542253  
C   -0.9436862   -0.7911793    3.5655508  
O   -1.9197945   -1.6098497    4.0950179  
C   -0.0590329   -0.0485852    4.3195194  
H    2.2150357    1.8593692    5.0905303  
H    2.1533708    1.7953814    0.8841339  
H   -2.3621246   -1.9821033    2.1118817  
H   -1.8668290   -1.5649508    5.0545920  
H   -0.1007624   -0.0827977    5.4019087  
H    3.3491200    2.8096064    2.8367138  
