62

C    3.3003549    0.0005280   -1.4738980  
C    2.5232820    0.0003502   -2.6090743  
C    1.1623202   -0.0001315   -2.1820098  
C    1.1711886    0.0000585   -0.7636141  
N    2.4852302   -0.0014917   -0.3662354  
C    0.0000000    0.0000000    0.0000000  
C   -1.2020383    0.0000521   -0.6806484  
O   -2.3759250    0.0003495    0.0157736  
C   -1.2314652   -0.0005109   -2.0955513  
O   -2.5054384   -0.0008033   -2.6250187  
C   -0.0764509   -0.0007269   -2.8495196  
H    2.8036263    0.0088183    0.5858669  
H   -3.0835633    0.0000348   -0.6418822  
H   -2.4360041   -0.0011522   -3.5845929  
H   -0.1304089   -0.0013416   -3.9319087  
H    4.3715550    0.0004899   -1.3667126  
C    5.8843132   -2.1416050   -4.3706061  
C    5.8364449   -1.7353557   -5.6606640  
C    4.7035117   -0.8249887   -5.7254243  
C    4.1682347   -0.7974897   -4.3472709  
N    4.8563802   -1.5672820   -3.5486063  
C    3.0267444   -0.0008945   -3.9901697  
C    2.4466112    0.7350856   -4.9654197  
O    1.3754302    1.5237296   -4.7739748  
C    2.9636557    0.7287627   -6.3657006  
O    2.3859605    1.4229262   -7.2021369  
C    4.1359067   -0.0966501   -6.7069423  
H    1.1962576    1.9150489   -5.6479992  
H    4.4795915   -0.0735996   -7.7324081  
H    6.5846116   -2.8231835   -3.9145295  
C    7.6362024   -5.5909090   -6.7464448  
C    8.3271572   -5.2127835   -7.8526444  
C    8.0851365   -3.8014603   -8.0381932  
C    7.1901500   -3.3853672   -6.9415363  
N    6.9554257   -4.5164777   -6.1942859  
C    6.7279457   -2.1218583   -6.7637246  
C    7.1392345   -1.1038694   -7.7161297  
O    6.7767725    0.0629344   -7.6420252  
C    8.0865247   -1.5221812   -8.8855140  
O    8.4392616   -0.6738483   -9.6937033  
C    8.5182975   -2.9149782   -8.9723551  
H    8.9366573   -5.8498641   -8.4684784  
H    9.1743049   -3.1964127   -9.7848654  
H    7.5668827   -6.5641289   -6.2882660  
H    6.3800101   -4.5550541   -5.3730332  
C    2.5285572    2.1210227    2.9438989  
C    1.9331703    1.6216660    4.0790748  
C    0.8903039    0.7472258    3.6520102  
C    0.8972198    0.7527806    2.2336141  
N    1.9028376    1.5986179    1.8362361  
C    0.0000000    0.0000000    1.4700000  
C   -0.9207814   -0.7726952    2.1506477  
O   -1.8198395   -1.5274828    1.4542253  
C   -0.9436862   -0.7911793    3.5655508  
O   -1.9197945   -1.6098497    4.0950179  
C   -0.0590329   -0.0485852    4.3195194  
H    2.2150357    1.8593692    5.0905303  
H    2.1533708    1.7953814    0.8841339  
H   -2.3621246   -1.9821033    2.1118817  
H   -1.8668290   -1.5649508    5.0545920  
H   -0.1007624   -0.0827977    5.4019087  
H    3.3491200    2.8096064    2.8367138  
