60

C    0.5317506   -0.0063263   -7.6955697  
C   -0.4869513   -0.0037001   -6.7710660  
C   -1.7121194   -0.0042226   -7.5015197  
C   -1.3752155   -0.0075203   -8.8793474  
N   -0.0048816   -0.0067748   -8.9618136  
C   -2.3378723   -0.0091939   -9.8932899  
C   -3.6648038   -0.0078148   -9.5093269  
O   -4.6456375   -0.0096971  -10.4585254  
C   -4.0208997   -0.0041528   -8.1396551  
O   -5.3828249   -0.0027641   -7.9194177  
C   -3.0717460   -0.0022268   -7.1388414  
H   -0.3623412   -0.0005537   -5.7017412  
H    0.5252221   -0.0191551   -9.8143510  
H   -2.0876149   -0.0115632  -10.9452252  
H   -5.4862719   -0.0079770   -9.9825050  
H   -5.5373614   -0.0003090   -6.9698303  
H   -3.3747497    0.0007571   -6.0983326  
C    2.8699641   -0.0020527   -4.0185824  
C    4.1392623   -0.0034667   -4.4881134  
C    4.0033708   -0.0054224   -5.9365711  
C    2.5438437   -0.0050007   -6.1739829  
N    1.8743087   -0.0029474   -5.0533987  
C    1.9886056   -0.0065216   -7.4994241  
C    2.8521782   -0.0079903   -8.5403738  
O    2.4734356   -0.0095116   -9.8297887  
C    4.3304450   -0.0080814   -8.3332797  
O    5.0569379   -0.0095850   -9.3269732  
C    4.8753994   -0.0065472   -6.9639921  
H    5.0547093   -0.0031234   -3.9215169  
H    3.3075344   -0.0102818  -10.3332085  
H    5.9518173   -0.0065508   -6.8564976  
C    3.2573673   -0.0002921   -1.5109381  
C    2.5379469   -0.0001710   -0.3591962  
C    1.1435042    0.0000332   -0.7338498  
C    1.1092607   -0.0000083   -2.2088474  
N    2.4227562    0.0001908   -2.6182610  
C   -0.0265532   -0.0002523   -2.9515663  
C   -1.3003033   -0.0002639   -2.2514979  
O   -2.3786784   -0.0004132   -2.8306425  
C   -1.2877726    0.0000312   -0.6895609  
O   -2.3539956    0.0003308   -0.0892035  
C    0.0000000    0.0000000    0.0000000  
H    2.9384091   -0.0000368    0.6389240  
H   -0.0296292   -0.0004086   -4.0327231  
H    4.3270395   -0.0004765   -1.6439444  
C    0.0000000    0.0000000    1.4700000  
C    1.0662921    0.0000102    2.3034270  
C    0.4961870   -0.0000064    3.6418889  
C   -0.9663858    0.0000850    3.4240247  
N   -1.2632773    0.0000084    2.1528658  
C   -1.8985362    0.0000517    4.5177257  
C   -1.3925775   -0.0004564    5.7720543  
O   -2.1456383   -0.0005410    6.8851312  
C    0.0786232   -0.0009323    6.0245000  
O    0.4683759   -0.0012588    7.1921102  
C    1.0143166   -0.0008442    4.8859032  
H    2.1107198   -0.0000632    2.0421868  
H   -2.9622183    0.0003270    4.3293377  
H   -1.5042274   -0.0009692    7.6184419  
H    2.0724152   -0.0013148    5.1109744  
