60

C    7.6661886   -5.3243418   -7.2228586  
C    6.9645832   -4.4022231   -6.4812945  
C    7.1009351   -3.1456654   -7.1424071  
C    7.9030986   -3.3648221   -8.2915069  
N    8.2307311   -4.6978494   -8.3092044  
C    8.2440083   -2.3423378   -9.1820659  
C    7.7661859   -1.0755972   -8.9077802  
O    8.0686193   -0.0405922   -9.7446265  
C    6.9647108   -0.8369485   -7.7660707  
O    6.5670421    0.4771819   -7.6309236  
C    6.6282253   -1.8451260   -6.8869335  
H    6.4222467   -4.6095021   -5.5747081  
H    8.7850208   -5.1499353   -9.0137329  
H    8.8551226   -2.5028246  -10.0595533  
H    7.6423833    0.7433420   -9.3744419  
H    6.0303857    0.5523336   -6.8359676  
H    7.8097621   -6.3790850   -7.0620415  
C    5.9779325   -2.0928588   -4.4468283  
C    5.0400354   -1.6304885   -3.5804350  
C    4.1859903   -0.7341817   -4.3234534  
C    4.7069269   -0.7121370   -5.7036452  
N    5.7934741   -1.5560772   -5.7119685  
C    4.1728101    0.0176373   -6.7155016  
C    3.0072075    0.8361657   -6.4258173  
O    2.4535605    1.5290917   -7.2693979  
C    2.4388221    0.8282646   -4.9709355  
O    1.4580061    1.5136694   -4.7150426  
C    3.1006054    0.0006263   -3.9654951  
H    4.9561723   -1.8877887   -2.5395805  
H    4.5702541    0.0195456   -7.7209582  
H    6.7884827   -2.7804145   -4.2674807  
C    3.2798083    0.0005857   -1.4499652  
C    2.5571142    0.0005565   -2.5996556  
C    1.1637432    0.0001548   -2.2210361  
C    1.1336964   -0.0000200   -0.7459473  
N    2.4483512   -0.0001428   -0.3402723  
C    0.0000000    0.0000000    0.0000000  
C   -1.2757368   -0.0000186   -0.6964415  
O   -2.3524598   -0.0000639   -0.1142311  
C   -1.2676497   -0.0000872   -2.2584083  
O   -2.3355766   -0.0004101   -2.8557295  
C    0.0181558    0.0001758   -2.9516296  
H    0.0150788    0.0003319   -4.0331631  
H    4.3498547    0.0008612   -1.3200026  
H    2.7563626    0.0012823    0.6148059  
C    2.5128556    2.1077716    2.9199648  
C    1.9592212    1.6432552    4.0696553  
C    0.8915788    0.7479214    3.6910360  
C    0.8684491    0.7287414    2.2159470  
N    1.8754542    1.5738793    1.8102719  
C    0.0000000    0.0000000    1.4700000  
C   -0.9772830   -0.8200135    2.1664417  
O   -1.8021297   -1.5120829    1.5842315  
C   -0.9711318   -0.8147624    3.7284083  
O   -1.7894187   -1.5009653    4.3257297  
C    0.0140216    0.0115358    4.4216297  
H    2.2638494    1.8988021    5.0689105  
H    0.0117648    0.0094386    5.5031631  
H    3.3327358    2.7953732    2.7900019  
H    2.1123206    1.7707734    0.8551938  
