62

C    0.0000000    0.0000000    0.0000000  
C    0.6155679    0.8533069   -0.8862344  
C    0.2881992    0.3984121   -2.1979131  
C   -0.5369210   -0.7455236   -2.0478680  
N   -0.6904474   -0.9610017   -0.7007909  
C   -1.0494532   -1.4564642   -3.1372084  
C   -0.7233348   -1.0041933   -4.4010421  
O   -1.1972076   -1.6609145   -5.4997572  
C    0.0988586    0.1350443   -4.5711962  
O    0.3330853    0.4592881   -5.8915550  
C    0.6050585    0.8367335   -3.4969893  
H    1.2264178    1.6988859   -0.6200569  
H   -1.2343848   -1.6976769   -0.2891820  
H   -1.6787489   -2.3291599   -3.0295506  
H   -0.8553962   -1.1874774   -6.2693582  
H    0.8958654    1.2391483   -5.9180049  
C    4.1886530    2.1433184   -1.3902898  
C    4.5077132    3.2813566   -2.0495687  
C    3.4849066    3.4202285   -3.0747911  
C    2.6053313    2.2467914   -2.8851147  
N    3.0128122    1.4946887   -1.8990668  
C    1.4559286    2.0152737   -3.7159930  
C    1.1967710    2.9153183   -4.6917443  
O    0.1585359    2.8244492   -5.5401848  
C    2.0654129    4.1098276   -4.9080088  
O    1.7696240    4.8874725   -5.8152009  
C    3.2386755    4.3251311   -4.0425471  
H    0.2394057    3.6064193   -6.1156280  
H    3.8425528    5.2025250   -4.2316049  
H    4.7037890    1.6915793   -0.5574994  
C    5.6371875    4.1871080   -1.7950041  
C    6.5976595    4.0758753   -0.8480621  
C    7.4549100    5.2346163   -1.0453965  
C    6.8484983    5.9572628   -2.1840935  
N    5.7826331    5.3480206   -2.6276520  
C    7.4089902    7.1773263   -2.6963227  
C    8.5243567    7.6540130   -2.0979377  
O    9.1534709    8.7811123   -2.4719739  
C    9.1597118    6.9478209   -0.9465135  
O   10.1736647    7.4390651   -0.4507319  
C    8.5658185    5.6979898   -0.4394269  
H    6.7104340    3.3030103   -0.1070915  
H    6.9450790    7.6843254   -3.5297780  
H    9.9092209    8.8573648   -1.8619084  
H    9.0561292    5.2169681    0.3963023  
C    1.1188642   -0.0008217    2.2703808  
C    0.0000000    0.0000000    1.4700000  
C   -1.1323862   -0.0008904    2.3373528  
C   -0.6382662   -0.0019682    3.6669281  
N    0.7324016   -0.0038477    3.5902241  
C   -1.4770914   -0.0027325    4.7854808  
C   -2.8395474   -0.0020958    4.5576857  
O   -3.7039201   -0.0024443    5.6140350  
C   -3.3517868   -0.0013946    3.2384331  
O   -4.7300496   -0.0012389    3.1773122  
C   -2.5248543   -0.0009135    2.1344818  
H    1.3576314    0.0056174    4.3757045  
H   -1.1067570   -0.0036993    5.8013813  
H   -4.5940033   -0.0021850    5.2385129  
H   -4.9934601   -0.0007286    2.2519915  
H   -2.9462578   -0.0005617    1.1360343  
H    2.1619896   -0.0009344    2.0042067  
