62

C    3.3003554    0.0005273   -1.4738973  
C    2.5232827    0.0003494   -2.6090737  
C    1.1623213   -0.0001321   -2.1820100  
C    1.1711892    0.0000583   -0.7636139  
N    2.4852305   -0.0014921   -0.3662348  
C    0.0000000    0.0000000    0.0000000  
C   -1.2020378    0.0000520   -0.6806488  
O   -2.3759246    0.0003493    0.0157732  
C   -1.2314646   -0.0005114   -2.0955514  
O   -2.5054373   -0.0008039   -2.6250195  
C   -0.0764502   -0.0007275   -2.8495198  
H    2.8036264    0.0088182    0.5858676  
H   -3.0835630    0.0000348   -0.6418832  
H   -2.4360027   -0.0011530   -3.5845934  
H   -0.1304074   -0.0013424   -3.9319089  
H    4.3715557    0.0004892   -1.3667119  
C    5.8913017   -2.0917718   -4.5522438  
C    4.9785007   -1.6292459   -3.6595293  
C    4.1021084   -0.7349694   -4.3785855  
C    4.5825821   -0.7142855   -5.7734001  
N    5.6694235   -1.5569948   -5.8122132  
C    4.0183459    0.0134434   -6.7702714  
C    2.8607109    0.8310489   -6.4478777  
O    2.2818996    1.5221458   -7.2759259  
C    2.3349682    0.8245604   -4.9770422  
O    1.3612145    1.5092060   -4.6936270  
C    3.0267455   -0.0008954   -3.9901689  
H    4.9253058   -1.8851662   -2.6163186  
H    6.7075464   -2.7781460   -4.3956404  
H    6.2158986   -1.7548036   -6.6303110  
C    4.9798259   -1.0986704   -8.8383919  
C    5.3741539   -0.7674557  -10.0949257  
C    5.1587149    0.6525571  -10.2431996  
C    4.6025896    1.1248710   -8.9608442  
N    4.5186650    0.0147180   -8.1525087  
C    4.2630461    2.4121624   -8.6976037  
C    4.4581535    3.3982547   -9.7474085  
O    4.1830634    4.5828262   -9.6080627  
C    5.0455587    2.9203216  -11.1135489  
O    5.2139840    3.7414178  -12.0050050  
C    5.3734912    1.5063775  -11.2780899  
H    5.7705247   -1.4410524  -10.8336894  
H    3.8567047    2.7377224   -7.7500766  
H    5.7799566    1.1836169  -12.2269510  
H    4.9871185   -2.0624931   -8.3558135  
C    2.5285572    2.1210227    2.9438989  
C    1.9331703    1.6216660    4.0790748  
C    0.8903039    0.7472258    3.6520102  
C    0.8972198    0.7527806    2.2336141  
N    1.9028376    1.5986179    1.8362361  
C    0.0000000    0.0000000    1.4700000  
C   -0.9207814   -0.7726952    2.1506477  
O   -1.8198395   -1.5274828    1.4542253  
C   -0.9436862   -0.7911793    3.5655508  
O   -1.9197945   -1.6098497    4.0950179  
C   -0.0590329   -0.0485852    4.3195194  
H    2.2150357    1.8593692    5.0905303  
H    2.1533708    1.7953814    0.8841339  
H   -2.3621246   -1.9821033    2.1118817  
H   -1.8668290   -1.5649508    5.0545920  
H   -0.1007624   -0.0827977    5.4019087  
H    3.3491200    2.8096064    2.8367138  
