60

C    5.0800927    0.0189844   -7.9215452  
C    6.1765225   -0.6564536   -8.4053768  
C    6.3163954   -0.2942300   -9.7779031  
C    5.2680077    0.6128604  -10.0778967  
N    4.5349089    0.7796615   -8.9292626  
C    5.0966115    1.1782827  -11.3450629  
C    6.0001937    0.8217382  -12.3271994  
O    5.8794368    1.3446191  -13.5822000  
C    7.0526606   -0.0820532  -12.0473929  
O    7.8686482   -0.3374096  -13.1301200  
C    7.2221926   -0.6404524  -10.7976023  
H    6.7982984   -1.3285127   -7.8390520  
H    3.7327091    1.3758336   -8.8342100  
H    4.2995610    1.8701247  -11.5801538  
H    6.6005838    0.9700478  -14.1046074  
H    8.5525584   -0.9561958  -12.8563055  
H    8.0377249   -1.3299219  -10.6131656  
C    6.1923727   -2.0934464   -4.2359234  
C    5.2191579   -1.6310079   -3.4094375  
C    4.3967568   -0.7348789   -4.1875409  
C    4.9747509   -0.7130127   -5.5448310  
N    6.0607566   -1.5568760   -5.5077370  
C    4.4832129    0.0165648   -6.5781805  
C    3.3064981    0.8350541   -6.3374475  
O    2.7884376    1.5278084   -7.2034762  
C    2.6779835    0.8273398   -4.9075121  
O    1.6873116    1.5127139   -4.6928203  
C    3.2973506   -0.0000934   -3.8752374  
H    5.0920136   -1.8881512   -2.3729410  
H    6.9947907   -2.7809153   -4.0228480  
H    6.6635525   -1.7542838   -6.2853702  
C    3.3321174    0.0004714   -1.3379332  
C    2.6974186    0.0000115   -2.5332308  
C    1.2800441   -0.0002119   -2.2052838  
C    1.2395035    0.0000643   -0.7271293  
N    2.4394063    0.0005458   -0.2131034  
C    0.0000000    0.0000000    0.0000000  
C   -1.1468701    0.0000634   -0.7169542  
O   -2.3742201    0.0000072   -0.1695492  
C   -1.1388767    0.0001606   -2.2096354  
O   -2.2206229    0.0000903   -2.7970413  
C    0.1454526    0.0001815   -2.9324239  
H   -2.9844344    0.0001023   -0.9290168  
H    0.1083580    0.0003680   -4.0135594  
H    4.3940040    0.0007617   -1.1498630  
C    0.8681109    0.7263879    2.2709268  
C    0.6127770    0.5096195    3.5869401  
C   -0.4920590   -0.4175482    3.6542670  
C   -0.8620974   -0.7254003    2.2596025  
N    0.0000000    0.0000000    1.4700000  
C   -1.8641242   -1.5660088    1.8976294  
C   -2.6293522   -2.2103885    2.9520183  
O   -3.5512764   -2.9839180    2.7283916  
C   -2.2549728   -1.8987399    4.4361073  
O   -2.8923672   -2.4351063    5.3323774  
C   -1.1543735   -0.9755647    4.7012123  
H    1.1382914    0.9492124    4.4159191  
H   -2.1192137   -1.7782617    0.8686553  
H   -0.9013378   -0.7652422    5.7314848  
H    1.6172880    1.3558399    1.8188057  
