62

C   -0.6668589    0.5611807   -9.1463363  
C    0.3312617   -0.2784097   -9.5837269  
C    0.2997448   -0.2552713  -11.0095850  
C   -0.7470462    0.6236720  -11.3885485  
N   -1.3145091    1.1005724  -10.2330530  
C   -1.0657828    0.8888305  -12.7237963  
C   -0.3138996    0.2553926  -13.6941597  
O   -0.5823392    0.4787909  -15.0136474  
C    0.7343598   -0.6253107  -13.3359270  
O    1.3896145   -1.1782303  -14.4167899  
C    1.0491821   -0.8875737  -12.0188724  
H    0.9991166   -0.8394698   -8.9527163  
H   -2.0756942    1.7536017  -10.1868917  
H   -1.8624765    1.5575760  -13.0191984  
H    0.0493982   -0.0532986  -15.5147003  
H    2.0819378   -1.7596857  -14.0878493  
H    1.8575228   -1.5670050  -11.7750771  
C    0.8518586   -0.7041561   -5.2251424  
C    0.0139741    0.0003876   -4.4216236  
C   -0.8729884    0.7427327   -5.2859483  
C   -0.4803614    0.4105161   -6.6687954  
N    0.5709018   -0.4706747   -6.5627862  
C   -1.0793689    0.9102631   -7.7792674  
C   -2.1843875    1.8373739   -7.6005638  
O   -2.7886785    2.3420361   -8.5378202  
C   -2.6168944    2.2035194   -6.1449952  
O   -3.5457346    2.9832465   -5.9820787  
C   -1.8948201    1.6002141   -5.0276394  
H   -2.2006129    1.8587644   -4.0229673  
H    1.6510907   -1.3741286   -4.9526460  
H    1.0576099   -0.8824762   -7.3377577  
C    3.2798085    0.0005853   -1.4499648  
C    2.5571144    0.0005562   -2.5996554  
C    1.1637436    0.0001546   -2.2210360  
C    1.1336965   -0.0000201   -0.7459470  
N    2.4483513   -0.0001430   -0.3402717  
C    0.0000000    0.0000000    0.0000000  
C   -1.2757367   -0.0000188   -0.6964414  
O   -2.3524597   -0.0000640   -0.1142313  
C   -1.2676494   -0.0000875   -2.2584081  
O   -2.3355762   -0.0004102   -2.8557294  
C    0.0181562    0.0001757   -2.9516296  
H    2.9547357    0.0006072   -3.5989105  
H    4.3498550    0.0008609   -1.3200021  
H    2.7563627    0.0012824    0.6148063  
C    0.8576279    0.7185626    2.2703808  
C    0.0000000    0.0000000    1.4700000  
C   -0.8668858   -0.7285659    2.3373528  
C   -0.4876752   -0.4117774    3.6669281  
N    0.5635254    0.4678311    3.5902241  
C   -1.1297612   -0.9515493    4.7854808  
C   -2.1738724   -1.8268314    4.5576857  
O   -2.8357962   -2.3827064    5.6140350  
C   -2.5667212   -2.1555554    3.2384331  
O   -3.6226318   -3.0413663    3.1773122  
C   -1.9335634   -1.6236449    2.1344818  
H    1.0363952    0.8769718    4.3757045  
H   -0.8454472   -0.7142436    5.8013813  
H   -3.5178062   -2.9546422    5.2385129  
H   -3.8247440   -3.2102924    2.2519915  
H   -2.2566033   -1.8942483    1.1360343  
H    1.6567807    1.3889844    2.0042067  
