62

C    6.0263266   -1.9993125   -4.8139147  
C    7.0730378   -2.8390077   -4.5109713  
C    7.9600730   -2.8183385   -5.6278158  
C    7.3976809   -1.9407237   -6.5898105  
N    6.2230436   -1.4622067   -6.0645817  
C    8.0060439   -1.6780645   -7.8209454  
C    9.2041135   -2.3126821   -8.0856518  
O    9.8410634   -2.0917234   -9.2724472  
C    9.7808815   -3.1920911   -7.1386589  
O   10.9752988   -3.7464423   -7.5502473  
C    9.1811381   -3.4518886   -5.9240250  
H    7.1830891   -3.3985519   -3.5978490  
H    5.6084861   -0.8095910   -6.5166801  
H    7.5824785   -1.0103426   -8.5584699  
H   10.6468510   -2.6242643   -9.2531555  
H   11.2972088   -4.3268847   -6.8537814  
H    9.6466366   -4.1303778   -5.2187296  
C    4.5294739   -2.1111779   -2.7873601  
C    4.8355748   -1.6481497   -4.0267077  
C    3.7722450   -0.7522109   -4.4158857  
C    2.8147155   -0.7310540   -3.2936207  
N    3.3317095   -1.5757414   -2.3385760  
C    1.6707636   -0.0012343   -3.2725974  
C    1.3618921    0.8179367   -4.4328097  
O    0.3558257    1.5108612   -4.5101840  
C    2.3616939    0.8105940   -5.6328716  
O    2.1121100    1.4960721   -6.6152605  
C    3.5619234   -0.0167227   -5.5388103  
H    4.2491865   -0.0160733   -6.3739109  
H    5.0780198   -2.7986805   -2.1642017  
H    2.9056661   -1.7713786   -1.4512988  
C    1.0965514    0.0001358   -0.8010306  
C    0.0000000    0.0000000    0.0000000  
C   -1.1546565    0.0001470   -0.8669508  
C   -0.6372019    0.0003520   -2.2486278  
N    0.7342867    0.0007338   -2.1395012  
C   -1.4147744    0.0001354   -3.3608712  
C   -2.8576052   -0.0001047   -3.1854454  
O   -3.6427785   -0.0002490   -4.1244896  
C   -3.4275841   -0.0000727   -1.7311660  
O   -4.6406832    0.0000333   -1.5710049  
C   -2.4891868   -0.0001090   -0.6116739  
H   -1.0150456    0.0001617   -4.3654239  
H   -2.8919122   -0.0002919    0.3920871  
H    2.1388270    0.0000663   -0.5261650  
C    2.5285572    2.1210227    2.9438989  
C    1.9331703    1.6216660    4.0790748  
C    0.8903039    0.7472258    3.6520102  
C    0.8972198    0.7527806    2.2336141  
N    1.9028376    1.5986179    1.8362361  
C    0.0000000    0.0000000    1.4700000  
C   -0.9207814   -0.7726952    2.1506477  
O   -1.8198395   -1.5274828    1.4542253  
C   -0.9436862   -0.7911793    3.5655508  
O   -1.9197945   -1.6098497    4.0950179  
C   -0.0590329   -0.0485852    4.3195194  
H    2.2150357    1.8593692    5.0905303  
H    2.1533708    1.7953814    0.8841339  
H   -2.3621246   -1.9821033    2.1118817  
H   -1.8668290   -1.5649508    5.0545920  
H   -0.1007624   -0.0827977    5.4019087  
H    3.3491200    2.8096064    2.8367138  
