60

C    8.0418417   -2.1166098    2.5520962  
C    9.3188472   -1.6163955    2.6593784  
C    9.5181432   -0.7421997    1.5500262  
C    8.3179705   -0.7487805    0.7940721  
N    7.4432173   -1.5949674    1.4292039  
C    8.1552301    0.0035034   -0.3731356  
C    9.2234138    0.7767476   -0.7845430  
O    9.1183382    1.5310870   -1.9172145  
C   10.4292200    0.7962561   -0.0439558  
O   11.3995623    1.6153693   -0.5832445  
C   10.5905655    0.0541525    1.1074671  
H   10.0208110   -1.8533849    3.4404524  
H    6.5056595   -1.7924347    1.1292495  
H    9.9640508    1.9862166   -2.0215893  
H   12.1805759    1.5711610   -0.0231848  
H   11.5259860    0.0891502    1.6535833  
H    7.5111643   -2.8053212    3.1869315  
C    5.6506104    0.0006750   -0.6678807  
C    6.9152385    0.0024406   -1.1626409  
C    6.8040776    0.0027733   -2.6022515  
C    5.3606764    0.0010736   -2.9078307  
N    4.7161325   -0.0005435   -1.6923264  
C    4.8400799    0.0012310   -4.1611001  
C    5.7629687    0.0029804   -5.2839571  
O    5.3925537    0.0031985   -6.4506159  
C    7.2958235    0.0045458   -4.9836904  
O    8.0824529    0.0057183   -5.9209602  
C    7.7361582    0.0044924   -3.5908671  
H    3.7780219    0.0000955   -4.3634394  
H    8.7991574    0.0057871   -3.3914808  
H    5.3226856   -0.0000553    0.3589367  
C    3.2573665   -0.0002920   -1.5109385  
C    2.5379463   -0.0001709   -0.3591964  
C    1.1435038    0.0000331   -0.7338500  
C    1.1092599   -0.0000083   -2.2088477  
N    2.4227553    0.0001909   -2.6182613  
C   -0.0265539   -0.0002524   -2.9515660  
C   -1.3003040   -0.0002640   -2.2514977  
O   -2.3786790   -0.0004133   -2.8306421  
C   -1.2877727    0.0000311   -0.6895603  
O   -2.3539959    0.0003306   -0.0892030  
C    0.0000000    0.0000000    0.0000000  
H    2.9384091   -0.0000367    0.6389234  
H   -0.0296303   -0.0004086   -4.0327229  
H    2.7280482   -0.0013407   -3.5742119  
C    2.5128556    2.1077716    2.9199648  
C    1.9592212    1.6432552    4.0696553  
C    0.8915788    0.7479214    3.6910360  
C    0.8684491    0.7287414    2.2159470  
N    1.8754542    1.5738793    1.8102719  
C    0.0000000    0.0000000    1.4700000  
C   -0.9772830   -0.8200135    2.1664417  
O   -1.8021297   -1.5120829    1.5842315  
C   -0.9711318   -0.8147624    3.7284083  
O   -1.7894187   -1.5009653    4.3257297  
C    0.0140216    0.0115358    4.4216297  
H    2.2638494    1.8988021    5.0689105  
H    0.0117648    0.0094386    5.5031631  
H    3.3327358    2.7953732    2.7900019  
H    2.1123206    1.7707734    0.8551938  
