62

C    2.4554840   -3.0526510   -8.9829824  
C    2.1192511   -1.8295014   -8.4507034  
C    2.1119475   -0.8944815   -9.5278694  
C    2.4539322   -1.6109811  -10.7032841  
N    2.6578553   -2.9181070  -10.3366037  
C    2.5426549   -1.0043988  -11.9598576  
C    2.2810896    0.3501018  -12.0312031  
O    2.3530741    0.9924764  -13.2333622  
C    1.9386364    1.0822757  -10.8695395  
O    1.7079532    2.4219757  -11.1047688  
C    1.8511868    0.4845741   -9.6295267  
H    2.9029512   -3.6646911  -10.9615224  
H    2.8029535   -1.5448803  -12.8594819  
H    2.1375675    1.9183769  -13.0615212  
H    1.4829355    2.8430934  -10.2695255  
H    1.5868358    1.0712518   -8.7575141  
H    2.5683569   -4.0101089   -8.5039276  
C    2.4962704   -2.1241893   -5.9704916  
C    1.9479396   -1.6619895   -4.7965365  
C    0.8895861   -0.7743924   -5.1524289  
C    0.8386260   -0.7344382   -6.5693735  
N    1.8288917   -1.5637498   -7.0343817  
C   -0.0884710    0.0419068   -7.2712058  
C   -0.9805690    0.7913397   -6.5291209  
O   -1.9072292    1.5669745   -7.1637119  
C   -0.9452411    0.7649786   -5.1145987  
O   -1.8982993    1.5657226   -4.5197602  
C   -0.0307352   -0.0004646   -4.4215603  
H    2.2717311   -1.9305789   -3.8055713  
H   -0.1323996    0.0768153   -8.3510458  
H   -2.4217454    2.0001341   -6.4702341  
H   -1.8059654    1.4904495   -3.5650812  
H    3.3115486   -2.8081774   -6.1330989  
C    3.2573670   -0.0002920   -1.5109380  
C    2.5379468   -0.0001709   -0.3591961  
C    1.1435043    0.0000332   -0.7338500  
C    1.1092609   -0.0000082   -2.2088477  
N    2.4227562    0.0001909   -2.6182613  
C   -0.0265532   -0.0002522   -2.9515663  
C   -1.3003035   -0.0002639   -2.2514981  
O   -2.3786784   -0.0004131   -2.8306429  
C   -1.2877725    0.0000312   -0.6895608  
O   -2.3539958    0.0003307   -0.0892036  
C    0.0000000    0.0000000    0.0000000  
H    2.9384091   -0.0000369    0.6389239  
H    4.3270394   -0.0004765   -1.6439446  
H    2.7280494   -0.0013406   -3.5742113  
C    2.5528530    2.1414826    2.8079335  
C    2.0663498    1.7338582    4.0032312  
C    0.9804344    0.8229586    3.6752840  
C    0.9495562    0.7966882    2.1971295  
N    1.8690446    1.5676019    1.6831036  
C    0.0000000    0.0000000    1.4700000  
C   -0.8785127   -0.7372425    2.1869543  
O   -1.8187535   -1.5261249    1.6395491  
C   -0.8723269   -0.7321790    3.6796354  
O   -1.7010379   -1.4274584    4.2670412  
C    0.1115397    0.0933559    4.4024240  
H    2.4028853    2.0163452    4.9860947  
H   -2.2861435   -1.9184361    2.3990168  
H    0.0832434    0.0693689    5.4835595  
H    3.3664920    2.8238276    2.6198634  
