60

C    8.3992441    0.7231408   -3.6902644  
C    8.1892491    0.0036057   -2.5367315  
C    9.3884970   -0.7230016   -2.2751095  
C   10.3028693   -0.4040709   -3.3115122  
N    9.6696504    0.4748735   -4.1547842  
C   11.5920252   -0.9415570   -3.3745894  
C   11.9650235   -1.8167130   -2.3730149  
O   13.2125321   -2.3704008   -2.3858399  
C   11.0667207   -2.1475537   -1.3307036  
O   11.5864433   -3.0329397   -0.4091167  
C    9.7946910   -1.6178994   -1.2679902  
H   10.0752081    0.8851541   -4.9764743  
H   12.2936171   -0.7026118   -4.1619114  
H   13.2652706   -2.9426520   -1.6093014  
H   10.9166533   -3.2033878    0.2601613  
H    9.1287435   -1.8900919   -0.4574945  
H    7.7428303    1.3926928   -4.2192071  
C    5.6664810    0.0014066   -2.2647026  
C    4.7390840    0.0009613   -1.2727298  
C    5.4604950    0.0006395   -0.0219694  
C    6.8944812    0.0009655   -0.3690621  
N    6.9515096    0.0010264   -1.7437030  
C    7.9048599    0.0011995    0.5369400  
C    7.5567537    0.0008993    1.9480947  
O    8.3942799    0.0010144    2.8407592  
C    6.0443616    0.0002997    2.3385747  
O    5.7391072   -0.0002635    3.5235134  
C    5.0461778    0.0003722    1.2720471  
H    8.9502793    0.0015672    0.2612451  
H    4.0011828    0.0001604    1.5508123  
H    5.5192864    0.0017637   -3.3325147  
C    3.2798077    0.0005856   -1.4499661  
C    2.5571132    0.0005565   -2.5996564  
C    1.1637425    0.0001547   -2.2210366  
C    1.1336959   -0.0000200   -0.7459475  
N    2.4483509   -0.0001429   -0.3402730  
C    0.0000000    0.0000000    0.0000000  
C   -1.2757370   -0.0000187   -0.6964411  
O   -2.3524597   -0.0000640   -0.1142306  
C   -1.2676502   -0.0000874   -2.2584078  
O   -2.3355774   -0.0004102   -2.8557287  
C    0.0181551    0.0001758   -2.9516297  
H    2.9547342    0.0006074   -3.5989118  
H    0.0150776    0.0003317   -4.0331632  
H    2.7563626    0.0012823    0.6148051  
C    2.5128556    2.1077716    2.9199648  
C    1.9592212    1.6432552    4.0696553  
C    0.8915788    0.7479214    3.6910360  
C    0.8684491    0.7287414    2.2159470  
N    1.8754542    1.5738793    1.8102719  
C    0.0000000    0.0000000    1.4700000  
C   -0.9772830   -0.8200135    2.1664417  
O   -1.8021297   -1.5120829    1.5842315  
C   -0.9711318   -0.8147624    3.7284083  
O   -1.7894187   -1.5009653    4.3257297  
C    0.0140216    0.0115358    4.4216297  
H    2.2638494    1.8988021    5.0689105  
H    0.0117648    0.0094386    5.5031631  
H    3.3327358    2.7953732    2.7900019  
H    2.1123206    1.7707734    0.8551938  
