64

C   -3.9582754    0.7120022   -2.0436205  
C   -5.3029533    0.4626353   -2.1923657  
C   -5.4396990   -0.4462402   -3.2831662  
C   -4.1334638   -0.7183581   -3.7644436  
N   -3.2578650    0.0024046   -2.9908509  
C   -3.8873043   -1.5782271   -4.8390691  
C   -4.9796586   -2.1744890   -5.4385777  
O   -4.7962363   -3.0231302   -6.4917524  
C   -6.2907034   -1.9152406   -4.9729929  
O   -7.2721847   -2.5844442   -5.6745656  
C   -6.5343101   -1.0668597   -3.9130723  
H   -2.8941504   -1.7896627   -5.2107445  
H   -5.6753437   -3.3236379   -6.7565770  
H   -8.1265772   -2.3544127   -5.2968044  
H   -7.5494840   -0.8874746   -3.5788253  
H   -3.4434890    1.3410042   -1.3377099  
C    0.0000000    0.0000000    0.0000000  
C    1.0521669   -0.0011915   -0.8862343  
C    0.4917220   -0.0011969   -2.1979130  
C   -0.9187427    0.0003147   -2.0478684  
N   -1.1833170   -0.0009408   -0.7007915  
C   -1.7951697    0.0010349   -3.1372093  
C   -1.2375836    0.0005217   -4.4010424  
O   -2.0474212    0.0015352   -5.4997582  
C    0.1673586   -0.0013586   -4.5711963  
O    0.5673528   -0.0020711   -5.8915553  
C    1.0325773   -0.0023433   -3.4969891  
H    2.0953059   -0.0030667   -0.6200562  
H   -2.0989778    0.0102381   -0.2891826  
H   -1.4634883    0.0006485   -6.2693597  
H    1.5290720   -0.0033183   -5.9180043  
H    2.1042158   -0.0039636   -3.6584453  
C   -6.4289292    2.3377596   -0.9185633  
C   -6.3758786    1.0391190   -1.3693242  
C   -7.5456467    0.3821460   -0.8849389  
C   -8.2811648    1.3382644   -0.1387646  
N   -7.5740852    2.5143321   -0.1777606  
C   -9.4950921    1.0382698    0.4866737  
C   -9.9754166   -0.2503146    0.3562269  
O  -11.1562655   -0.5970830    0.9464486  
C   -9.2558421   -1.2184366   -0.3838872  
O   -9.8650802   -2.4557008   -0.4206437  
C   -8.0580741   -0.9232608   -1.0009363  
H   -7.8554769    3.3753095    0.2552729  
H  -10.0604366    1.7624325    1.0569162  
H  -11.3045133   -1.5278538    0.7344285  
H   -9.3149047   -3.0503338   -0.9396063  
H   -7.5293898   -1.6857011   -1.5609866  
H   -5.7397970    3.1516474   -1.0656777  
C    3.2573670    0.0002920    2.9809380  
C    2.5379467    0.0001709    1.8291961  
C    1.1435042   -0.0000331    2.2038498  
C    1.1092607    0.0000083    3.6788474  
N    2.4227561   -0.0001909    4.0882609  
C   -0.0265533    0.0002524    4.4215661  
C   -1.3003036    0.0002640    3.7214979  
O   -2.3786784    0.0004133    4.3006425  
C   -1.2877726   -0.0000311    2.1595606  
O   -2.3539958   -0.0003306    1.5592035  
C    0.0000000    0.0000000    1.4700000  
H    2.9384090    0.0000368    0.8310761  
H   -0.0296291    0.0004086    5.5027230  
H    4.3270393    0.0004765    3.1139444  
H    2.7280493    0.0013407    5.0442112  
