64

C    4.3172221   -2.1275323   -1.4345756  
C    5.3517574   -1.6299265   -2.1925942  
C    4.7753719   -0.7549433   -3.1604702  
C    3.3738289   -0.7583777   -2.9423148  
N    3.1294665   -1.6035295   -1.8884538  
C    2.4861703   -0.0045376   -3.7159919  
C    3.0231730    0.7670563   -4.7281424  
O    2.2016855    1.5228026   -5.5136479  
C    4.4188992    0.7834238   -4.9615918  
O    4.7982327    1.6012136   -6.0059425  
C    5.2951623    0.0397835   -4.1989070  
H    6.3935691   -1.8691157   -2.0644883  
H    2.2250274   -1.7988472   -1.4988094  
H    2.7718764    1.9763908   -6.1480015  
H    5.7549222    1.5548856   -6.0965133  
H    6.3593036    0.0723747   -4.4014375  
H    4.3324737   -2.8158804   -0.6069876  
C    0.0000000    0.0000000    0.0000000  
C    1.0521669   -0.0011899   -0.8862338  
C    0.4917222   -0.0011953   -2.1979129  
C   -0.9187426    0.0003152   -2.0478681  
N   -1.1833169   -0.0009409   -0.7007913  
C   -1.7951697    0.0010354   -3.1372090  
C   -1.2375835    0.0005230   -4.4010425  
O   -2.0474206    0.0015366   -5.4997579  
C    0.1673585   -0.0013561   -4.5711965  
O    0.5673529   -0.0020681   -5.8915554  
C    1.0325774   -0.0023407   -3.4969889  
H    2.0953060   -0.0030646   -0.6200560  
H   -2.0989776    0.0102374   -0.2891826  
H   -1.4634880    0.0006503   -6.2693594  
H    1.5290717   -0.0033145   -5.9180047  
C   -3.2578649    0.0024042   -2.9908508  
C   -3.9809867    0.0031290   -1.8468780  
C   -5.3695591    0.0043916   -2.2808885  
C   -5.2983963    0.0043645   -3.7578852  
N   -4.0631139    0.0031214   -4.1798626  
C   -6.4794705    0.0054035   -4.5765117  
C   -7.6771917    0.0060342   -3.9481814  
O   -8.8597146    0.0070295   -4.5866786  
C   -7.7819056    0.0057085   -2.4591564  
O   -8.9049088    0.0064467   -1.9550890  
C   -6.5558060    0.0046823   -1.6414750  
H   -3.6170581    0.0027521   -0.8336497  
H   -6.3979223    0.0055647   -5.6536647  
H   -9.5255207    0.0072471   -3.8754439  
H   -6.6744111    0.0043603   -0.5662250  
C    3.3041272   -0.0001177    3.0120429  
C    2.5845372    0.0004780    1.8395852  
C    1.2040006    0.0000008    2.1983588  
C    1.1422373   -0.0006037    3.6154372  
N    2.4348639   -0.0026109    4.0777464  
C   -0.0655181   -0.0008797    4.3197917  
C   -1.2321768   -0.0002324    3.5801400  
O   -2.4392816   -0.0001146    4.2172520  
C   -1.1911209    0.0000007    2.1655264  
O   -2.4371527    0.0002320    1.5732860  
C    0.0000000    0.0000000    1.4700000  
H    3.0031534    0.0000661    0.8477417  
H    2.7054629    0.0071099    5.0445261  
H   -0.1193549   -0.0014844    5.3997470  
H   -3.1132988    0.0000648    3.5251786  
H   -2.3200282    0.0004071    0.6183591  
H    4.3686625   -0.0004071    3.1724291  
