64

C    8.1972636   -0.7256307    0.7001437  
C    8.7198847   -0.0069937   -0.3500450  
C    9.8373220    0.7196192    0.1578585  
C    9.9491485    0.4016176    1.5356451  
N    8.9368218   -0.4768023    1.8326132  
C   10.9441502    0.9393672    2.3575857  
C   11.8428153    1.8138367    1.7780330  
O   12.8345492    2.3677438    2.5347790  
C   11.7474024    2.1437467    0.4051266  
O   12.7157080    3.0285309   -0.0225242  
C   10.7659023    1.6138319   -0.4062758  
H    8.7696097   -0.8864001    2.7338628  
H   11.0346867    0.7011286    3.4084176  
H   13.3418709    2.9394227    1.9439550  
H   12.5799526    3.1983656   -0.9597168  
H   10.7178016    1.8853061   -1.4543534  
H    7.3546073   -1.3948973    0.7313047  
C    4.5679461   -0.0016854   -2.0086701  
C    5.6536972   -0.0028960   -1.1639156  
C    6.8200674   -0.0036843   -1.9850010  
C    6.3798482   -0.0026079   -3.3333824  
N    5.0072029   -0.0033585   -3.3118965  
C    7.2630029   -0.0026836   -4.4172763  
C    8.6151888   -0.0035606   -4.1348421  
O    9.5213681   -0.0033235   -5.1555539  
C    9.0739284   -0.0050162   -2.7960464  
O   10.4486143   -0.0061739   -2.6795157  
C    8.2032438   -0.0052157   -1.7262640  
H    5.6103771   -0.0042819   -0.0882231  
H    4.4140952    0.0076777   -4.1218860  
H    6.9338474   -0.0020111   -5.4472560  
H   10.3956198   -0.0043445   -4.7445210  
H   10.6745774   -0.0070905   -1.7443453  
C    3.1301149   -0.0010311   -1.7028252  
C    2.5367768   -0.0002767   -0.4864665  
C    1.1089904    0.0001028   -0.7656183  
C    1.0177872   -0.0004148   -2.2415132  
N    2.1993578   -0.0011611   -2.7963820  
C   -0.2459209   -0.0002877   -2.9257118  
C   -1.3675319   -0.0000605   -2.1698524  
O   -2.6129313    0.0000867   -2.6748490  
C   -1.3083584    0.0000910   -0.6783232  
O   -2.3693261    0.0004206   -0.0541692  
C    0.0000000    0.0000000    0.0000000  
H    3.0096017   -0.0001007    0.4807525  
H   -0.2829630   -0.0004687   -4.0053125  
H   -3.1967441    0.0002094   -1.8949034  
C    0.8576279    0.7185626    2.2703808  
C    0.0000000    0.0000000    1.4700000  
C   -0.8668858   -0.7285659    2.3373528  
C   -0.4876752   -0.4117774    3.6669281  
N    0.5635254    0.4678311    3.5902241  
C   -1.1297612   -0.9515493    4.7854808  
C   -2.1738724   -1.8268314    4.5576857  
O   -2.8357962   -2.3827064    5.6140350  
C   -2.5667212   -2.1555554    3.2384331  
O   -3.6226318   -3.0413663    3.1773122  
C   -1.9335634   -1.6236449    2.1344818  
H    1.0363952    0.8769718    4.3757045  
H   -0.8454472   -0.7142436    5.8013813  
H   -3.5178062   -2.9546422    5.2385129  
H   -3.8247440   -3.2102924    2.2519915  
H   -2.2566033   -1.8942483    1.1360343  
H    1.6567807    1.3889844    2.0042067  
