62

C   -0.9563600    2.1218344   -5.8116184  
C   -1.9022031    1.6228050   -6.6769615  
C   -1.2233578    0.7486472   -7.5767484  
C    0.1463847    0.7540287   -7.2083702  
N    0.2742243    1.5994964   -6.1343780  
C    1.1135182    0.0014431   -7.8814647  
C    0.6901427   -0.7708752   -8.9456333  
O    1.5927747   -1.5254590   -9.6376399  
C   -0.6721454   -0.7891812   -9.3285862  
O   -0.9352316   -1.6074750  -10.4077167  
C   -1.6267487   -0.0467794   -8.6651863  
H   -2.9520882    1.8605404   -6.6622529  
H    1.1309724    1.7960647   -5.6492752  
H    1.0951255   -1.9798266  -10.3298533  
H   -1.8765881   -1.5624774  -10.6011766  
H   -2.6627152   -0.0808480   -8.9815559  
H   -1.0619362    2.8101420   -4.9906165  
C    3.1006060    0.0006268   -3.9654947  
C    4.3965753    0.0006902   -4.3711275  
C    4.3857806    0.0007800   -5.8149835  
C    2.9671179    0.0007929   -6.2201831  
N    2.2396185    0.0002984   -5.0524357  
C    2.5349220    0.0012657   -7.5066161  
C    3.5336516    0.0015713   -8.5625873  
O    3.2452516    0.0019407   -9.7521782  
C    5.0419196    0.0013115   -8.1564677  
O    5.8918142    0.0012585   -9.0367738  
C    5.3843453    0.0010797   -6.7363984  
H    5.2614039    0.0004935   -3.7318427  
H    6.4309093    0.0011061   -6.4635840  
H    1.2375715    0.0017402   -4.9981499  
C    3.2798085    0.0005859   -1.4499648  
C    2.5571146    0.0005569   -2.5996553  
C    1.1637437    0.0001551   -2.2210359  
C    1.1336966   -0.0000198   -0.7459471  
N    2.4483513   -0.0001427   -0.3402720  
C    0.0000000    0.0000000    0.0000000  
C   -1.2757366   -0.0000185   -0.6964416  
O   -2.3524595   -0.0000640   -0.1142313  
C   -1.2676493   -0.0000870   -2.2584084  
O   -2.3355759   -0.0004098   -2.8557296  
C    0.0181563    0.0001763   -2.9516295  
H    0.0150795    0.0003323   -4.0331630  
H    4.3498549    0.0008614   -1.3200020  
H    2.7563627    0.0012824    0.6148062  
C    2.5285572    2.1210227    2.9438989  
C    1.9331703    1.6216660    4.0790748  
C    0.8903039    0.7472258    3.6520102  
C    0.8972198    0.7527806    2.2336141  
N    1.9028376    1.5986179    1.8362361  
C    0.0000000    0.0000000    1.4700000  
C   -0.9207814   -0.7726952    2.1506477  
O   -1.8198395   -1.5274828    1.4542253  
C   -0.9436862   -0.7911793    3.5655508  
O   -1.9197945   -1.6098497    4.0950179  
C   -0.0590329   -0.0485852    4.3195194  
H    2.2150357    1.8593692    5.0905303  
H    2.1533708    1.7953814    0.8841339  
H   -2.3621246   -1.9821033    2.1118817  
H   -1.8668290   -1.5649508    5.0545920  
H   -0.1007624   -0.0827977    5.4019087  
H    3.3491200    2.8096064    2.8367138  
