64

C    3.3982178   -0.7145515   -2.9707414  
C    4.6647797   -0.4659384   -3.4466418  
C    4.5287062    0.4428853   -4.5375698  
C    3.1442637    0.7157497   -4.6817636  
N    2.4861703   -0.0045376   -3.7159919  
C    2.6410831    1.5757823   -5.6625505  
C    3.5521108    2.1714432   -6.5130773  
O    3.1150136    3.0202122   -7.4885517  
C    4.9373492    1.9114455   -6.3852787  
O    5.7157918    2.5801127   -7.3073712  
C    5.4344347    1.0629029   -5.4181137  
H    5.5747236   -0.8885872   -3.0563047  
H    1.5870514    1.7877859   -5.7777583  
H    3.9017848    3.3202307   -7.9620967  
H    6.6368419    2.3495915   -7.1520321  
H    6.5005906    0.8829384   -5.3446134  
H    3.0731387   -1.3432799   -2.1595800  
C    0.0000000    0.0000000    0.0000000  
C    1.0521669   -0.0011899   -0.8862338  
C    0.4917222   -0.0011953   -2.1979129  
C   -0.9187426    0.0003152   -2.0478681  
N   -1.1833169   -0.0009409   -0.7007913  
C   -1.7951697    0.0010354   -3.1372090  
C   -1.2375835    0.0005230   -4.4010425  
O   -2.0474206    0.0015366   -5.4997579  
C    0.1673585   -0.0013561   -4.5711965  
O    0.5673529   -0.0020681   -5.8915554  
C    1.0325774   -0.0023407   -3.4969889  
H    2.0953060   -0.0030646   -0.6200560  
H   -2.0989776    0.0102374   -0.2891826  
H   -1.4634880    0.0006503   -6.2693594  
H    1.5290717   -0.0033145   -5.9180047  
C   -3.9706153    0.7078471   -2.0752020  
C   -3.2578649    0.0024042   -2.9908508  
C   -4.2092566   -0.7390484   -3.7845369  
C   -5.5442781   -0.4053283   -3.2524292  
N   -5.3302438    0.4757924   -2.2176803  
C   -6.7107799   -0.9039059   -3.7345068  
C   -6.6471507   -1.8312551   -4.8518742  
O   -7.6418937   -2.3349344   -5.3569434  
C   -5.2439093   -2.1989840   -5.4310938  
O   -5.1777879   -2.9789254   -6.3716146  
C   -4.0578490   -1.5968503   -4.8273162  
H   -7.6796123   -0.6460676   -3.3297935  
H   -3.0900444   -1.8564939   -5.2343348  
H   -3.6170005    1.3775599   -1.3081746  
H   -6.0508677    0.8884477   -1.6542406  
C    3.3003543   -0.0005276    2.9438989  
C    2.5232812   -0.0003497    4.0790748  
C    1.1623199    0.0001319    3.6520102  
C    1.1711883   -0.0000583    2.2336141  
N    2.4852299    0.0014920    1.8362361  
C    0.0000000    0.0000000    1.4700000  
C   -1.2020384   -0.0000520    2.1506477  
O   -2.3759250   -0.0003494    1.4542253  
C   -1.2314658    0.0005113    3.5655508  
O   -2.5054393    0.0008037    4.0950179  
C   -0.0764518    0.0007272    4.3195194  
H    2.8919952    0.0005619    5.0905303  
H    2.8036267   -0.0088181    0.8841339  
H   -3.0835639   -0.0000348    2.1118817  
H   -2.4360050    0.0011527    5.0545920  
H   -0.1304098    0.0013421    5.4019087  
H    4.3715549   -0.0004895    2.8367138  
