62

C    2.2542570   -4.5551150   -6.4403366  
C    3.2434681   -4.3435320   -7.3726249  
C    3.1416380   -2.9821804   -7.7860875  
C    2.0631085   -2.4079656   -7.0656875  
N    1.5452195   -3.3907389   -6.2591111  
C    1.6748844   -1.0738462   -7.2212416  
C    2.3886219   -0.3053128   -8.1201928  
O    2.0520927    1.0036884   -8.3106602  
C    3.4676302   -0.8602748   -8.8486002  
O    4.0781133    0.0328899   -9.7047016  
C    3.8510034   -2.1764120   -8.6958470  
H    3.9506787   -5.0801134   -7.7136458  
H    0.7765141   -3.2749056   -5.6237723  
H    2.6671990    1.3506134   -8.9698647  
H    4.7952725   -0.4213893  -10.1573787  
H    4.6814676   -2.5735923   -9.2677339  
H    1.9974631   -5.4448616   -5.8913686  
C    0.2653132   -0.7042850   -5.1440085  
C   -0.8287665    0.0000939   -4.7555305  
C   -1.2825957    0.7423470   -5.9078911  
C   -0.3566077    0.4102558   -7.0074599  
N    0.5584964   -0.4707815   -6.4790213  
C   -0.4467553    0.9099656   -8.2659782  
C   -1.5278137    1.8369015   -8.5569044  
O   -1.6939217    2.3415174   -9.6596606  
C   -2.5200360    2.2029120   -7.4074107  
O   -3.4339547    2.9824917   -7.6403699  
C   -2.3204910    1.5996618   -6.0920693  
H    0.2428630    0.6533153   -9.0581062  
H   -3.0119746    1.8581180   -5.3016419  
H    0.8822125   -1.3741501   -4.5672890  
C    1.0672569   -0.0000698   -0.8321910  
C    0.0000000    0.0000000    0.0000000  
C   -1.1601223   -0.0000736   -0.8778472  
C   -0.5938729   -0.0000768   -2.2438435  
N    0.7113367   -0.0001553   -2.2234123  
C   -1.4286985   -0.0001877   -3.4135239  
C   -2.7683113   -0.0006798   -3.2270524  
O   -3.6653902   -0.0008302   -4.2276970  
C   -3.3702024   -0.0010610   -1.8610774  
O   -4.5974910   -0.0013779   -1.7662963  
C   -2.4926825   -0.0008943   -0.6770658  
H   -4.5324245   -0.0012258   -3.7833954  
H   -2.9677772   -0.0012974    0.2947961  
H    2.1134391   -0.0000547   -0.5705119  
C    2.5285572    2.1210227    2.9438989  
C    1.9331703    1.6216660    4.0790748  
C    0.8903039    0.7472258    3.6520102  
C    0.8972198    0.7527806    2.2336141  
N    1.9028376    1.5986179    1.8362361  
C    0.0000000    0.0000000    1.4700000  
C   -0.9207814   -0.7726952    2.1506477  
O   -1.8198395   -1.5274828    1.4542253  
C   -0.9436862   -0.7911793    3.5655508  
O   -1.9197945   -1.6098497    4.0950179  
C   -0.0590329   -0.0485852    4.3195194  
H    2.2150357    1.8593692    5.0905303  
H    2.1533708    1.7953814    0.8841339  
H   -2.3621246   -1.9821033    2.1118817  
H   -1.8668290   -1.5649508    5.0545920  
H   -0.1007624   -0.0827977    5.4019087  
H    3.3491200    2.8096064    2.8367138  
