60

C    2.7470028   -3.0670585   -8.1495787  
C    3.4066350   -2.9610582   -9.3521247  
C    3.3153269   -1.5967544   -9.7582508  
C    2.5826393   -0.9120312   -8.7551315  
N    2.2512038   -1.8345385   -7.7940135  
C    2.2999475    0.4554130   -8.8256363  
C    2.7656397    1.1442417   -9.9287335  
O    2.5181839    2.4812572  -10.0477639  
C    3.4981633    0.4786106  -10.9402482  
O    3.8923861    1.3022511  -11.9744382  
C    3.7771830   -0.8704430  -10.8714833  
H    3.8927661   -3.7680407   -9.8731322  
H    1.7419121    0.9831162   -8.0645007  
H    2.9246542    2.7612970  -10.8782000  
H    4.3806987    0.7749049  -12.6140160  
H    4.3403935   -1.3529722  -11.6616977  
H    2.5897247   -3.9246186   -7.5180622  
C    1.7720687   -2.0859334   -5.3149826  
C    0.8968265   -1.6247192   -4.3847637  
C   -0.0065337   -0.7270828   -5.0652227  
C    0.4171838   -0.7029980   -6.4782598  
N    1.5002591   -1.5471467   -6.5634087  
C   -0.1857669    0.0284587   -7.4494066  
C   -1.3281510    0.8467741   -7.0781197  
O   -1.9388960    1.5411248   -7.8800975  
C   -1.7940048    0.8367264   -5.5872531  
O   -2.7544406    1.5219332   -5.2627294  
C   -1.0641734    0.0073898   -4.6315339  
H    0.8854567   -1.8836208   -3.3409941  
H    0.1408064    0.0318495   -8.4800607  
H    2.5929127   -2.7739333   -5.1934849  
C    1.1319248    0.0015675   -0.8009270  
C    0.7969916    0.0034959   -2.1169404  
C   -0.6453336    0.0035703   -2.1842672  
C   -1.1266831    0.0015415   -0.7896027  
N    0.0000000    0.0000000    0.0000000  
C   -2.4346129    0.0013924   -0.4276297  
C   -3.4350110    0.0031352   -1.4820184  
O   -4.6384610    0.0030897   -1.2583919  
C   -2.9478958    0.0050460   -2.9661075  
O   -3.7809377    0.0062160   -3.8623775  
C   -1.5113821    0.0053068   -3.2312125  
H    1.4821240    0.0045436   -2.9459192  
H   -2.7664565    0.0000185    0.6013447  
H    2.1104318    0.0009428   -0.3488058  
C    2.3971438    2.0127888    3.1728260  
C    1.9431056    1.6308205    1.9564670  
C    0.8496017    0.7127664    2.2356185  
C    0.7794028    0.6545384    3.7115134  
N    1.6840587    1.4146091    4.2663826  
C   -0.1885723   -0.1578550    4.3957118  
C   -1.0476298   -0.8789867    3.6398520  
O   -2.0015663   -1.6796266    4.1448486  
C   -1.0022026   -0.8410666    2.1483229  
O   -1.8147390   -1.5232959    1.5241687  
C    0.0000000    0.0000000    1.4700000  
H    2.3054237    1.9346118    0.9892483  
H   -0.2170646   -0.1815267    5.4753125  
H   -2.4487139   -2.0549881    3.3649027  
H    3.2048689    2.6911772    3.3971983  
