60

C   -5.8931742    0.7076650    0.8458172  
C   -6.2914229    0.4564863    2.1384017  
C   -7.3893404   -0.4512897    2.0668515  
C   -7.6176273   -0.7209003    0.6931260  
N   -6.6930515    0.0002344   -0.0208356  
C   -8.6278787   -1.5791226    0.2485629  
C   -9.4219499   -2.1762853    1.2082640  
O  -10.4228728   -3.0233979    0.8293646  
C   -9.2099895   -1.9195319    2.5837527  
O  -10.0836115   -2.5893508    3.4153011  
C   -8.2137147   -1.0727768    3.0230339  
H   -5.8461632    0.8767965    3.0238832  
H   -8.8071030   -1.7886453   -0.7969898  
H  -10.8479699   -3.3248899    1.6427898  
H   -9.8723968   -2.3610343    4.3257204  
H   -8.0754097   -0.8952926    4.0831515  
H   -5.1027587    1.3365860    0.4734455  
C   -3.2941076    0.0012874   -2.9038237  
C   -3.9928925    0.0012416   -1.7448244  
C   -5.3903267    0.0018082   -2.1493928  
C   -5.3503938    0.0022637   -3.6275636  
N   -4.1243045    0.0018805   -4.0755523  
C   -6.5485052    0.0028447   -4.4210470  
C   -7.7326800    0.0025760   -3.7675455  
O   -8.9284331    0.0030587   -4.3809097  
C   -7.8059026    0.0017443   -2.2766401  
O   -8.9180023    0.0016649   -1.7489529  
C   -6.5627960    0.0012033   -1.4850530  
H   -3.6076317    0.0007788   -0.7395137  
H   -6.4897389    0.0033754   -5.4996831  
H   -9.5790599    0.0026690   -3.6557628  
C    0.0000000    0.0000000    0.0000000  
C    1.0541688   -0.0001722   -0.8560393  
C    0.5103135   -0.0000454   -2.1935957  
C   -0.9576374    0.0002459   -2.0455730  
N   -1.2018460   -0.0001391   -0.6915968  
C   -1.8348314    0.0008317   -3.0810607  
C   -1.2972851    0.0009737   -4.4314604  
O   -2.0050676    0.0014265   -5.4301315  
C    0.2542619    0.0004184   -4.6117571  
O    0.7184666    0.0002257   -5.7439121  
C    1.0974550    0.0000874   -3.4189130  
H    2.0940752   -0.0005483   -0.5817984  
H    2.1707276   -0.0000911   -3.5523671  
H   -2.1128194    0.0014912   -0.2706789  
C    1.0672568    0.0000697    2.3021913  
C    0.0000000    0.0000000    1.4700000  
C   -1.1601224    0.0000736    2.3478473  
C   -0.5938729    0.0000769    3.7138435  
N    0.7113367    0.0001554    3.6934124  
C   -1.4286986    0.0001879    4.8835240  
C   -2.7683114    0.0006799    4.6970523  
O   -3.6653903    0.0008304    5.6976972  
C   -3.3702025    0.0010610    3.3310774  
O   -4.5974910    0.0013779    3.2362962  
C   -2.4926826    0.0008943    2.1470656  
H   -0.9878360   -0.0000190    5.8697035  
H   -4.5324246    0.0012261    5.2533954  
H   -2.9677772    0.0012974    1.1752040  
H    2.1134392    0.0000545    2.0405121  
