64

C    1.1188647    0.0008220   -0.8003810  
C    0.0000000    0.0000000    0.0000000  
C   -1.1323857    0.0008906   -0.8673531  
C   -0.6382656    0.0019688   -2.1969283  
N    0.7324022    0.0038483   -2.1202241  
C   -1.4770910    0.0027330   -3.3154815  
C   -2.8395466    0.0020966   -3.0876864  
O   -3.7039193    0.0024451   -4.1440354  
C   -3.3517866    0.0013950   -1.7684337  
O   -4.7300490    0.0012388   -1.7073133  
C   -2.5248538    0.0009137   -0.6644825  
H   -1.1067557    0.0037002   -4.3313812  
H   -4.5940023    0.0021860   -3.7685143  
H   -4.9934602    0.0007284   -0.7819922  
H   -2.9462578    0.0005614    0.3339651  
H    2.1619898    0.0009347   -0.5342068  
C    4.5154620   -2.1146769   -2.8156723  
C    4.7985775   -1.6646945   -4.0652469  
C    3.7280659   -0.7729181   -4.4441602  
C    2.7913710   -0.7399863   -3.3047267  
N    3.3260543   -1.5745778   -2.3505461  
C    1.6478443   -0.0100099   -3.2703000  
C    1.3174733    0.7969146   -4.4331686  
O    0.3100037    1.4889664   -4.4992699  
C    2.2949966    0.7769793   -5.6513050  
O    2.0272083    1.4520889   -6.6360777  
C    3.4969333   -0.0492780   -5.5706859  
H    5.6590342   -1.9276282   -4.6543936  
H    4.1686932   -0.0573917   -6.4182684  
H    2.9164729   -1.7608871   -1.4535629  
C    6.4674154   -3.6456815   -2.3132878  
C    5.2792734   -3.0432592   -1.9699613  
C    4.9474854   -3.4944818   -0.6581248  
C    5.9790251   -4.3776734   -0.2484598  
N    6.8847952   -4.4485156   -1.2776236  
C    5.9805546   -5.0127189    0.9971338  
C    4.9216123   -4.7511916    1.8447318  
O    4.8733873   -5.3444269    3.0730478  
C    3.8827337   -3.8732529    1.4538698  
O    2.8992373   -3.7160233    2.4085203  
C    3.8804358   -3.2466269    0.2251061  
H    7.7294704   -4.9911581   -1.2710080  
H    6.7636790   -5.6870369    1.3152733  
H    4.0637129   -5.0304866    3.4962897  
H    2.2367887   -3.1084681    2.0655301  
H    3.0708022   -2.5794164   -0.0465598  
H    7.0494282   -3.5673148   -3.2155514  
C    2.5311839    2.1237619    3.0120429  
C    1.9795631    1.6616747    1.8395852  
C    0.9223175    0.7739173    2.1983588  
C    0.8753926    0.7337535    3.6154372  
N    1.8668922    1.5631002    4.0777464  
C   -0.0496243   -0.0427881    4.3197917  
C   -0.9437528   -0.7922060    3.5801400  
O   -1.8685244   -1.5680278    4.2172520  
C   -0.9124520   -0.7656372    2.1655264  
O   -1.8671164   -1.5663939    1.5732860  
C    0.0000000    0.0000000    1.4700000  
H    2.3005065    1.9304404    0.8477417  
H    2.0679347    1.7444845    5.0445261  
H   -0.0904770   -0.0778569    5.3997470  
H   -2.3849669   -2.0011402    3.5251786  
H   -1.7775064   -1.4909735    0.6183591  
H    3.3468514    2.8078103    3.1724291  
