64

C    1.9780880   -1.9418910   -8.4197065  
C    2.9425052   -2.7728564   -8.9411130  
C    2.8114476   -2.7235507  -10.3606164  
C    1.7414664   -1.8382696  -10.6493090  
N    1.2565321   -1.3829263   -9.4484259  
C    1.3304248   -1.5487788  -11.9539265  
C    2.0121349   -2.1639497  -12.9859218  
O    1.6523337   -1.9164787  -14.2791008  
C    3.0821310   -3.0506095  -12.7180399  
O    3.6597943   -3.5832900  -13.8520156  
C    3.4879987   -3.3368725  -11.4312420  
H    3.6523543   -3.3451080   -8.3687183  
H    0.5009774   -0.7311989   -9.3372079  
H    0.5155936   -0.8750814  -12.1806095  
H    2.2470709   -2.4389915  -14.8327568  
H    4.3729264   -4.1703750  -13.5829853  
H    4.3108340   -4.0203015  -11.2570414  
C    2.3136488   -2.1180444   -5.9171369  
C    1.6624057   -1.6181594   -7.0209780  
C    0.6419643   -0.7441447   -6.5420234  
C    0.7194929   -0.7504913   -5.1257342  
N    1.7437761   -1.5963711   -4.7793978  
C   -0.1387079    0.0017019   -4.3179684  
C   -1.0923525    0.7746132   -4.9514888  
O   -1.9557351    1.5288505   -4.2107386  
C   -1.1856781    0.7938843   -6.3634860  
O   -2.1870610    1.6126762   -6.8432329  
C   -0.3395497    0.0518700   -7.1609864  
H    2.0414325   -1.7936220   -3.8410621  
H   -2.5301601    1.9837417   -4.8403217  
H   -2.1819306    1.5683232   -7.8042790  
H   -0.4351236    0.0866802   -8.2399366  
H    3.1386344   -2.8065415   -5.8513302  
C    3.3041273    0.0001178   -1.5420428  
C    2.5845373   -0.0004780   -0.3695851  
C    1.2040007   -0.0000007   -0.7283589  
C    1.1422374    0.0006038   -2.1454372  
N    2.4348641    0.0026111   -2.6077464  
C   -0.0655179    0.0008799   -2.8497918  
C   -1.2321766    0.0002325   -2.1101402  
O   -2.4392814    0.0001148   -2.7472522  
C   -1.1911209   -0.0000007   -0.6955266  
O   -2.4371528   -0.0002320   -0.1032862  
C    0.0000000    0.0000000    0.0000000  
H    3.0031533   -0.0000660    0.6222584  
H    2.7054631   -0.0071097   -3.5745261  
H   -3.1132988   -0.0000648   -2.0551787  
H   -2.3200282   -0.0004072    0.8516409  
H    4.3686625    0.0004073   -1.7024290  
C    2.3971438    2.0127888    3.1728260  
C    1.9431056    1.6308205    1.9564670  
C    0.8496017    0.7127664    2.2356185  
C    0.7794028    0.6545384    3.7115134  
N    1.6840587    1.4146091    4.2663826  
C   -0.1885723   -0.1578550    4.3957118  
C   -1.0476298   -0.8789867    3.6398520  
O   -2.0015663   -1.6796266    4.1448486  
C   -1.0022026   -0.8410666    2.1483229  
O   -1.8147390   -1.5232959    1.5241687  
C    0.0000000    0.0000000    1.4700000  
H    2.3054237    1.9346118    0.9892483  
H   -0.2170646   -0.1815267    5.4753125  
H   -2.4487139   -2.0549881    3.3649027  
H    3.2048689    2.6911772    3.3971983  
