62

C    5.5937967   -3.6425877    0.0482688  
C    4.4535441   -3.0447660   -0.4363970  
C    3.3672939   -3.5116109    0.3615482  
C    3.9103416   -4.3991534    1.3255472  
N    5.2642284   -4.4574393    1.1059788  
C    3.1249798   -5.0488851    2.2825449  
C    1.7667119   -4.7978436    2.2662844  
O    0.9535866   -5.4055847    3.1786945  
C    1.2060908   -3.9157795    1.3120922  
O   -0.1611347   -3.7702636    1.4255031  
C    1.9802303   -3.2746660    0.3675247  
H    5.9164494   -4.9997687    1.6430717  
H    3.5327505   -5.7265909    3.0198655  
H    0.0570271   -5.0970116    2.9936883  
H   -0.4594166   -3.1589720    0.7450954  
H    1.5225166   -2.6046288   -0.3508249  
H    6.6159016   -3.5533121   -0.2777533  
C    4.3939417   -2.1065670   -1.5664985  
C    5.4031217   -1.6413492   -2.3470132  
C    4.8103426   -0.7457934   -3.3121181  
C    3.3627147   -0.7272471   -3.0278290  
N    3.1757291   -1.5729266   -1.9588330  
C    2.4521483    0.0014840   -3.7217481  
C    2.9297301    0.8221550   -4.8221799  
O    2.1884022    1.5142697   -5.5075341  
C    4.4587969    0.8175814   -5.1411456  
O    4.8725549    1.5043410   -6.0654977  
C    5.3421066   -0.0087720   -4.3221491  
H    6.4439798   -1.8965716   -2.2570682  
H    6.3995019   -0.0062030   -4.5493776  
H    2.2909027   -1.7703225   -1.5285260  
C    0.0000000    0.0000000    0.0000000  
C    1.0662923   -0.0000101   -0.8334270  
C    0.4961873    0.0000065   -2.1718887  
C   -0.9663854   -0.0000848   -1.9540250  
N   -1.2632773   -0.0000083   -0.6828660  
C   -1.8985359   -0.0000514   -3.0477261  
C   -1.3925770    0.0004566   -4.3020547  
O   -2.1456378    0.0005414   -5.4151314  
C    0.0786240    0.0009326   -4.5545000  
O    0.4683767    0.0012591   -5.7221100  
C    1.0143171    0.0008444   -3.4159031  
H    2.1107200    0.0000633   -0.5721865  
H   -2.9622181   -0.0003268   -2.8593381  
H   -1.5042265    0.0009697   -6.1484419  
C    3.3003543   -0.0005276    2.9438989  
C    2.5232812   -0.0003497    4.0790748  
C    1.1623199    0.0001319    3.6520102  
C    1.1711883   -0.0000583    2.2336141  
N    2.4852299    0.0014920    1.8362361  
C    0.0000000    0.0000000    1.4700000  
C   -1.2020384   -0.0000520    2.1506477  
O   -2.3759250   -0.0003494    1.4542253  
C   -1.2314658    0.0005113    3.5655508  
O   -2.5054393    0.0008037    4.0950179  
C   -0.0764518    0.0007272    4.3195194  
H    2.8919952    0.0005619    5.0905303  
H    2.8036267   -0.0088181    0.8841339  
H   -3.0835639   -0.0000348    2.1118817  
H   -2.4360050    0.0011527    5.0545920  
H   -0.1304098    0.0013421    5.4019087  
H    4.3715549   -0.0004895    2.8367138  
