60

C   -0.7498275   -0.6936109   -9.5219870  
C   -0.4606342   -0.6479454  -10.8661407  
C   -0.6657537    0.6982755  -11.2906582  
C   -1.0828767    1.4346594  -10.1523822  
N   -1.1252706    0.5589541   -9.0959918  
C   -1.3757338    2.8009111  -10.2011597  
C   -1.2448359    3.4354101  -11.4211823  
O   -1.5177174    4.7687343  -11.5250855  
C   -0.8302892    2.7177341  -12.5683133  
O   -0.7484217    3.4907501  -13.7080879  
C   -0.5414722    1.3698206  -12.5209862  
H   -0.1421936   -1.4825264  -11.4670271  
H   -1.6942522    3.3678288   -9.3372424  
H   -1.3652949    5.0074680  -12.4486867  
H   -0.4620689    2.9303122  -14.4357668  
H   -0.2263450    0.8467000  -13.4162614  
H   -0.7193681   -1.5208652   -8.8337427  
C    0.5157023   -0.7055389   -5.2240925  
C   -0.2963293   -0.0005341   -4.3948471  
C   -1.2098550    0.7417636   -5.2310892  
C   -0.8609894    0.4090166   -6.6254931  
N    0.1928751   -0.4724048   -6.5523137  
C   -1.4945017    0.9085670   -7.7167385  
C   -2.5931304    1.8360108   -7.5036702  
O   -3.2264753    2.3405317   -8.4216212  
C   -2.9795613    2.2027195   -6.0353376  
O   -3.9026313    2.9827310   -5.8435417  
C   -2.2228516    1.5995820   -4.9410487  
H   -2.4968364    1.8585230   -3.9273399  
H    1.3229472   -1.3756269   -4.9766502  
H    0.6548727   -0.8845706   -7.3420756  
C    3.1301146   -0.0010313   -1.7028256  
C    2.5367765   -0.0002766   -0.4864669  
C    1.1089901    0.0001027   -0.7656184  
C    1.0177865   -0.0004150   -2.2415133  
N    2.1993571   -0.0011612   -2.7963824  
C   -0.2459219   -0.0002879   -2.9257116  
C   -1.3675326   -0.0000606   -2.1698520  
O   -2.6129318    0.0000865   -2.6748483  
C   -1.3083588    0.0000910   -0.6783229  
O   -2.3693264    0.0004206   -0.0541685  
C    0.0000000    0.0000000    0.0000000  
H    3.0096016   -0.0001007    0.4807518  
H   -3.1967444    0.0002093   -1.8949026  
H    4.1849275   -0.0015114   -1.9271979  
C    2.3971438    2.0127888    3.1728260  
C    1.9431056    1.6308205    1.9564670  
C    0.8496017    0.7127664    2.2356185  
C    0.7794028    0.6545384    3.7115134  
N    1.6840587    1.4146091    4.2663826  
C   -0.1885723   -0.1578550    4.3957118  
C   -1.0476298   -0.8789867    3.6398520  
O   -2.0015663   -1.6796266    4.1448486  
C   -1.0022026   -0.8410666    2.1483229  
O   -1.8147390   -1.5232959    1.5241687  
C    0.0000000    0.0000000    1.4700000  
H    2.3054237    1.9346118    0.9892483  
H   -0.2170646   -0.1815267    5.4753125  
H   -2.4487139   -2.0549881    3.3649027  
H    3.2048689    2.6911772    3.3971983  
