62

C   -3.8510408    0.7189163   -8.0169553  
C   -2.8583697    0.0009056   -8.6426812  
C   -3.4759381   -0.7269026   -9.7026361  
C   -4.8582816   -0.4102419   -9.6747607  
N   -5.0522365    0.4685640   -8.6380839  
C   -5.7760844   -0.9493961  -10.5812602  
C   -5.2895047   -1.8239172  -11.5334317  
O   -6.1421000   -2.3791667  -12.4432636  
C   -3.9136639   -2.1525015  -11.5771361  
O   -3.5852390   -3.0375225  -12.5832266  
C   -3.0077032   -1.6212007  -10.6829998  
H   -5.9323629    0.8774412   -8.3808325  
H   -6.8309188   -0.7121835  -10.5652184  
H   -5.6050372   -2.9506323  -13.0074045  
H   -2.6389573   -3.2064064  -12.5428297  
H   -1.9598675   -1.8916791  -10.7409630  
H   -3.7975004    1.3887029   -7.1758381  
C   -0.8712823    0.0001712   -4.7267111  
C    0.4246872    0.0002195   -5.1323438  
C    0.4138924    0.0002758   -6.5761999  
C   -1.0047702    0.0002857   -6.9813996  
N   -1.7322698   -0.0001786   -5.8136522  
C   -1.4369659    0.0007305   -8.2678326  
C   -0.4382364    0.0010073   -9.3238038  
O   -0.7266369    0.0013504  -10.5133939  
C    1.0700316    0.0007501   -8.9176841  
O    1.9199265    0.0006730   -9.7979910  
C    1.4124573    0.0005497   -7.4976147  
H    1.2895156    0.0000338   -4.4930590  
H    2.4590211    0.0005778   -7.2248003  
H   -2.7343169    0.0012690   -5.7593665  
C    1.0965515    0.0001358   -0.8010304  
C    0.0000000    0.0000000    0.0000000  
C   -1.1546562    0.0001470   -0.8669514  
C   -0.6372012    0.0003520   -2.2486282  
N    0.7342873    0.0007338   -2.1395014  
C   -1.4147737    0.0001354   -3.3608717  
C   -2.8576047   -0.0001047   -3.1854463  
O   -3.6427778   -0.0002491   -4.1244908  
C   -3.4275837   -0.0000725   -1.7311667  
O   -4.6406828    0.0000333   -1.5710061  
C   -2.4891866   -0.0001090   -0.6116745  
H   -2.8919121   -0.0002919    0.3920865  
H    2.1388272    0.0000662   -0.5261647  
H    1.3735873   -0.0006098   -2.9130261  
C    2.5285572    2.1210227    2.9438989  
C    1.9331703    1.6216660    4.0790748  
C    0.8903039    0.7472258    3.6520102  
C    0.8972198    0.7527806    2.2336141  
N    1.9028376    1.5986179    1.8362361  
C    0.0000000    0.0000000    1.4700000  
C   -0.9207814   -0.7726952    2.1506477  
O   -1.8198395   -1.5274828    1.4542253  
C   -0.9436862   -0.7911793    3.5655508  
O   -1.9197945   -1.6098497    4.0950179  
C   -0.0590329   -0.0485852    4.3195194  
H    2.2150357    1.8593692    5.0905303  
H    2.1533708    1.7953814    0.8841339  
H   -2.3621246   -1.9821033    2.1118817  
H   -1.8668290   -1.5649508    5.0545920  
H   -0.1007624   -0.0827977    5.4019087  
H    3.3491200    2.8096064    2.8367138  
