66

C    1.3704621   -2.3731962   -7.7502613  
C    0.9420538   -1.0701090   -7.6458724  
C    1.2338668   -0.4350112   -8.8892930  
C    1.8449247   -1.4084421   -9.7205373  
N    1.9143139   -2.5733328   -8.9974654  
C    2.2666134   -1.1321374  -11.0246163  
C    2.0675450    0.1501182  -11.4982930  
O    2.4601382    0.4739886  -12.7647823  
C    1.4599476    1.1352583  -10.6839589  
O    1.3320744    2.3634578  -11.2991980  
C    1.0439402    0.8634568   -9.3972625  
H    2.2907420   -3.4421169   -9.3313790  
H    2.7331084   -1.8695808  -11.6631798  
H    2.2323994    1.4041898  -12.8917668  
H    0.9129409    2.9707250  -10.6818182  
H    0.5817740    1.6385315   -8.7971467  
H    1.3324134   -3.1753106   -7.0332372  
C    0.6672015   -0.7204484   -5.1593827  
C   -0.1496415   -0.0015615   -4.3176961  
C   -1.0587673    0.7263812   -5.1412191  
C   -0.7461683    0.4088955   -6.4878484  
N    0.3077051   -0.4705103   -6.4630860  
C   -1.4432464    0.9479355   -7.5733466  
C   -2.4748781    1.8231890   -7.2943380  
O   -3.1886750    2.3783644   -8.3167317  
C   -2.8016143    2.1526022   -5.9573462  
O   -3.8533309    3.0382877   -5.8442235  
C   -2.1141817    1.6214137   -4.8859910  
H   -1.2098232    0.7100964   -8.6020096  
H   -3.8512445    2.9504101   -7.9080381  
H   -4.0091520    3.2077082   -4.9100826  
H   -2.3871579    1.8925349   -3.8728495  
H    1.4787357   -1.3905983   -4.9329528  
C    3.3003543    0.0005276   -1.4738987  
C    2.5232814    0.0003497   -2.6090747  
C    1.1623200   -0.0001320   -2.1820103  
C    1.1711883    0.0000582   -0.7636140  
N    2.4852300   -0.0014919   -0.3662360  
C    0.0000000    0.0000000    0.0000000  
C   -1.2020384    0.0000519   -0.6806477  
O   -2.3759249    0.0003493    0.0157743  
C   -1.2314656   -0.0005115   -2.0955510  
O   -2.5054392   -0.0008039   -2.6250180  
C   -0.0764516   -0.0007274   -2.8495195  
H    2.8919955   -0.0005620   -3.6205304  
H    2.8036267    0.0088183    0.5858662  
H   -3.0835638    0.0000347   -0.6418818  
H   -2.4360047   -0.0011529   -3.5845921  
H    4.3715549    0.0004895   -1.3667136  
C    2.5311839    2.1237619    3.0120429  
C    1.9795631    1.6616747    1.8395852  
C    0.9223175    0.7739173    2.1983588  
C    0.8753926    0.7337535    3.6154372  
N    1.8668922    1.5631002    4.0777464  
C   -0.0496243   -0.0427881    4.3197917  
C   -0.9437528   -0.7922060    3.5801400  
O   -1.8685244   -1.5680278    4.2172520  
C   -0.9124520   -0.7656372    2.1655264  
O   -1.8671164   -1.5663939    1.5732860  
C    0.0000000    0.0000000    1.4700000  
H    2.3005065    1.9304404    0.8477417  
H    2.0679347    1.7444845    5.0445261  
H   -0.0904770   -0.0778569    5.3997470  
H   -2.3849669   -2.0011402    3.5251786  
H   -1.7775064   -1.4909735    0.6183591  
H    3.3468514    2.8078103    3.1724291  
