62

C    2.5562220   -0.0001552   -3.6003002  
C    3.5655135   -0.0006161   -2.6655282  
C    4.7980133   -0.0013042   -3.3835419  
C    4.4750733   -0.0009424   -4.7647138  
N    3.1056450   -0.0021963   -4.8610456  
C    5.4479449   -0.0011312   -5.7688602  
C    6.7709228   -0.0013882   -5.3714826  
O    7.7613134   -0.0012297   -6.3107058  
C    7.1131343   -0.0021264   -3.9982724  
O    8.4727600   -0.0027234   -3.7642570  
C    6.1538993   -0.0022140   -3.0071155  
H    3.4300852   -0.0015789   -1.5975155  
H    2.5841964    0.0082879   -5.7189281  
H    5.2083491   -0.0010017   -6.8232779  
H    8.5970863   -0.0017571   -5.8261980  
H    8.6176773   -0.0031743   -2.8131511  
H    6.4463537   -0.0029687   -1.9635889  
C    0.0000000    0.0000000    0.0000000  
C    1.0541690   -0.0001722   -0.8560392  
C    0.5103143   -0.0000454   -2.1935956  
C   -0.9576365    0.0002459   -2.0455735  
N   -1.2018458   -0.0001391   -0.6915971  
C   -1.8348304    0.0008316   -3.0810614  
C   -1.2972839    0.0009736   -4.4314607  
O   -2.0050661    0.0014265   -5.4301325  
C    0.2542633    0.0004184   -4.6117571  
O    0.7184680    0.0002257   -5.7439119  
C    1.0974559    0.0000874   -3.4189129  
H    2.0940753   -0.0005483   -0.5817981  
H   -2.1128193    0.0014911   -0.2706794  
C   -4.3137500    2.1424309   -0.2077342  
C   -5.5591246    1.7353206   -0.5466767  
C   -5.3648103    0.8246398   -1.6644433  
C   -3.9011711    0.7979204   -1.8733228  
N   -3.2797686    1.5684035   -1.0223208  
C   -3.2941067    0.0012872   -2.9038248  
C   -4.1120051   -0.7354738   -3.6896745  
O   -3.6822282   -1.5242483   -4.6892580  
C   -5.5930491   -0.7299496   -3.5035615  
O   -6.2763255   -1.4248023   -4.2555812  
C   -6.1916579    0.0955189   -2.4395153  
H   -6.4941452    2.0180129   -0.0940211  
H   -4.4926428   -1.9161861   -5.0617703  
H   -7.2683265    0.0718753   -2.3372596  
H   -4.0287179    2.8244774    0.5774681  
C    3.3003543   -0.0005276    2.9438989  
C    2.5232812   -0.0003497    4.0790748  
C    1.1623199    0.0001319    3.6520102  
C    1.1711883   -0.0000583    2.2336141  
N    2.4852299    0.0014920    1.8362361  
C    0.0000000    0.0000000    1.4700000  
C   -1.2020384   -0.0000520    2.1506477  
O   -2.3759250   -0.0003494    1.4542253  
C   -1.2314658    0.0005113    3.5655508  
O   -2.5054393    0.0008037    4.0950179  
C   -0.0764518    0.0007272    4.3195194  
H    2.8919952    0.0005619    5.0905303  
H    2.8036267   -0.0088181    0.8841339  
H   -3.0835639   -0.0000348    2.1118817  
H   -2.4360050    0.0011527    5.0545920  
H   -0.1304098    0.0013421    5.4019087  
H    4.3715549   -0.0004895    2.8367138  
