62

C    1.0442345    0.0120824   -7.5868831  
C   -0.2695939    0.0128124   -7.1790581  
C   -1.0716824    0.0150435   -8.3585708  
C   -0.1844323    0.0153022   -9.4652385  
N    1.0925393    0.0154256   -8.9612939  
C   -0.6288468    0.0169944  -10.7908640  
C   -1.9938009    0.0181449  -11.0031816  
O   -2.4820322    0.0194627  -12.2777964  
C   -2.8950018    0.0182845   -9.9120112  
O   -4.2225329    0.0199135  -10.2875154  
C   -2.4572838    0.0168889   -8.6039877  
H   -0.6082197    0.0129599   -6.1571357  
H    1.9330886    0.0050472   -9.5102467  
H    0.0422346    0.0173447  -11.6387140  
H   -3.4450555    0.0204019  -12.2013036  
H   -4.7636278    0.0198694   -9.4920157  
H   -3.1713527    0.0172171   -7.7887675  
C    1.7334697    0.0049246   -3.2500361  
C    3.0913864    0.0046110   -3.2383151  
C    3.5242786    0.0065420   -4.6157897  
C    2.2984618    0.0080462   -5.4368632  
N    1.2476583    0.0065694   -4.5487757  
C    2.2819760    0.0104503   -6.7938550  
C    3.5566099    0.0114095   -7.4923122  
O    3.6472547    0.0134883   -8.7130007  
C    4.8674242    0.0095955   -6.6428609  
O    5.9464907    0.0100754   -7.2198161  
C    4.7574561    0.0073244   -5.1862366  
H    3.7182532    0.0030069   -2.3644448  
H    5.6697682    0.0062837   -4.6053670  
H    0.2773174    0.0086322   -4.8046684  
C    1.1319247    0.0015655   -0.8009267  
C    0.7969916    0.0034943   -2.1169401  
C   -0.6453337    0.0035710   -2.1842668  
C   -1.1266832    0.0015433   -0.7896026  
N    0.0000000    0.0000000    0.0000000  
C   -2.4346130    0.0013964   -0.4276294  
C   -3.4350109    0.0031408   -1.4820183  
O   -4.6384610    0.0030973   -1.2583915  
C   -2.9478956    0.0050505   -2.9661075  
O   -3.7809378    0.0062218   -3.8623775  
C   -1.5113821    0.0053090   -3.2312122  
H   -2.7664565    0.0000232    0.6013446  
H   -1.1823527    0.0068407   -4.2614846  
H    2.1104317    0.0009391   -0.3488056  
C    2.5285572    2.1210227    2.9438989  
C    1.9331703    1.6216660    4.0790748  
C    0.8903039    0.7472258    3.6520102  
C    0.8972198    0.7527806    2.2336141  
N    1.9028376    1.5986179    1.8362361  
C    0.0000000    0.0000000    1.4700000  
C   -0.9207814   -0.7726952    2.1506477  
O   -1.8198395   -1.5274828    1.4542253  
C   -0.9436862   -0.7911793    3.5655508  
O   -1.9197945   -1.6098497    4.0950179  
C   -0.0590329   -0.0485852    4.3195194  
H    2.2150357    1.8593692    5.0905303  
H    2.1533708    1.7953814    0.8841339  
H   -2.3621246   -1.9821033    2.1118817  
H   -1.8668290   -1.5649508    5.0545920  
H   -0.1007624   -0.0827977    5.4019087  
H    3.3491200    2.8096064    2.8367138  
