64

C    9.9791432    0.7179807   -0.8498395  
C    9.0071987    0.0003575   -0.1919580  
C    9.6588434   -0.7277275    0.8472020  
C   11.0396616   -0.4116271    0.7740881  
N   11.1999288    0.4671256   -0.2683732  
C   11.9864304   -0.9511762    1.6500469  
C   11.5309310   -1.8255232    2.6176289  
O   12.4126293   -2.3811411    3.4990526  
C   10.1571244   -2.1535502    2.7063496  
O    9.8614546   -3.0384627    3.7226431  
C    9.2225923   -1.6218594    1.8423590  
H   12.0713275    0.8756518   -0.5542968  
H   13.0402698   -0.7143916    1.5994814  
H   11.8940925   -2.9524026    4.0804675  
H    8.9142882   -3.2069615    3.7132470  
H    8.1771060   -1.8919139    1.9345934  
H    9.8983677    1.3878097   -1.6887453  
C    6.8742260    0.0004673   -4.0661423  
C    5.5942422    0.0008993   -3.5620504  
C    5.7067592    0.0008100   -2.1401013  
C    7.0913509    0.0006002   -1.8321528  
N    7.7720040   -0.0015555   -3.0243458  
C    7.5742853    0.0007687   -0.5200693  
C    6.6425085    0.0014633    0.4997193  
O    7.0593435    0.0020074    1.7994354  
C    5.2567325    0.0013069    0.2125910  
O    4.4562658    0.0016418    1.3362446  
C    4.7795901    0.0008674   -1.0815733  
H    4.6906028    0.0001318   -4.1472243  
H    8.7711574    0.0083685   -3.1221988  
H    6.2603303    0.0021429    2.3424297  
H    3.5363981    0.0015351    1.0543802  
H    7.2178046   -0.0000038   -5.0863935  
C    3.3321168    0.0004716   -1.3379341  
C    2.6974177    0.0000118   -2.5332316  
C    1.2800432   -0.0002116   -2.2052842  
C    1.2395033    0.0000644   -0.7271298  
N    2.4394059    0.0005460   -0.2131041  
C    0.0000000    0.0000000    0.0000000  
C   -1.1468704    0.0000635   -0.7169542  
O   -2.3742206    0.0000074   -0.1695488  
C   -1.1388774    0.0001608   -2.2096352  
O   -2.2206238    0.0000906   -2.7970409  
C    0.1454514    0.0001818   -2.9324241  
H    3.1367978   -0.0000649   -3.5160956  
H   -2.9844350    0.0001027   -0.9290164  
H    0.1083567    0.0003684   -4.0135594  
C    2.5285572    2.1210227    2.9438989  
C    1.9331703    1.6216660    4.0790748  
C    0.8903039    0.7472258    3.6520102  
C    0.8972198    0.7527806    2.2336141  
N    1.9028376    1.5986179    1.8362361  
C    0.0000000    0.0000000    1.4700000  
C   -0.9207814   -0.7726952    2.1506477  
O   -1.8198395   -1.5274828    1.4542253  
C   -0.9436862   -0.7911793    3.5655508  
O   -1.9197945   -1.6098497    4.0950179  
C   -0.0590329   -0.0485852    4.3195194  
H    2.2150357    1.8593692    5.0905303  
H    2.1533708    1.7953814    0.8841339  
H   -2.3621246   -1.9821033    2.1118817  
H   -1.8668290   -1.5649508    5.0545920  
H   -0.1007624   -0.0827977    5.4019087  
H    3.3491200    2.8096064    2.8367138  
