64

C   -3.6085746    0.7115101   -8.2365985  
C   -4.7753902    0.4618397   -8.9211962  
C   -4.4547796   -0.4468603   -9.9728957  
C   -3.0657782   -0.7185630   -9.8791925  
N   -2.5823534    0.0022674   -8.8155565  
C   -2.4022184   -1.5781652  -10.7598515  
C   -3.1546107   -2.1745819  -11.7530139  
O   -2.5570829   -3.0229759  -12.6396937  
C   -4.5415943   -1.9157465  -11.8630072  
O   -5.1510900   -2.5850580  -12.9041028  
C   -5.1968190   -1.0676294  -10.9947317  
H   -5.7388634    0.8837225   -8.6915701  
H   -1.3437874   -1.7892846  -10.6938588  
H   -3.2514748   -3.3236495  -13.2402598  
H   -6.0853308   -2.3553101  -12.9079087  
H   -6.2600673   -0.8885591  -11.1038832  
H   -3.4268959    1.3405038   -7.3820115  
C   -0.8287671    0.0000935   -4.7555305  
C    0.4934745   -0.0006678   -5.1351932  
C    0.5171458   -0.0005603   -6.5613909  
C   -0.8317452    0.0005740   -7.0000447  
N   -1.6230471   -0.0010050   -5.8782354  
C   -1.1872839    0.0012869   -8.3522210  
C   -0.1624549    0.0011536   -9.2784513  
O   -0.4533755    0.0021781  -10.6120098  
C    1.1896012   -0.0003469   -8.8604092  
O    2.0936294   -0.0007075   -9.9025607  
C    1.5410839   -0.0013238   -7.5266238  
H    1.3371559   -0.0023365   -4.4664687  
H   -2.6269692    0.0098689   -5.8761611  
H    0.3938019    0.0015829  -11.0762893  
H    2.9824057   -0.0017119   -9.5342134  
H    2.5853074   -0.0026485   -7.2366685  
C    1.0672566   -0.0000698   -0.8321912  
C    0.0000000    0.0000000    0.0000000  
C   -1.1601226   -0.0000736   -0.8778472  
C   -0.5938732   -0.0000770   -2.2438435  
N    0.7113365   -0.0001555   -2.2234123  
C   -1.4286989   -0.0001880   -3.4135239  
C   -2.7683117   -0.0006800   -3.2270522  
O   -3.6653907   -0.0008306   -4.2276967  
C   -3.3702026   -0.0010611   -1.8610771  
O   -4.5974909   -0.0013781   -1.7662957  
C   -2.4926826   -0.0008944   -0.6770655  
H   -4.5324249   -0.0012263   -3.7833950  
H   -2.9677773   -0.0012975    0.2947963  
H    2.1134390   -0.0000546   -0.5705121  
C    0.8576279    0.7185626    2.2703808  
C    0.0000000    0.0000000    1.4700000  
C   -0.8668858   -0.7285659    2.3373528  
C   -0.4876752   -0.4117774    3.6669281  
N    0.5635254    0.4678311    3.5902241  
C   -1.1297612   -0.9515493    4.7854808  
C   -2.1738724   -1.8268314    4.5576857  
O   -2.8357962   -2.3827064    5.6140350  
C   -2.5667212   -2.1555554    3.2384331  
O   -3.6226318   -3.0413663    3.1773122  
C   -1.9335634   -1.6236449    2.1344818  
H    1.0363952    0.8769718    4.3757045  
H   -0.8454472   -0.7142436    5.8013813  
H   -3.5178062   -2.9546422    5.2385129  
H   -3.8247440   -3.2102924    2.2519915  
H   -2.2566033   -1.8942483    1.1360343  
H    1.6567807    1.3889844    2.0042067  
