62

C    4.3273267   -2.1264714   -5.8687829  
C    5.3596475   -1.6286439   -6.6296700  
C    4.7804163   -0.7535835   -7.5957754  
C    3.3795005   -0.7572009   -7.3736341  
N    3.1382281   -1.6025311   -6.3192047  
C    2.4895633   -0.0033453   -8.1446741  
C    3.0236015    0.7684526   -9.1582361  
O    2.1998008    1.5242235   -9.9412938  
C    4.4186557    0.7850046   -9.3956534  
O    4.7949284    1.6029860  -10.4409608  
C    5.2971652    0.0413492   -8.6355720  
H    6.4018447   -1.8677391   -6.5045628  
H    2.2349225   -1.7980027   -5.9270168  
H    2.7681361    1.9779648  -10.5772005  
H    5.7513614    1.5567744  -10.5342592  
H    6.3607226    0.0740847   -8.8411247  
H    4.3450067   -2.8149372   -5.0413410  
C    0.0139742    0.0003878   -4.4216236  
C    1.0636157   -0.0005606   -5.3108473  
C    0.4994415   -0.0004375   -6.6209270  
C   -0.9105908    0.0008990   -6.4668698  
N   -1.1713316   -0.0005800   -5.1190459  
C   -1.7901136    0.0016816   -7.5537126  
C   -1.2361250    0.0014116   -8.8191278  
O   -2.0490846    0.0024962   -9.9155342  
C    0.1683274   -0.0002909   -8.9932770  
O    0.5645640   -0.0007695  -10.3147699  
C    1.0365989   -0.0013371   -7.9215366  
H    2.1075080   -0.0023610   -5.0476387  
H   -2.0858187    0.0104399   -4.7048323  
H   -2.8657261    0.0025566   -7.4429946  
H   -1.4673439    0.0017844  -10.6867942  
H    1.5262035   -0.0019081  -10.3439552  
C    3.2798085    0.0005856   -1.4499646  
C    2.5571146    0.0005565   -2.5996553  
C    1.1637435    0.0001548   -2.2210360  
C    1.1336964   -0.0000200   -0.7459470  
N    2.4483515   -0.0001429   -0.3402716  
C    0.0000000    0.0000000    0.0000000  
C   -1.2757368   -0.0000187   -0.6964415  
O   -2.3524594   -0.0000640   -0.1142314  
C   -1.2676495   -0.0000873   -2.2584081  
O   -2.3355761   -0.0004101   -2.8557295  
C    0.0181563    0.0001759   -2.9516296  
H    2.9547358    0.0006075   -3.5989104  
H    4.3498547    0.0008611   -1.3200019  
H    2.7563628    0.0012823    0.6148064  
C    2.4951002    2.0940188    2.9809380  
C    1.9440701    1.6314916    1.8291961  
C    0.8759964    0.7350050    2.2038498  
C    0.8497377    0.7130254    3.6788474  
N    1.8560616    1.5571714    4.0882609  
C   -0.0205033   -0.0168748    4.4215661  
C   -0.9962600   -0.8356168    3.7214979  
O   -1.8224391   -1.5286685    4.3006425  
C   -0.9864710   -0.8277881    2.1595606  
O   -1.8030528   -1.5133726    1.5592035  
C    0.0000000    0.0000000    1.4700000  
H    2.2509283    1.8888011    0.8310761  
H   -0.0229599   -0.0187323    5.5027230  
H    3.3143982    2.7817323    3.1139444  
H    2.0889452    1.7545833    5.0442112  
