64

C    5.0485000   -2.5928231   -7.4427703  
C    5.9396600   -2.0280687   -8.3255801  
C    5.6232404   -0.6395120   -8.4055082  
C    4.5208865   -0.4134587   -7.5420026  
N    4.1958198   -1.6205907   -6.9747444  
C    3.9409652    0.8470596   -7.3700312  
C    4.4839456    1.8985898   -8.0825160  
O    3.9565003    3.1506741   -7.9517423  
C    5.5835888    1.6929549   -8.9493014  
O    6.0096897    2.8390911   -9.5881692  
C    6.1560283    0.4496447   -9.1196500  
H    6.7209059   -2.5526138   -8.8485541  
H    3.4586420   -1.7695357   -6.3096390  
H    4.4756427    3.7271429   -8.5274504  
H    6.7544399    2.6130671  -10.1537327  
H    6.9974951    0.3227552   -9.7907016  
H    4.9527400   -3.6124940   -7.1110192  
C    2.9067422   -0.7101580   -3.3086135  
C    3.5336653   -0.4560099   -4.5064632  
C    2.7085932    0.4617278   -5.2217350  
C    1.5825235    0.7340736   -4.4033704  
N    1.7334695    0.0049281   -3.2500363  
C    0.5573011    1.6016470   -4.7919883  
C    0.6710588    2.2055203   -6.0291518  
O   -0.3014527    3.0618684   -6.4579906  
C    1.7868414    1.9461793   -6.8601685  
O    1.7544365    2.6234900   -8.0616440  
C    2.7984884    1.0902015   -6.4775469  
H    4.4698821   -0.8807783   -4.8259364  
H   -0.3036232    1.8133010   -4.1729457  
H   -0.0300621    3.3668066   -7.3335620  
H    2.5430095    2.3928198   -8.5621909  
H    3.2029722   -1.3460436   -2.4920009  
C    1.1319246    0.0015678   -0.8009268  
C    0.7969914    0.0034958   -2.1169401  
C   -0.6453340    0.0035696   -2.1842669  
C   -1.1266832    0.0015410   -0.7896025  
N    0.0000000    0.0000000    0.0000000  
C   -2.4346129    0.0013913   -0.4276292  
C   -3.4350111    0.0031335   -1.4820181  
O   -4.6384614    0.0030875   -1.2583914  
C   -2.9478961    0.0050442   -2.9661074  
O   -3.7809382    0.0062135   -3.8623773  
C   -1.5113825    0.0053055   -3.2312122  
H   -2.7664565    0.0000174    0.6013448  
H   -1.1823533    0.0068381   -4.2614848  
H    2.1104316    0.0009435   -0.3488059  
C    0.8576279    0.7185626    2.2703808  
C    0.0000000    0.0000000    1.4700000  
C   -0.8668858   -0.7285659    2.3373528  
C   -0.4876752   -0.4117774    3.6669281  
N    0.5635254    0.4678311    3.5902241  
C   -1.1297612   -0.9515493    4.7854808  
C   -2.1738724   -1.8268314    4.5576857  
O   -2.8357962   -2.3827064    5.6140350  
C   -2.5667212   -2.1555554    3.2384331  
O   -3.6226318   -3.0413663    3.1773122  
C   -1.9335634   -1.6236449    2.1344818  
H    1.0363952    0.8769718    4.3757045  
H   -0.8454472   -0.7142436    5.8013813  
H   -3.5178062   -2.9546422    5.2385129  
H   -3.8247440   -3.2102924    2.2519915  
H   -2.2566033   -1.8942483    1.1360343  
H    1.6567807    1.3889844    2.0042067  
