62

C    7.3114481   -2.9366623   -4.2807876  
C    7.7254679   -3.6351837   -3.1703272  
C    8.8759910   -4.3852953   -3.5553338  
C    9.1189867   -4.1016979   -4.9237094  
N    8.1496033   -3.2202774   -5.3335980  
C   10.1790747   -4.6693018   -5.6370320  
C   11.0091563   -5.5388027   -4.9565119  
O   12.0597477   -6.1209565   -5.6048719  
C   10.7828050   -5.8345911   -3.5911952  
O   11.6961702   -6.7187762   -3.0551694  
C    9.7370389   -5.2752130   -2.8869264  
H    7.2553406   -3.6083376   -2.2022091  
H    8.0717666   -2.8307738   -6.2556650  
H   10.3695776   -4.4573565   -6.6800996  
H   12.5029429   -6.6834625   -4.9564667  
H   11.4720346   -6.8646093   -2.1309941  
H    9.5886246   -5.5208865   -1.8418928  
C    6.1812375   -2.0122607   -4.4510957  
C    5.2702188   -1.6303464   -3.5260198  
C    4.3856204   -0.7126512   -4.2273193  
C    4.9238573   -0.6545505   -5.6033678  
N    5.9763887   -1.4143802   -5.7405728  
C    4.3191911    0.1574940   -6.6231955  
C    3.2262696    0.8784133   -6.2838834  
O    2.5612872    1.6787216   -7.1343811  
C    2.6590324    0.8406139   -4.9036757  
O    1.6623426    1.5226358   -4.6656076  
C    3.2973506   -0.0000934   -3.8752374  
H    5.2063280   -1.9339561   -2.4950908  
H    4.7337770    0.1810798   -7.6204273  
H    1.8346683    2.0540003   -6.6049059  
C    3.3321174    0.0004714   -1.3379332  
C    2.6974186    0.0000115   -2.5332308  
C    1.2800441   -0.0002119   -2.2052838  
C    1.2395035    0.0000643   -0.7271293  
N    2.4394063    0.0005458   -0.2131034  
C    0.0000000    0.0000000    0.0000000  
C   -1.1468701    0.0000634   -0.7169542  
O   -2.3742201    0.0000072   -0.1695492  
C   -1.1388767    0.0001606   -2.2096354  
O   -2.2206229    0.0000903   -2.7970413  
C    0.1454526    0.0001815   -2.9324239  
H   -2.9844344    0.0001023   -0.9290168  
H    0.1083580    0.0003680   -4.0135594  
H    4.3940040    0.0007617   -1.1498630  
C    0.0000000    0.0000000    1.4700000  
C    1.0521667    0.0011902    2.3562342  
C    0.4917218    0.0011957    3.6679131  
C   -0.9187428   -0.0003148    3.5178682  
N   -1.1833171    0.0009411    2.1707914  
C   -1.7951701   -0.0010350    4.6072090  
C   -1.2375837   -0.0005224    5.8710424  
O   -2.0474215   -0.0015360    6.9697579  
C    0.1673580    0.0013566    6.0411963  
O    0.5673524    0.0020687    7.3615553  
C    1.0325770    0.0023412    4.9669890  
H    2.0953057    0.0030649    2.0900562  
H   -2.0989778   -0.0102372    1.7591824  
H   -2.8710934   -0.0020419    4.4995513  
H   -1.4634884   -0.0006497    7.7393593  
H    1.5290710    0.0033153    7.3880045  
H    2.1042148    0.0039609    5.1284455  
