62

C    4.8668237   -0.0077442   -7.4059541  
C    3.6161616   -0.0049043   -7.9789320  
C    3.8058687   -0.0049859   -9.3926549  
C    5.2051586   -0.0082472   -9.6248232  
N    5.8199496   -0.0079051   -8.3973667  
C    5.7587559   -0.0095304  -10.9086913  
C    4.8838379   -0.0077911  -11.9776608  
O    5.3707604   -0.0092841  -13.2527749  
C    3.4844989   -0.0041590  -11.7663449  
O    2.7463479   -0.0023832  -12.9318812  
C    2.9376607   -0.0026179  -10.5000546  
H    2.6820308   -0.0019021   -7.4437838  
H    6.8122718   -0.0203594   -8.2453055  
H    6.8243387   -0.0118699  -11.0923453  
H    4.6024722   -0.0073590  -13.8384325  
H    1.8125118    0.0000235  -12.7004773  
H    1.8618375    0.0003531  -10.3693891  
C    2.4861703   -0.0045381   -3.7159920  
C    3.4897069   -0.0059404   -2.8011220  
C    4.7313105   -0.0078379   -3.5381791  
C    4.3662423   -0.0073940   -4.9676949  
N    2.9909945   -0.0057669   -5.0074606  
C    5.2594871   -0.0083966   -5.9893680  
C    6.6748999   -0.0102477   -5.6590057  
O    7.5569791   -0.0113205   -6.5076729  
C    7.0843360   -0.0110000   -4.1516348  
O    8.2730121   -0.0128630   -3.8612809  
C    6.0304251   -0.0095090   -3.1401398  
H    3.3734534   -0.0058581   -1.7319639  
H    6.3222878   -0.0098368   -2.0987274  
H    2.4390587   -0.0035500   -5.8455586  
C    0.0000000    0.0000000    0.0000000  
C    1.0521669   -0.0011901   -0.8862341  
C    0.4917220   -0.0011956   -2.1979132  
C   -0.9187428    0.0003148   -2.0478684  
N   -1.1833170   -0.0009411   -0.7007915  
C   -1.7951699    0.0010351   -3.1372091  
C   -1.2375836    0.0005225   -4.4010425  
O   -2.0474210    0.0015361   -5.4997584  
C    0.1673583   -0.0013566   -4.5711960  
O    0.5673528   -0.0020686   -5.8915549  
C    1.0325772   -0.0023411   -3.4969890  
H    2.0953059   -0.0030648   -0.6200562  
H   -2.0989777    0.0102372   -0.2891825  
H   -2.8710931    0.0020419   -3.0295515  
H   -1.4634882    0.0006497   -6.2693594  
H    1.5290713   -0.0033151   -5.9180046  
C    1.0965515   -0.0001358    2.2710304  
C    0.0000000    0.0000000    1.4700000  
C   -1.1546562   -0.0001469    2.3369512  
C   -0.6372014   -0.0003519    3.7186280  
N    0.7342871   -0.0007337    3.6095011  
C   -1.4147739   -0.0001353    4.8308716  
C   -2.8576048    0.0001048    4.6554461  
O   -3.6427778    0.0002493    5.5944904  
C   -3.4275839    0.0000726    3.2011665  
O   -4.6406829   -0.0000333    3.0410059  
C   -2.4891866    0.0001091    2.0816745  
H   -1.0150448   -0.0001615    5.8354244  
H   -2.8919121    0.0002919    1.0779135  
H    2.1388271   -0.0000662    1.9961646  
H    1.3735872    0.0006099    4.3830260  
