62

C    2.5739599   -2.1205413   -6.0299301  
C    2.0624115   -1.6592053   -4.8391513  
C    0.9926084   -0.7724382   -5.1612768  
C    0.8970784   -0.7320764   -6.5759042  
N    1.8729612   -1.5603567   -7.0721127  
C   -0.0523143    0.0436663   -7.2479647  
C   -0.9212935    0.7920667   -6.4779327  
O   -1.8681346    1.5670783   -7.0827992  
C   -0.8414765    0.7652849   -5.0652301  
O   -1.7760616    1.5649891   -4.4404368  
C    0.0950450    0.0004357   -4.4015596  
H    2.4174427   -1.9278227   -3.8589517  
H    2.0409129   -1.7413737   -8.0452541  
H   -0.1302101    0.0788810   -8.3258765  
H   -2.3609694    1.9995572   -6.3733337  
H   -1.6536852    1.4894934   -3.4891598  
H    3.3843232   -2.8037502   -6.2183331  
C    3.3321174    0.0004722   -1.3379336  
C    2.6974183    0.0000122   -2.5332313  
C    1.2800441   -0.0002113   -2.2052840  
C    1.2395036    0.0000646   -0.7271298  
N    2.4394063    0.0005463   -0.2131037  
C    0.0000000    0.0000000    0.0000000  
C   -1.1468699    0.0000637   -0.7169543  
O   -2.3742201    0.0000076   -0.1695489  
C   -1.1388769    0.0001611   -2.2096357  
O   -2.2206234    0.0000908   -2.7970412  
C    0.1454523    0.0001820   -2.9324241  
H    3.1367987   -0.0000643   -3.5160945  
H   -2.9844345    0.0001025   -0.9290168  
C    4.7795905    0.0008679   -1.0815729  
C    5.8063537    0.0010481   -1.9702982  
C    7.0285673    0.0013962   -1.2015141  
C    6.6268096    0.0013748    0.2181271  
N    5.2509931    0.0014470    0.2224665  
C    7.4934509    0.0012529    1.2624629  
C    8.9169020    0.0013612    0.9686570  
O    9.7768359    0.0013265    1.8397567  
C    9.3650181    0.0016375   -0.5276708  
O   10.5607791    0.0020371   -0.7873197  
C    8.3375018    0.0014695   -1.5659686  
H    5.7176698    0.0011309   -3.0420952  
H    7.1779204    0.0011093    2.2965567  
H    8.6560846    0.0014573   -2.5995204  
H    4.6776569   -0.0001045    1.0460747  
C    0.8676693    0.7151171    2.2619005  
C    0.5875920    0.4624972    3.5848544  
C   -0.5048400   -0.4542819    3.6114698  
C   -0.8517165   -0.7276451    2.2635546  
N    0.0000000    0.0000000    1.4700000  
C   -1.8902865   -1.5946756    1.9108239  
C   -2.5912627   -2.1969500    2.9375057  
O   -3.6148162   -3.0527051    2.6493466  
C   -2.2603868   -1.9365747    4.2886322  
O   -3.0513550   -2.6123276    5.1947621  
C   -1.2361111   -1.0811317    4.6373480  
H    1.1060808    0.8876438    4.4271209  
H   -2.1597133   -1.8070987    0.8854031  
H   -3.9636755   -3.3565188    3.4974381  
H   -2.7621927   -2.3810384    6.0827341  
H   -1.0058879   -0.9010589    5.6809233  
H    1.6167816    1.3499334    1.8205408  
