64

C    6.8685914   -2.1283228    1.9165375  
C    7.8254453   -1.6306865    2.7705026  
C    8.6525348   -0.7563390    2.0049712  
C    8.1475501   -0.7601741    0.6794897  
N    7.0656047   -1.6049436    0.6601104  
C    8.7198847   -0.0069937   -0.3500450  
C    9.8218926    0.7643403   -0.0357189  
O   10.4195643    1.5194453   -1.0029927  
C   10.3406307    0.7810996    1.2808856  
O   11.4413460    1.5985592    1.4342727  
C    9.7766808    0.0381102    2.2969827  
H    7.9168132   -1.8694487    3.8162740  
H    6.4962406   -1.8004090   -0.1433816  
H   11.1588328    1.9729537   -0.5774612  
H   11.7289646    1.5525307    2.3512030  
H   10.1961944    0.0709892    3.2956845  
H    6.0620383   -2.8162971    2.1039442  
C    4.5679461   -0.0016854   -2.0086701  
C    5.6536972   -0.0028960   -1.1639156  
C    6.8200674   -0.0036843   -1.9850010  
C    6.3798482   -0.0026079   -3.3333824  
N    5.0072029   -0.0033585   -3.3118965  
C    7.2630029   -0.0026836   -4.4172763  
C    8.6151888   -0.0035606   -4.1348421  
O    9.5213681   -0.0033235   -5.1555539  
C    9.0739284   -0.0050162   -2.7960464  
O   10.4486143   -0.0061739   -2.6795157  
C    8.2032438   -0.0052157   -1.7262640  
H    5.6103771   -0.0042819   -0.0882231  
H    4.4140952    0.0076777   -4.1218860  
H    6.9338474   -0.0020111   -5.4472560  
H   10.3956198   -0.0043445   -4.7445210  
H   10.6745774   -0.0070905   -1.7443453  
C    3.1301149   -0.0010311   -1.7028252  
C    2.5367768   -0.0002767   -0.4864665  
C    1.1089904    0.0001028   -0.7656183  
C    1.0177872   -0.0004148   -2.2415132  
N    2.1993578   -0.0011611   -2.7963820  
C   -0.2459209   -0.0002877   -2.9257118  
C   -1.3675319   -0.0000605   -2.1698524  
O   -2.6129313    0.0000867   -2.6748490  
C   -1.3083584    0.0000910   -0.6783232  
O   -2.3693261    0.0004206   -0.0541692  
C    0.0000000    0.0000000    0.0000000  
H    3.0096017   -0.0001007    0.4807525  
H   -0.2829630   -0.0004687   -4.0053125  
H   -3.1967441    0.0002094   -1.8949034  
C    0.8576279    0.7185626    2.2703808  
C    0.0000000    0.0000000    1.4700000  
C   -0.8668858   -0.7285659    2.3373528  
C   -0.4876752   -0.4117774    3.6669281  
N    0.5635254    0.4678311    3.5902241  
C   -1.1297612   -0.9515493    4.7854808  
C   -2.1738724   -1.8268314    4.5576857  
O   -2.8357962   -2.3827064    5.6140350  
C   -2.5667212   -2.1555554    3.2384331  
O   -3.6226318   -3.0413663    3.1773122  
C   -1.9335634   -1.6236449    2.1344818  
H    1.0363952    0.8769718    4.3757045  
H   -0.8454472   -0.7142436    5.8013813  
H   -3.5178062   -2.9546422    5.2385129  
H   -3.8247440   -3.2102924    2.2519915  
H   -2.2566033   -1.8942483    1.1360343  
H    1.6567807    1.3889844    2.0042067  
