60

C    2.1768181   -4.6232826   -7.2549035  
C    1.5764392   -3.5165528   -6.7006803  
C    1.6948571   -2.4590833   -7.6505937  
C    2.3822492   -2.9843693   -8.7746456  
N    2.6618483   -4.3001685   -8.5005735  
C    2.6756892   -2.2189184   -9.9072379  
C    2.2675118   -0.8992348   -9.9051934  
O    2.5279222   -0.1069680  -10.9857087  
C    1.5807948   -0.3567969   -8.7929888  
O    1.2414445    0.9719591   -8.9432951  
C    1.2912101   -1.1112749   -7.6752101  
H    1.1114209   -3.4760564   -5.7305716  
H    3.1347747   -4.9340073   -9.1190937  
H    3.1993991   -2.6132984  -10.7671185  
H    2.1634751    0.7637423  -10.7800210  
H    0.7815261    1.2601468   -8.1489228  
H    2.2986933   -5.6171879   -6.8596101  
C    0.8351699   -0.7268773   -5.2248492  
C    0.5760703   -0.5103258   -6.5401621  
C   -0.5290502    0.4167166   -6.6044789  
C   -0.8951518    0.7247315   -5.2088114  
N   -0.0307352   -0.0004646   -4.4215603  
C   -1.8962330    1.5652872   -4.8441106  
C   -2.6645254    2.2094346   -5.8964107  
O   -3.5858907    2.9828997   -5.6702737  
C   -2.2943369    1.8976107   -7.3815142  
O   -2.9343350    2.4337812   -8.2760444  
C   -1.1943993    0.9745125   -7.6496159  
H   -2.1484166    1.7776622   -3.8144453  
H   -0.9442735    0.7640677   -8.6805742  
H    1.5856964   -1.3561853   -4.7747704  
C    3.2573670   -0.0002920   -1.5109380  
C    2.5379468   -0.0001709   -0.3591961  
C    1.1435043    0.0000332   -0.7338500  
C    1.1092609   -0.0000082   -2.2088477  
N    2.4227562    0.0001909   -2.6182613  
C   -0.0265532   -0.0002522   -2.9515663  
C   -1.3003035   -0.0002639   -2.2514981  
O   -2.3786784   -0.0004131   -2.8306429  
C   -1.2877725    0.0000312   -0.6895608  
O   -2.3539958    0.0003307   -0.0892036  
C    0.0000000    0.0000000    0.0000000  
H    2.9384091   -0.0000369    0.6389239  
H    4.3270394   -0.0004765   -1.6439446  
H    2.7280494   -0.0013406   -3.5742113  
C    0.8175213    0.6860729    2.3021913  
C    0.0000000    0.0000000    1.4700000  
C   -0.8887526   -0.7456559    2.3478473  
C   -0.4549825   -0.3816753    3.7138435  
N    0.5448156    0.4573574    3.6934124  
C   -1.0945674   -0.9182058    4.8835240  
C   -2.1210866   -1.7789155    4.6970523  
O   -2.8083856   -2.3554314    5.6976972  
C   -2.5824069   -2.1655116    3.3310774  
O   -3.5227682   -2.9541547    3.2362962  
C   -1.9100805   -1.6015804    2.1470656  
H   -0.7567140   -0.6349833    5.8697035  
H   -3.4728268   -2.9124471    5.2533954  
H   -2.2742832   -1.9066565    1.1752040  
H    1.6189533    1.3585343    2.0405121  
