60

C    6.7636938   -0.0009527    0.9023169  
C    5.4671763   -0.0013101    0.4424133  
C    5.5308674   -0.0015360   -0.9825579  
C    6.9040849   -0.0015865   -1.3378040  
N    7.6252196    0.0007239   -0.1696528  
C    7.3417435   -0.0020994   -2.6656760  
C    6.3755446   -0.0028771   -3.6529133  
O    6.7475665   -0.0037537   -4.9661586  
C    5.0004299   -0.0024646   -3.3184348  
O    4.1619027   -0.0029228   -4.4139783  
C    4.5679461   -0.0016852   -2.0086700  
H    4.5841351   -0.0002918    1.0582295  
H    8.6271383   -0.0093205   -0.1061169  
H    8.3868646   -0.0019967   -2.9430282  
H    5.9304031   -0.0038905   -5.4814346  
H    3.2522420   -0.0026268   -4.1007370  
H    7.1420553   -0.0003154    1.9101865  
C    3.1301152   -0.0010311   -1.7028251  
C    2.5367770   -0.0002766   -0.4864665  
C    1.1089905    0.0001028   -0.7656183  
C    1.0177873   -0.0004148   -2.2415130  
N    2.1993580   -0.0011610   -2.7963820  
C   -0.2459208   -0.0002877   -2.9257119  
C   -1.3675318   -0.0000605   -2.1698523  
O   -2.6129310    0.0000866   -2.6748492  
C   -1.3083584    0.0000911   -0.6783232  
O   -2.3693259    0.0004206   -0.0541692  
C    0.0000000    0.0000000    0.0000000  
H    3.0096019   -0.0001007    0.4807529  
H   -3.1967440    0.0002093   -1.8949035  
C    2.1451943   -2.0951768   -5.9900942  
C    1.6340483   -1.6323749   -4.8202142  
C    0.5538838   -0.7357922   -5.1581773  
C    0.4770650   -0.7140557   -6.6314107  
N    1.4686372   -1.5584200   -7.0749457  
C   -0.4180283    0.0158496   -7.3439773  
C   -1.3690882    0.8348540   -6.6110029  
O   -2.2145416    1.5279316   -7.1615961  
C   -1.3057461    0.8272855   -5.0503185  
O   -2.1011630    1.5130919   -4.4224316  
C   -0.2963281   -0.0005339   -4.3948471  
H    1.9749157   -1.8895629   -3.8331593  
H   -0.4575568    0.0175264   -8.4244148  
H    2.9593513   -2.7830346   -6.1509982  
H    1.6685753   -1.7560267   -8.0382854  
C    0.8400945    0.7047457    2.2710304  
C    0.0000000    0.0000000    1.4700000  
C   -0.8844236   -0.7423113    2.3369512  
C   -0.4878984   -0.4098547    3.7186280  
N    0.5629682    0.4714286    3.6095011  
C   -1.0836927   -0.9095027    4.8308716  
C   -2.1891196   -1.8367527    4.6554461  
O   -2.7906899   -2.3413415    5.5944904  
C   -2.6257283   -2.2031529    3.2011665  
O   -3.5549479   -2.9829990    3.0410059  
C   -1.9068976   -1.5999348    2.0816745  
H   -0.7774656   -0.6525820    5.8354244  
H   -2.2155208   -1.8586617    1.0779135  
H    1.6384792    1.3747609    1.9961646  
H    1.0518368    0.8833920    4.3830260  
