60

C    0.4365020   -3.2303834  -10.3878378  
C    0.3539552   -2.5240479   -9.2102369  
C    0.1018264   -1.1637272   -9.5574539  
C    0.0398972   -1.1001179  -10.9730973  
N    0.2492014   -2.3718805  -11.4457797  
C   -0.1950923    0.0906653  -11.6670739  
C   -0.3710667    1.2380857  -10.9183168  
O   -0.6038723    2.4280328  -11.5450872  
C   -0.3124542    1.1949384   -9.5049808  
O   -0.5071774    2.4208764   -8.9028989  
C   -0.0804007    0.0206014   -8.8196987  
H    0.4632410   -2.9381069   -8.2225110  
H    0.2512287   -2.6382276  -12.4137859  
H   -0.2433209    0.1458311  -12.7458838  
H   -0.6956673    3.0904685  -10.8479376  
H   -0.4521188    2.3036958   -7.9495669  
H    0.6155877   -4.2783895  -10.5568681  
C    2.5365543   -2.0936800   -5.9975191  
C    2.0254115   -1.6312727   -4.8274817  
C    0.9452521   -0.7345686   -5.1651398  
C    0.8684333   -0.7123309   -6.6383662  
N    1.8600005   -1.5565503   -7.0821879  
C   -0.0266556    0.0178220   -7.3506841  
C   -0.9777108    0.8365827   -6.6174311  
O   -1.8231599    1.5298524   -7.1677885  
C   -0.9143686    0.8284832   -5.0567494  
O   -1.7097813    1.5140809   -4.4286293  
C    0.0950446    0.0004351   -4.4015596  
H    2.3662772   -1.8887984   -3.8405142  
H    3.3507072   -2.7814877   -6.1586571  
H    2.0599377   -1.7538306   -8.0455943  
C    3.3321173    0.0004713   -1.3379338  
C    2.6974181    0.0000116   -2.5332314  
C    1.2800438   -0.0002119   -2.2052841  
C    1.2395034    0.0000643   -0.7271299  
N    2.4394062    0.0005460   -0.2131038  
C    0.0000000    0.0000000    0.0000000  
C   -1.1468702    0.0000634   -0.7169543  
O   -2.3742203    0.0000074   -0.1695487  
C   -1.1388770    0.0001607   -2.2096355  
O   -2.2206234    0.0000905   -2.7970411  
C    0.1454522    0.0001815   -2.9324241  
H    3.1367984   -0.0000653   -3.5160950  
H   -2.9844346    0.0001026   -0.9290167  
H    4.3940038    0.0007618   -1.1498640  
C    0.8175213    0.6860729    2.3021913  
C    0.0000000    0.0000000    1.4700000  
C   -0.8887526   -0.7456559    2.3478473  
C   -0.4549825   -0.3816753    3.7138435  
N    0.5448156    0.4573574    3.6934124  
C   -1.0945674   -0.9182058    4.8835240  
C   -2.1210866   -1.7789155    4.6970523  
O   -2.8083856   -2.3554314    5.6976972  
C   -2.5824069   -2.1655116    3.3310774  
O   -3.5227682   -2.9541547    3.2362962  
C   -1.9100805   -1.6015804    2.1470656  
H   -0.7567140   -0.6349833    5.8697035  
H   -3.4728268   -2.9124471    5.2533954  
H   -2.2742832   -1.9066565    1.1752040  
H    1.6189533    1.3585343    2.0405121  
