60

C    9.9822539    0.0001879   -7.1413413  
C    9.2626636   -0.0001410   -5.9688832  
C    7.8821270   -0.0005186   -6.3276569  
C    7.8203641   -0.0006868   -7.7447358  
N    9.1129892    0.0017025   -8.2070459  
C    6.6126087   -0.0013634   -8.4490911  
C    5.4459501   -0.0021868   -7.7094379  
O    4.2388456   -0.0032217   -8.3465500  
C    5.4870059   -0.0016587   -6.2948246  
O    4.2409746   -0.0021814   -5.7025837  
C    6.6781265   -0.0007178   -5.5992983  
H    9.6812794    0.0009932   -4.9770408  
H    9.3835926   -0.0083942   -9.1738201  
H    6.5587713   -0.0013509   -9.5290457  
H    3.5648284   -0.0033640   -7.6544757  
H    4.3580990   -0.0017994   -4.7476572  
H   11.0467879    0.0009076   -7.3017280  
C    6.6781264    0.0000526   -4.1292983  
C    7.7444181    0.0009683   -3.2958718  
C    7.1743131    0.0014026   -1.9574099  
C    5.7117407    0.0007371   -2.1752742  
N    5.4148494   -0.0001362   -3.4464326  
C    4.7795901    0.0008674   -1.0815733  
C    5.2855489    0.0012391    0.1727555  
O    4.5324883    0.0014069    1.2858327  
C    6.7567496    0.0015421    0.4252013  
O    7.1465024    0.0019988    1.5928113  
C    7.6924429    0.0014446   -0.7133951  
H    8.7888465    0.0012169   -3.5571121  
H    5.1738991    0.0016450    2.0191435  
H    8.7505410    0.0015569   -0.4883243  
C    3.3321168    0.0004716   -1.3379341  
C    2.6974177    0.0000118   -2.5332316  
C    1.2800432   -0.0002116   -2.2052842  
C    1.2395033    0.0000644   -0.7271298  
N    2.4394059    0.0005460   -0.2131041  
C    0.0000000    0.0000000    0.0000000  
C   -1.1468704    0.0000635   -0.7169542  
O   -2.3742206    0.0000074   -0.1695488  
C   -1.1388774    0.0001608   -2.2096352  
O   -2.2206238    0.0000906   -2.7970409  
C    0.1454514    0.0001818   -2.9324241  
H    3.1367978   -0.0000649   -3.5160956  
H   -2.9844350    0.0001027   -0.9290164  
H    0.1083567    0.0003684   -4.0135594  
C    0.8681109    0.7263879    2.2709268  
C    0.6127770    0.5096195    3.5869401  
C   -0.4920590   -0.4175482    3.6542670  
C   -0.8620974   -0.7254003    2.2596025  
N    0.0000000    0.0000000    1.4700000  
C   -1.8641242   -1.5660088    1.8976294  
C   -2.6293522   -2.2103885    2.9520183  
O   -3.5512764   -2.9839180    2.7283916  
C   -2.2549728   -1.8987399    4.4361073  
O   -2.8923672   -2.4351063    5.3323774  
C   -1.1543735   -0.9755647    4.7012123  
H    1.1382914    0.9492124    4.4159191  
H   -2.1192137   -1.7782617    0.8686553  
H   -0.9013378   -0.7652422    5.7314848  
H    1.6172880    1.3558399    1.8188057  
