64

C    3.0881904   -5.4169651   -8.0558051  
C    2.4371012   -4.4621828   -7.3095194  
C    2.5538770   -3.2293526   -8.0173989  
C    3.2925808   -3.4959808   -9.1985648  
N    3.6029468   -4.8332208   -9.1896570  
C    3.5989122   -2.5071904  -10.1383748  
C    3.1511130   -1.2259610   -9.8812688  
O    3.4219634   -0.2224195  -10.7658917  
C    2.4129448   -0.9400982   -8.7081500  
O    2.0385202    0.3829598   -8.5956016  
C    2.1106077   -1.9150145   -7.7804345  
H    1.9401731   -4.6330095   -6.3699060  
H    4.1144548   -5.3150696   -9.9067065  
H    4.1616510   -2.7039127  -11.0404982  
H    3.0249088    0.5786572  -10.3999852  
H    1.5448284    0.4907503   -7.7769109  
H    3.2273511   -6.4678863   -7.8683015  
C    1.5647265   -2.0539606   -5.3222415  
C    1.3415396   -1.5772678   -6.5740504  
C    0.2114929   -0.6825501   -6.4885493  
C   -0.2083727   -0.6770014   -5.0741691  
N    0.6518900   -1.5286394   -4.4202953  
C   -1.2456329    0.0471727   -4.5828766  
C   -1.9989042    0.8763051   -5.5089746  
O   -2.9500475    1.5652089   -5.1639546  
C   -1.5719694    0.8855377   -7.0114550  
O   -2.1988660    1.5795073   -7.8005473  
C   -0.4365508    0.0630003   -7.4214648  
H   -0.1472075    0.0751442   -8.4635094  
H    2.3191289   -2.7449942   -4.9827737  
H    0.6225287   -1.7350432   -3.4386730  
C    1.1243410    0.0099923   -0.7919003  
C    0.7474076    0.0234544   -2.1148543  
C   -0.6787381    0.0234490   -2.1414700  
C   -1.1201745    0.0098592   -0.7935546  
N    0.0000000    0.0000000    0.0000000  
C   -2.4730816    0.0063709   -0.4408240  
C   -3.3971958    0.0170982   -1.4675058  
O   -4.7313517    0.0146259   -1.1793471  
C   -2.9763648    0.0303504   -2.8186324  
O   -4.0166480    0.0395118   -3.7247624  
C   -1.6418562    0.0335260   -3.1673481  
H    1.4178717    0.0310972   -2.9571209  
H   -2.8160166   -0.0041111    0.5845966  
H   -5.1938818    0.0230867   -2.0274384  
H   -3.6464675    0.0482293   -4.6127343  
H    2.1062467    0.0052819   -0.3505407  
C    2.5285572    2.1210227    2.9438989  
C    1.9331703    1.6216660    4.0790748  
C    0.8903039    0.7472258    3.6520102  
C    0.8972198    0.7527806    2.2336141  
N    1.9028376    1.5986179    1.8362361  
C    0.0000000    0.0000000    1.4700000  
C   -0.9207814   -0.7726952    2.1506477  
O   -1.8198395   -1.5274828    1.4542253  
C   -0.9436862   -0.7911793    3.5655508  
O   -1.9197945   -1.6098497    4.0950179  
C   -0.0590329   -0.0485852    4.3195194  
H    2.2150357    1.8593692    5.0905303  
H    2.1533708    1.7953814    0.8841339  
H   -2.3621246   -1.9821033    2.1118817  
H   -1.8668290   -1.5649508    5.0545920  
H   -0.1007624   -0.0827977    5.4019087  
H    3.3491200    2.8096064    2.8367138  
