62

C   -0.2799493    0.2786570   -8.8743054  
C    0.7207869   -0.3724399   -9.5577293  
C    0.6225456    0.0296484  -10.9227467  
C   -0.4657753    0.9348509  -11.0127000  
N   -0.9926745    1.0622385   -9.7514440  
C   -0.8536358    1.5341250  -12.2148747  
C   -0.1294632    1.2140008  -13.3468080  
O   -0.4651581    1.7708895  -14.5468900  
C    0.9594139    0.3127036  -13.2773344  
O    1.5796414    0.0957281  -14.4904231  
C    1.3424382   -0.2790780  -12.0917493  
H    1.4331905   -1.0542712   -9.1257796  
H   -1.7695480    1.6478575   -9.5034529  
H   -1.6822548    2.2247285  -12.2901087  
H    0.1578606    1.4180540  -15.1954418  
H    2.3030657   -0.5240171  -14.3556010  
H    2.1806050   -0.9657068  -12.0694872  
C    1.5214678   -1.9563160   -5.5959997  
C    0.7564344   -1.5844072   -4.5433904  
C   -0.2212181   -0.6607927   -5.0980363  
C    0.1090022   -0.5886728   -6.5375979  
N    1.1296213   -1.3460484   -6.8354373  
C   -0.6386068    0.2327004   -7.4494713  
C   -1.6694960    0.9491474   -6.9461765  
O   -2.4518898    1.7570651   -7.6818183  
C   -2.0277820    0.8972573   -5.4980397  
O   -2.9783777    1.5758982   -5.1094078  
C   -1.2456329    0.0471727   -4.5828766  
H    0.8445932   -1.8981612   -3.5172999  
H   -3.0926582    2.1264002   -7.0476567  
H    2.3596734   -2.6348142   -5.6009237  
C    1.1243410    0.0099923   -0.7919003  
C    0.7474076    0.0234544   -2.1148543  
C   -0.6787381    0.0234490   -2.1414700  
C   -1.1201745    0.0098592   -0.7935546  
N    0.0000000    0.0000000    0.0000000  
C   -2.4730816    0.0063709   -0.4408240  
C   -3.3971958    0.0170982   -1.4675058  
O   -4.7313517    0.0146259   -1.1793471  
C   -2.9763648    0.0303504   -2.8186324  
O   -4.0166480    0.0395118   -3.7247624  
C   -1.6418562    0.0335260   -3.1673481  
H    1.4178717    0.0310972   -2.9571209  
H   -2.8160166   -0.0041111    0.5845966  
H   -5.1938818    0.0230867   -2.0274384  
H   -3.6464675    0.0482293   -4.6127343  
H    2.1062467    0.0052819   -0.3505407  
C    0.8175213    0.6860729    2.3021913  
C    0.0000000    0.0000000    1.4700000  
C   -0.8887526   -0.7456559    2.3478473  
C   -0.4549825   -0.3816753    3.7138435  
N    0.5448156    0.4573574    3.6934124  
C   -1.0945674   -0.9182058    4.8835240  
C   -2.1210866   -1.7789155    4.6970523  
O   -2.8083856   -2.3554314    5.6976972  
C   -2.5824069   -2.1655116    3.3310774  
O   -3.5227682   -2.9541547    3.2362962  
C   -1.9100805   -1.6015804    2.1470656  
H   -0.7567140   -0.6349833    5.8697035  
H   -3.4728268   -2.9124471    5.2533954  
H   -2.2742832   -1.9066565    1.1752040  
H    1.6189533    1.3585343    2.0405121  
