62

C    2.9574919   -0.0031016   -7.1333220  
C    3.5299055   -0.0054329   -5.8824007  
C    4.9437123   -0.0069977   -6.0714711  
C    5.1765117   -0.0052186   -7.4706590  
N    3.9493324   -0.0048217   -8.0860017  
C    6.4606299   -0.0057682   -8.0236797  
C    7.5292026   -0.0078503   -7.1482789  
O    8.8045368   -0.0081221   -7.6346292  
C    7.3172558   -0.0100221   -5.7490330  
O    8.4824577   -0.0123628   -5.0103560  
C    6.0507193   -0.0097546   -5.2027639  
H    2.9943354   -0.0070481   -4.9485082  
H    3.7977297    0.0069127   -9.0784027  
H    6.6447639   -0.0045647   -9.0891812  
H    9.3898485   -0.0099791   -6.8660769  
H    8.2506323   -0.0137004   -4.0766228  
H    5.9195682   -0.0116360   -4.1269973  
C   -0.8287671    0.0000935   -4.7555305  
C    0.4934748   -0.0006597   -5.1351930  
C    0.5171462   -0.0005563   -6.5613907  
C   -0.8317450    0.0005673   -7.0000451  
N   -1.6230471   -0.0010138   -5.8782354  
C   -1.1872834    0.0012736   -8.3522208  
C   -0.1624541    0.0011448   -9.2784519  
O   -0.4533751    0.0021632  -10.6120096  
C    1.1896019   -0.0003450   -8.8604089  
O    2.0936297   -0.0007027   -9.9025596  
C    1.5410843   -0.0013157   -7.5266237  
H    1.3371561   -0.0023206   -4.4664686  
H   -2.6269690    0.0098531   -5.8761615  
H   -2.2134625    0.0019868   -8.6930394  
H    0.3938023    0.0015725  -11.0762892  
H    2.9824062   -0.0017000   -9.5342132  
C    1.0672566   -0.0000698   -0.8321912  
C    0.0000000    0.0000000    0.0000000  
C   -1.1601226   -0.0000736   -0.8778472  
C   -0.5938732   -0.0000770   -2.2438435  
N    0.7113365   -0.0001555   -2.2234123  
C   -1.4286989   -0.0001880   -3.4135239  
C   -2.7683117   -0.0006800   -3.2270522  
O   -3.6653907   -0.0008306   -4.2276967  
C   -3.3702026   -0.0010611   -1.8610771  
O   -4.5974909   -0.0013781   -1.7662957  
C   -2.4926826   -0.0008944   -0.6770655  
H   -4.5324249   -0.0012263   -3.7833950  
H   -2.9677773   -0.0012975    0.2947963  
H    2.1134390   -0.0000546   -0.5705121  
C    2.3971438    2.0127888    3.1728260  
C    1.9431056    1.6308205    1.9564670  
C    0.8496017    0.7127664    2.2356185  
C    0.7794028    0.6545384    3.7115134  
N    1.6840587    1.4146091    4.2663826  
C   -0.1885723   -0.1578550    4.3957118  
C   -1.0476298   -0.8789867    3.6398520  
O   -2.0015663   -1.6796266    4.1448486  
C   -1.0022026   -0.8410666    2.1483229  
O   -1.8147390   -1.5232959    1.5241687  
C    0.0000000    0.0000000    1.4700000  
H    2.3054237    1.9346118    0.9892483  
H   -0.2170646   -0.1815267    5.4753125  
H   -2.4487139   -2.0549881    3.3649027  
H    3.2048689    2.6911772    3.3971983  
