62

C    4.6933491   -3.0387594   -0.3951994  
C    3.8830987   -3.6872685    0.5077940  
C    4.7325864   -4.4806236    1.3345697  
C    6.0619648   -4.2737317    0.8852634  
N    6.0021295   -3.3944215   -0.1672809  
C    7.1650856   -4.9000065    1.4732216  
C    6.9218035   -5.7503972    2.5342715  
O    7.9627346   -6.3876209    3.1453526  
C    5.6024439   -5.9699727    2.9967582  
O    5.5248321   -6.8442999    4.0611228  
C    4.5136863   -5.3526846    2.4170277  
H    2.8114829   -3.6001826    0.5630120  
H    6.7925129   -3.0517898   -0.6829152  
H    8.1807339   -4.7466356    1.1353774  
H    7.5781230   -6.9249568    3.8500577  
H    4.6006060   -6.9371250    4.3117090  
H    3.5147304   -5.5405224    2.7929036  
C    4.3489003   -2.1006738   -1.4732768  
C    3.1285974   -1.6364578   -1.8466932  
C    3.3412599   -0.7405808   -2.9589047  
C    4.7959153   -0.7207993   -3.2046241  
N    5.3494458   -1.5655063   -2.2702989  
C    5.4017633    0.0079523   -4.1760004  
C    4.5653390    0.8276900   -5.0367904  
O    5.0159492    1.5198389   -5.9402175  
C    3.0222816    0.8221878   -4.7944084  
O    2.3079739    1.5086269   -5.5126188  
C    2.4861704   -0.0045255   -3.7159919  
H    2.1869569   -1.8922660   -1.3944885  
H    6.4704902    0.0081996   -4.3395029  
H    6.3291330   -1.7643306   -2.1823805  
C    0.0000000    0.0000000    0.0000000  
C    1.0521669   -0.0011848   -0.8862341  
C    0.4917221   -0.0011931   -2.1979130  
C   -0.9187427    0.0003100   -2.0478683  
N   -1.1833170   -0.0009472   -0.7007915  
C   -1.7951698    0.0010259   -3.1372090  
C   -1.2375835    0.0005161   -4.4010425  
O   -2.0474208    0.0015256   -5.4997580  
C    0.1673584   -0.0013557   -4.5711962  
O    0.5673529   -0.0020659   -5.8915551  
C    1.0325773   -0.0023359   -3.4969890  
H    2.0953059   -0.0030542   -0.6200560  
H   -2.0989777    0.0102265   -0.2891825  
H   -2.8710930    0.0020274   -3.0295514  
H   -1.4634881    0.0006427   -6.2693593  
H    1.5290715   -0.0033076   -5.9180042  
C    0.0000000    0.0000000    1.4700000  
C    1.0541688    0.0001722    2.3260392  
C    0.5103138    0.0000454    3.6635956  
C   -0.9576371   -0.0002459    3.5155732  
N   -1.2018458    0.0001392    2.1615969  
C   -1.8348311   -0.0008317    4.5510609  
C   -1.2972847   -0.0009736    5.9014604  
O   -2.0050672   -0.0014265    6.9001319  
C    0.2542623   -0.0004184    6.0817573  
O    0.7184670   -0.0002256    7.2139121  
C    1.0974552   -0.0000873    4.8889129  
H    2.0940752    0.0005483    2.0517982  
H   -2.9081052   -0.0011668    4.4207061  
H    2.1707277    0.0000911    5.0223670  
H   -2.1128194   -0.0014912    1.7406791  
