60

C    9.0099430   -0.0039228   -3.8443147  
C    9.7064365   -0.0046284   -2.6579911  
C   11.0937334   -0.0053553   -2.9896638  
C   11.1832329   -0.0047640   -4.4052611  
N    9.8999070   -0.0058497   -4.8927943  
C   12.4045492   -0.0049220   -5.0858309  
C   13.5565007   -0.0053841   -4.3234764  
O   14.7758498   -0.0052060   -4.9368294  
C   13.4877528   -0.0063529   -2.9099383  
O   14.7219486   -0.0071362   -2.2934130  
C   12.2832413   -0.0064708   -2.2378691  
H    9.2684785   -0.0057254   -1.6745356  
H    9.6482942    0.0048135   -5.8646784  
H   12.4795230   -0.0046180   -6.1645258  
H   15.4361865   -0.0058955   -4.2316908  
H   14.5861485   -0.0077363   -1.3409625  
H   12.2620193   -0.0074044   -1.1543438  
C    5.5795932   -0.0015222   -1.1027756  
C    4.5679461   -0.0016854   -2.0086701  
C    5.1756903   -0.0023284   -3.3184343  
C    6.6347917   -0.0025572   -3.0997717  
N    6.8134024   -0.0016467   -1.7355918  
C    7.5609148   -0.0035410   -4.0917389  
C    7.0891367   -0.0042081   -5.4664971  
O    7.8442696   -0.0050453   -6.4298628  
C    5.5480930   -0.0037283   -5.7214287  
O    5.1390420   -0.0039759   -6.8746581  
C    4.6483399   -0.0029380   -4.5706479  
H    3.5827546   -0.0028152   -4.7557200  
H    5.5275962   -0.0011045   -0.0261208  
H    7.7030101   -0.0031107   -1.2712192  
C    3.1301149   -0.0010311   -1.7028252  
C    2.5367768   -0.0002767   -0.4864665  
C    1.1089904    0.0001028   -0.7656183  
C    1.0177872   -0.0004148   -2.2415132  
N    2.1993578   -0.0011611   -2.7963820  
C   -0.2459209   -0.0002877   -2.9257118  
C   -1.3675319   -0.0000605   -2.1698524  
O   -2.6129313    0.0000867   -2.6748490  
C   -1.3083584    0.0000910   -0.6783232  
O   -2.3693261    0.0004206   -0.0541692  
C    0.0000000    0.0000000    0.0000000  
H    3.0096017   -0.0001007    0.4807525  
H   -0.2829630   -0.0004687   -4.0053125  
H   -3.1967441    0.0002094   -1.8949034  
C    2.4951002    2.0940188    2.9809380  
C    1.9440701    1.6314916    1.8291961  
C    0.8759964    0.7350050    2.2038498  
C    0.8497377    0.7130254    3.6788474  
N    1.8560616    1.5571714    4.0882609  
C   -0.0205033   -0.0168748    4.4215661  
C   -0.9962600   -0.8356168    3.7214979  
O   -1.8224391   -1.5286685    4.3006425  
C   -0.9864710   -0.8277881    2.1595606  
O   -1.8030528   -1.5133726    1.5592035  
C    0.0000000    0.0000000    1.4700000  
H    2.2509283    1.8888011    0.8310761  
H   -0.0229599   -0.0187323    5.5027230  
H    3.3143982    2.7817323    3.1139444  
H    2.0889452    1.7545833    5.0442112  
