60

C    5.2213250   -3.2664245   -9.4591702  
C    5.4347941   -2.5008544  -10.5820240  
C    5.0785431   -1.1610676  -10.2463804  
C    4.6515101   -1.1703529   -8.8937972  
N    4.7488621   -2.4646368   -8.4466175  
C    4.2255539   -0.0174879   -8.2272746  
C    4.2310686    1.1663692   -8.9390542  
O    3.8253046    2.3219805   -8.3366169  
C    4.6532710    1.1958307  -10.2894962  
O    4.6007863    2.4503943  -10.8610357  
C    5.0733602    0.0588395  -10.9477535  
H    5.8010611   -2.8636441  -11.5271309  
H    4.5238223   -2.7767333   -7.5192919  
H    3.9058890    3.0189621   -9.0006851  
H    4.9020431    2.3823627  -11.7722004  
H    5.3909301    0.1123083  -11.9825330  
H    5.3673475   -4.3212144   -9.3008855  
C    5.7035978   -2.1123453   -4.6323633  
C    5.5262381   -1.6495157   -5.8966447  
C    4.3945378   -0.7534734   -5.8620417  
C    3.9237597   -0.7320394   -4.4639367  
N    4.7591254   -1.5766811   -3.7699389  
C    2.8699641   -0.0020530   -4.0185824  
C    2.1513543    0.8170173   -4.9804860  
O    1.1888858    1.5100764   -4.6777910  
C    2.6323971    0.8093816   -6.4665363  
O    2.0350149    1.4947731   -7.2854586  
C    3.7812680   -0.0180953   -6.8260217  
H    6.1202750   -1.9066250   -6.7554977  
H    6.4446788   -2.7998490   -4.2581598  
H    4.6940936   -1.7721471   -2.7877924  
C    3.2573670   -0.0002921   -1.5109382  
C    2.5379468   -0.0001711   -0.3591962  
C    1.1435043    0.0000330   -0.7338498  
C    1.1092608   -0.0000085   -2.2088474  
N    2.4227562    0.0001906   -2.6182610  
C   -0.0265533   -0.0002525   -2.9515663  
C   -1.3003033   -0.0002641   -2.2514979  
O   -2.3786785   -0.0004132   -2.8306425  
C   -1.2877724    0.0000310   -0.6895608  
O   -2.3539956    0.0003306   -0.0892035  
C    0.0000000    0.0000000    0.0000000  
H    2.9384091   -0.0000370    0.6389240  
H   -0.0296290   -0.0004088   -4.0327231  
H    4.3270394   -0.0004767   -1.6439445  
C    0.0000000    0.0000000    1.4700000  
C    1.0541688    0.0001722    2.3260392  
C    0.5103138    0.0000454    3.6635956  
C   -0.9576371   -0.0002459    3.5155732  
N   -1.2018458    0.0001392    2.1615969  
C   -1.8348311   -0.0008317    4.5510609  
C   -1.2972847   -0.0009736    5.9014604  
O   -2.0050672   -0.0014265    6.9001319  
C    0.2542623   -0.0004184    6.0817573  
O    0.7184670   -0.0002256    7.2139121  
C    1.0974552   -0.0000873    4.8889129  
H    2.0940752    0.0005483    2.0517982  
H   -2.9081052   -0.0011668    4.4207061  
H    2.1707277    0.0000911    5.0223670  
H   -2.1128194   -0.0014912    1.7406791  
