62

C    8.9823671   -0.0028153   -2.3735989  
C   10.0369475   -0.0046530   -1.4902392  
C   11.2321687   -0.0056137   -2.2687280  
C   10.8408627   -0.0039918   -3.6321074  
N    9.4683362   -0.0042654   -3.6601374  
C   11.7625326   -0.0040642   -4.6834470  
C   13.1036539   -0.0054989   -4.3524330  
O   14.0460530   -0.0052848   -5.3398016  
C   13.5138111   -0.0075039   -2.9979652  
O   14.8834007   -0.0091790   -2.8319356  
C   12.6051135   -0.0077069   -1.9602781  
H    9.9548618   -0.0063353   -0.4168091  
H    8.9048286    0.0072142   -4.4909857  
H   11.4707356   -0.0029773   -5.7246270  
H   14.9049122   -0.0067329   -4.8975082  
H   15.0754932   -0.0104463   -1.8892253  
H   12.9491609   -0.0094459   -0.9326077  
C    6.5860086   -0.0008868    1.4009371  
C    7.6166242   -0.0011132    0.4897296  
C    7.0248897   -0.0012665   -0.8081343  
C    5.6184276   -0.0008354   -0.6243131  
N    5.3862298   -0.0025640    0.7287198  
C    4.7161325   -0.0005435   -1.6923264  
C    5.2432551   -0.0003826   -2.9691658  
O    4.4073057    0.0002541   -4.0481476  
C    6.6437146   -0.0011823   -3.1729577  
O    7.0119354   -0.0013265   -4.5025278  
C    7.5344416   -0.0017439   -2.1198052  
H    8.6658466   -0.0022670    0.7308191  
H    4.4806937    0.0078492    1.1621680  
H    4.9726182   -0.0000404   -4.8315292  
H    7.9727445   -0.0018527   -4.5520297  
H    6.6118216   -0.0011074    2.4771771  
C    3.2573665   -0.0002920   -1.5109385  
C    2.5379463   -0.0001709   -0.3591964  
C    1.1435038    0.0000331   -0.7338500  
C    1.1092599   -0.0000083   -2.2088477  
N    2.4227553    0.0001909   -2.6182613  
C   -0.0265539   -0.0002524   -2.9515660  
C   -1.3003040   -0.0002640   -2.2514977  
O   -2.3786790   -0.0004133   -2.8306421  
C   -1.2877727    0.0000311   -0.6895603  
O   -2.3539959    0.0003306   -0.0892030  
C    0.0000000    0.0000000    0.0000000  
H    2.9384091   -0.0000367    0.6389234  
H   -0.0296303   -0.0004086   -4.0327229  
H    2.7280482   -0.0013407   -3.5742119  
C    0.8681109    0.7263879    2.2709268  
C    0.6127770    0.5096195    3.5869401  
C   -0.4920590   -0.4175482    3.6542670  
C   -0.8620974   -0.7254003    2.2596025  
N    0.0000000    0.0000000    1.4700000  
C   -1.8641242   -1.5660088    1.8976294  
C   -2.6293522   -2.2103885    2.9520183  
O   -3.5512764   -2.9839180    2.7283916  
C   -2.2549728   -1.8987399    4.4361073  
O   -2.8923672   -2.4351063    5.3323774  
C   -1.1543735   -0.9755647    4.7012123  
H    1.1382914    0.9492124    4.4159191  
H   -2.1192137   -1.7782617    0.8686553  
H   -0.9013378   -0.7652422    5.7314848  
H    1.6172880    1.3558399    1.8188057  
