60

C    6.4852241    0.0034699   -6.6852846  
C    7.2838517    0.0047281   -5.5651687  
C    8.6364015    0.0056783   -6.0181683  
C    8.6004245    0.0052218   -7.4361354  
N    7.2790307    0.0019258   -7.8083241  
C    9.7568030    0.0062180   -8.2219957  
C   10.9716308    0.0080092   -7.5644470  
O   12.1319902    0.0093946   -8.2831801  
C   11.0280957    0.0081157   -6.1503658  
O   12.3119559    0.0095803   -5.6453457  
C    9.8877057    0.0068601   -5.3744584  
H    6.9424827    0.0114290   -8.7541707  
H    9.7361357    0.0057331   -9.3030951  
H   12.8520692    0.0102190   -7.6391696  
H   12.2608760    0.0095790   -4.6846197  
H    9.9623417    0.0067951   -4.2932977  
H    5.4121717    0.0021058   -6.7719754  
C    6.8068807    0.0035020   -4.1747020  
C    5.5278576    0.0022331   -3.7323476  
C    5.6328267    0.0014348   -2.2813202  
C    7.0869585    0.0022983   -2.0128351  
N    7.7802397    0.0035920   -3.1188859  
C    7.6138019    0.0019123   -0.6758530  
C    6.7282253    0.0011069    0.3464425  
O    7.0793819    0.0006613    1.6436435  
C    5.2547117    0.0005945    0.1078687  
O    4.5071913   -0.0002588    1.0858429  
C    4.7390840    0.0009613   -1.2727298  
H    4.6247027    0.0019722   -4.3183400  
H    8.6810612    0.0023565   -0.5089147  
H    6.2347362    0.0001389    2.1291602  
C    3.2798077    0.0005856   -1.4499661  
C    2.5571132    0.0005565   -2.5996564  
C    1.1637425    0.0001547   -2.2210366  
C    1.1336959   -0.0000200   -0.7459475  
N    2.4483509   -0.0001429   -0.3402730  
C    0.0000000    0.0000000    0.0000000  
C   -1.2757370   -0.0000187   -0.6964411  
O   -2.3524597   -0.0000640   -0.1142306  
C   -1.2676502   -0.0000874   -2.2584078  
O   -2.3355774   -0.0004102   -2.8557287  
C    0.0181551    0.0001758   -2.9516297  
H    2.9547342    0.0006074   -3.5989118  
H    0.0150776    0.0003317   -4.0331632  
H    2.7563626    0.0012823    0.6148051  
C    0.8400945    0.7047457    2.2710304  
C    0.0000000    0.0000000    1.4700000  
C   -0.8844236   -0.7423113    2.3369512  
C   -0.4878984   -0.4098547    3.7186280  
N    0.5629682    0.4714286    3.6095011  
C   -1.0836927   -0.9095027    4.8308716  
C   -2.1891196   -1.8367527    4.6554461  
O   -2.7906899   -2.3413415    5.5944904  
C   -2.6257283   -2.2031529    3.2011665  
O   -3.5549479   -2.9829990    3.0410059  
C   -1.9068976   -1.5999348    2.0816745  
H   -0.7774656   -0.6525820    5.8354244  
H   -2.2155208   -1.8586617    1.0779135  
H    1.6384792    1.3747609    1.9961646  
H    1.0518368    0.8833920    4.3830260  
