62

C    0.1383276   -3.2637830  -10.3087884  
C    0.0728882   -2.5570043   -9.1303792  
C   -0.1863576   -1.1971851   -9.4743035  
C   -0.2700583   -1.1343251  -10.8888595  
N   -0.0663151   -2.4060293  -11.3641216  
C   -0.5172528    0.0558165  -11.5796889  
C   -0.6832727    1.2033532  -10.8288408  
O   -0.9272527    2.3926932  -11.4525058  
C   -0.6029513    1.1609497   -9.4165495  
O   -0.7900706    2.3869099   -8.8121061  
C   -0.3588475   -0.0127536   -8.7343753  
H    0.1978527   -2.9704518   -8.1442566  
H   -0.0787644   -2.6728290  -12.3319257  
H   -0.5820815    0.1104099  -12.6576594  
H   -1.0092431    3.0553340  -10.7543291  
H   -0.7202525    2.2702518   -7.8596781  
H    0.3162085   -4.3116288  -10.4800703  
C    2.2882816   -2.1097767   -5.8897962  
C    1.6780090   -1.6459960   -7.0107556  
C    0.6303821   -0.7506084   -6.5799497  
C    0.6807209   -0.7305951   -5.1055495  
N    1.7068259   -1.5753508   -4.7500430  
C   -0.1496415   -0.0015615   -4.3176961  
C   -1.1605341    0.8179096   -4.9650744  
O   -1.9554938    1.5101850   -4.3429046  
C   -1.2321584    0.8117733   -6.5254067  
O   -2.0792931    1.4975140   -7.0816287  
C   -0.2825939   -0.0147697   -7.2663562  
H    1.9325532   -1.9020639   -8.0237955  
H    3.1137390   -2.7971810   -5.8004316  
H    1.9909865   -1.7716676   -3.8078329  
C    3.3003543    0.0005276   -1.4738987  
C    2.5232814    0.0003497   -2.6090747  
C    1.1623200   -0.0001320   -2.1820103  
C    1.1711883    0.0000582   -0.7636140  
N    2.4852300   -0.0014919   -0.3662360  
C    0.0000000    0.0000000    0.0000000  
C   -1.2020384    0.0000519   -0.6806477  
O   -2.3759249    0.0003493    0.0157743  
C   -1.2314656   -0.0005115   -2.0955510  
O   -2.5054392   -0.0008039   -2.6250180  
C   -0.0764516   -0.0007274   -2.8495195  
H    2.8919955   -0.0005620   -3.6205304  
H    2.8036267    0.0088183    0.5858662  
H   -3.0835638    0.0000347   -0.6418818  
H   -2.4360047   -0.0011529   -3.5845921  
H    4.3715549    0.0004895   -1.3667136  
C    0.0000000    0.0000000    1.4700000  
C    1.0541688    0.0001722    2.3260392  
C    0.5103138    0.0000454    3.6635956  
C   -0.9576371   -0.0002459    3.5155732  
N   -1.2018458    0.0001392    2.1615969  
C   -1.8348311   -0.0008317    4.5510609  
C   -1.2972847   -0.0009736    5.9014604  
O   -2.0050672   -0.0014265    6.9001319  
C    0.2542623   -0.0004184    6.0817573  
O    0.7184670   -0.0002256    7.2139121  
C    1.0974552   -0.0000873    4.8889129  
H    2.0940752    0.0005483    2.0517982  
H   -2.9081052   -0.0011668    4.4207061  
H    2.1707277    0.0000911    5.0223670  
H   -2.1128194   -0.0014912    1.7406791  
