64

C    0.6784432   -0.7158668   -5.1604799  
C   -0.1387079    0.0017021   -4.3179678  
C   -1.0481462    0.7302006   -5.1406538  
C   -0.7354113    0.4143970   -6.4876471  
N    0.3188392   -0.4645845   -6.4638953  
C   -1.4327211    0.9543855   -7.5725253  
C   -2.4647280    1.8288750   -7.2925111  
O   -3.1787633    2.3849189   -8.3142661  
C   -2.7916052    2.1566109   -5.9551419  
O   -3.8437009    3.0417144   -5.8410017  
C   -2.1039444    1.6244865   -4.8843976  
H    0.7522628   -0.8729846   -7.2721864  
H   -3.8415782    2.9562101   -7.9049164  
H   -3.9995947    3.2099947   -4.9066660  
H   -2.3770362    1.8943256   -3.8709453  
H    1.4902648   -1.3859278   -4.9348205  
C    3.3041273    0.0001182   -1.5420424  
C    2.5845375   -0.0004778   -0.3695843  
C    1.2040007   -0.0000007   -0.7283585  
C    1.1422375    0.0006039   -2.1454364  
N    2.4348642    0.0026113   -2.6077456  
C   -0.0655179    0.0008800   -2.8497912  
C   -1.2321766    0.0002325   -2.1101400  
O   -2.4392814    0.0001147   -2.7472515  
C   -1.1911210   -0.0000006   -0.6955257  
O   -2.4371527   -0.0002322   -0.1032861  
C    0.0000000    0.0000000    0.0000000  
H    3.0031533   -0.0000657    0.6222590  
H    2.7054634   -0.0071094   -3.5745252  
H   -3.1132988   -0.0000650   -2.0551786  
H   -2.3200282   -0.0004073    0.8516419  
H    4.3686625    0.0004079   -1.7024280  
C   -0.2956463   -2.8421012   -9.5353375  
C   -0.1685656   -2.3482079  -10.8129864  
C   -0.4677676   -0.9548624  -10.7524312  
C   -0.7725663   -0.6529913   -9.4004336  
N   -0.6604964   -1.8215589   -8.6887401  
C   -1.1152484    0.6327915   -8.9713424  
C   -1.1505912    1.6321016   -9.9243941  
O   -1.4788287    2.9058334   -9.5598643  
C   -0.8500263    1.3505588  -11.2783550  
O   -0.9292667    2.4515881  -12.1058818  
C   -0.5121461    0.0822815  -11.7024244  
H    0.1049436   -2.9218686  -11.6819509  
H   -0.8078636   -1.9153494   -7.7000705  
H   -1.4444730    3.4378424  -10.3655007  
H   -0.7118306    2.1752664  -13.0014101  
H   -0.2871652   -0.1030954  -12.7462149  
H   -0.1562934   -3.8418874   -9.1612154  
C    2.4951002    2.0940188    2.9809380  
C    1.9440701    1.6314916    1.8291961  
C    0.8759964    0.7350050    2.2038498  
C    0.8497377    0.7130254    3.6788474  
N    1.8560616    1.5571714    4.0882609  
C   -0.0205033   -0.0168748    4.4215661  
C   -0.9962600   -0.8356168    3.7214979  
O   -1.8224391   -1.5286685    4.3006425  
C   -0.9864710   -0.8277881    2.1595606  
O   -1.8030528   -1.5133726    1.5592035  
C    0.0000000    0.0000000    1.4700000  
H    2.2509283    1.8888011    0.8310761  
H   -0.0229599   -0.0187323    5.5027230  
H    3.3143982    2.7817323    3.1139444  
H    2.0889452    1.7545833    5.0442112  
