62

C   -5.4530613   -0.7130274   -6.7757895  
C   -6.3684997    0.0056222   -6.0423165  
C   -7.1672677    0.7345259   -6.9725143  
C   -6.6888395    0.4178445   -8.2697218  
N   -5.6466305   -0.4620282   -8.1140274  
C   -7.2445301    0.9579379   -9.4334645  
C   -8.3026579    1.8334369   -9.2849946  
O   -8.8828210    2.3896289  -10.3882063  
C   -8.7939025    2.1620587   -7.9991084  
O   -9.8512113    3.0481140   -8.0177255  
C   -8.2460112    1.6298310   -6.8505975  
H   -5.1159069   -0.8711654   -8.8616369  
H   -6.8843895    0.7207150  -10.4250419  
H   -9.5911021    2.9616725  -10.0651460  
H  -10.1225624    3.2169509   -7.1102747  
H   -8.6434421    1.9003632   -5.8793408  
H   -4.6764359   -1.3836807   -6.4501584  
C   -3.2578655    0.0024039   -2.9908504  
C   -3.9809873    0.0031289   -1.8468775  
C   -5.3695593    0.0043912   -2.2808881  
C   -5.2983968    0.0043641   -3.7578851  
N   -4.0631144    0.0031210   -4.1798626  
C   -6.4794715    0.0054029   -4.5765110  
C   -7.6771926    0.0060336   -3.9481810  
O   -8.8597161    0.0070290   -4.5866776  
C   -7.7819059    0.0057080   -2.4591560  
O   -8.9049090    0.0064460   -1.9550883  
C   -6.5558062    0.0046821   -1.6414745  
H   -3.6170584    0.0027521   -0.8336497  
H   -9.5255212    0.0072469   -3.8754433  
H   -6.6744111    0.0043600   -0.5662243  
C    0.0000000    0.0000000    0.0000000  
C    1.0521667   -0.0011902   -0.8862342  
C    0.4917216   -0.0011957   -2.1979129  
C   -0.9187429    0.0003148   -2.0478680  
N   -1.1833171   -0.0009412   -0.7007912  
C   -1.7951702    0.0010350   -3.1372088  
C   -1.2375841    0.0005225   -4.4010424  
O   -2.0474217    0.0015360   -5.4997576  
C    0.1673577   -0.0013567   -4.5711964  
O    0.5673522   -0.0020688   -5.8915554  
C    1.0325769   -0.0023413   -3.4969890  
H    2.0953057   -0.0030649   -0.6200562  
H   -2.0989779    0.0102372   -0.2891821  
H   -1.4634887    0.0006498   -6.2693588  
H    1.5290708   -0.0033153   -5.9180049  
H    2.1042148   -0.0039610   -3.6584453  
C    3.1301144    0.0010313    3.1728260  
C    2.5367765    0.0002768    1.9564670  
C    1.1089900   -0.0001027    2.2356185  
C    1.0177864    0.0004150    3.7115134  
N    2.1993570    0.0011613    4.2663826  
C   -0.2459220    0.0002880    4.3957118  
C   -1.3675327    0.0000606    3.6398520  
O   -2.6129319   -0.0000866    4.1448486  
C   -1.3083589   -0.0000910    2.1483229  
O   -2.3693264   -0.0004206    1.5241687  
C    0.0000000    0.0000000    1.4700000  
H    3.0096015    0.0001008    0.9892483  
H   -0.2829642    0.0004689    5.4753125  
H   -3.1967446   -0.0002093    3.3649027  
H    4.1849273    0.0015113    3.3971983  
