60

C    4.6070604    0.0052287   -7.5479313  
C    3.3242629    0.0061551   -8.0448180  
C    3.4287833    0.0074024   -9.4673768  
C    4.8116215    0.0068863   -9.7831054  
N    5.4989681    0.0075144   -8.5947575  
C    5.2871714    0.0075142  -11.0978833  
C    4.3496743    0.0083774  -12.1124174  
O    4.7591957    0.0086663  -13.4144568  
C    2.9655359    0.0092786  -11.8175006  
O    2.1587640    0.0104976  -12.9366354  
C    2.4956776    0.0089331  -10.5206743  
H    2.4239285    0.0070615   -7.4545718  
H    6.4986479   -0.0032122   -8.5025329  
H    6.3398135    0.0072700  -11.3451571  
H    3.9571415    0.0095776  -13.9529494  
H    1.2404958    0.0110193  -12.6496040  
H    1.4296313    0.0098266  -10.3256790  
C    2.4521485    0.0014838   -3.7217479  
C    3.5087829    0.0013019   -2.8687536  
C    4.7039153    0.0022078   -3.6789965  
C    4.2537129    0.0029668   -5.0840262  
N    2.8785571    0.0020813   -5.0411852  
C    5.0840330    0.0043211   -6.1574650  
C    6.5167217    0.0048558   -5.9126433  
O    7.3462788    0.0059997   -6.8127180  
C    7.0158850    0.0038165   -4.4325618  
O    8.2198463    0.0039481   -4.2140696  
C    6.0245774    0.0026608   -3.3596404  
H    3.4569042    0.0004295   -1.7945464  
H    6.3784142    0.0021513   -2.3376213  
H    2.2773147    0.0038587   -5.8446475  
C    0.0000000    0.0000000    0.0000000  
C    1.0662924   -0.0000102   -0.8334267  
C    0.4961874    0.0000064   -2.1718888  
C   -0.9663853   -0.0000849   -1.9540250  
N   -1.2632772   -0.0000084   -0.6828660  
C   -1.8985357   -0.0000515   -3.0477261  
C   -1.3925767    0.0004566   -4.3020548  
O   -2.1456375    0.0005411   -5.4151316  
C    0.0786242    0.0009324   -4.5545000  
O    0.4683770    0.0012590   -5.7221099  
C    1.0143173    0.0008443   -3.4159029  
H    2.1107200    0.0000632   -0.5721862  
H   -2.9622180   -0.0003269   -2.8593382  
H   -1.5042262    0.0009694   -6.1484423  
C    3.2573670    0.0002920    2.9809380  
C    2.5379467    0.0001709    1.8291961  
C    1.1435042   -0.0000331    2.2038498  
C    1.1092607    0.0000083    3.6788474  
N    2.4227561   -0.0001909    4.0882609  
C   -0.0265533    0.0002524    4.4215661  
C   -1.3003036    0.0002640    3.7214979  
O   -2.3786784    0.0004133    4.3006425  
C   -1.2877726   -0.0000311    2.1595606  
O   -2.3539958   -0.0003306    1.5592035  
C    0.0000000    0.0000000    1.4700000  
H    2.9384090    0.0000368    0.8310761  
H   -0.0296291    0.0004086    5.5027230  
H    4.3270393    0.0004765    3.1139444  
H    2.7280493    0.0013407    5.0442112  
