64

C   -0.1387077    0.0017021   -4.3179690  
C    0.8680295    0.0011955   -5.2554908  
C    0.2429722    0.0018233   -6.5376383  
C   -1.1582725    0.0029979   -6.3175531  
N   -1.3554488    0.0009415   -4.9589754  
C   -2.0878500    0.0041707   -7.3619062  
C   -1.5938803    0.0044645   -8.6519339  
O   -2.4574176    0.0059478   -9.7089647  
C   -0.1991525    0.0029316   -8.8918279  
O    0.1346063    0.0030294  -10.2304648  
C    0.7184771    0.0015010   -7.8620321  
H    1.9231277   -0.0006417   -5.0415808  
H   -2.2494818    0.0117259   -4.5022808  
H   -1.9125267    0.0055962  -10.5066862  
H    1.0938155    0.0019694  -10.3047653  
H    1.7807474    0.0001630   -8.0766450  
C    3.3041276    0.0001179   -1.5420426  
C    2.5845371   -0.0004779   -0.3695857  
C    1.2040009   -0.0000006   -0.7283589  
C    1.1422378    0.0006039   -2.1454371  
N    2.4348645    0.0026112   -2.6077465  
C   -0.0655179    0.0008800   -2.8497922  
C   -1.2321765    0.0002327   -2.1101402  
O   -2.4392813    0.0001149   -2.7472526  
C   -1.1911209   -0.0000006   -0.6955274  
O   -2.4371527   -0.0002319   -0.1032865  
C    0.0000000    0.0000000    0.0000000  
H    3.0031534   -0.0000661    0.6222584  
H    2.7054636   -0.0071095   -3.5745261  
H   -3.1132983   -0.0000647   -2.0551788  
H   -2.3200284   -0.0004071    0.8516403  
H    4.3686627    0.0004072   -1.7024293  
C   -4.2045619    0.7238058   -6.1752543  
C   -3.5414443    0.0051964   -7.1429023  
C   -4.5288347   -0.7222472   -7.8712469  
C   -5.7868295   -0.4047572   -7.2980315  
N   -5.5536867    0.4741706   -6.2695631  
C   -6.9889782   -0.9433656   -7.7665693  
C   -6.9199607   -1.8181836   -8.8333905  
O   -8.0635682   -2.3729267   -9.3308193  
C   -5.6742145   -2.1475939   -9.4185601  
O   -5.7717769   -3.0328174  -10.4722221  
C   -4.4878407   -1.6168313   -8.9566794  
H   -6.2596328    0.8835772   -5.6847493  
H   -7.9509981   -0.7055207   -7.3339618  
H   -7.7942897   -2.9447177  -10.0614424  
H   -4.8870261   -3.2022685  -10.8100171  
H   -3.5488738   -1.8879386   -9.4249957  
H   -3.8217770    1.3935652   -5.4243498  
C    0.0000000    0.0000000    1.4700000  
C    1.0662921    0.0000102    2.3034270  
C    0.4961870   -0.0000064    3.6418889  
C   -0.9663858    0.0000850    3.4240247  
N   -1.2632773    0.0000084    2.1528658  
C   -1.8985362    0.0000517    4.5177257  
C   -1.3925775   -0.0004564    5.7720543  
O   -2.1456383   -0.0005410    6.8851312  
C    0.0786232   -0.0009323    6.0245000  
O    0.4683759   -0.0012588    7.1921102  
C    1.0143166   -0.0008442    4.8859032  
H    2.1107198   -0.0000632    2.0421868  
H   -2.9622183    0.0003270    4.3293377  
H   -1.5042274   -0.0009692    7.6184419  
H    2.0724152   -0.0013148    5.1109744  
