60

C   -1.7181985    2.1213879   -6.1152974  
C   -0.4264250    1.6586511   -6.0169957  
C   -0.2180141    0.7698302   -7.1129713  
C   -1.4279120    0.7297169   -7.8522023  
N   -2.3183782    1.5601167   -7.2180699  
C   -1.5853013   -0.0477281   -9.0035480  
C   -0.5014647   -0.7981181   -9.4163324  
O   -0.6004656   -1.5748479  -10.5343233  
C    0.7139825   -0.7716159   -8.6918986  
O    1.6993625   -1.5733966   -9.2299660  
C    0.8698757   -0.0050876   -7.5558273  
H    0.2785499    1.9276780   -5.2491227  
H   -3.2585605    1.7417751   -7.5197964  
H   -2.5048579   -0.0827637   -9.5713425  
H    0.2560027   -2.0085403  -10.6422049  
H    2.4861232   -1.4979507   -8.6814050  
H   -2.2593801    2.8062873   -5.4852225  
C    1.6707638   -0.0012342   -3.2725973  
C    3.0236194   -0.0024591   -3.2357227  
C    3.4368536   -0.0041813   -4.6306186  
C    2.1706892   -0.0038457   -5.3944323  
N    1.1320373   -0.0020398   -4.6037431  
C    2.1489264   -0.0051902   -6.8313076  
C    3.3380085   -0.0064082   -7.4758355  
O    3.4666346   -0.0077442   -8.8135556  
C    4.6328546   -0.0064066   -6.7331821  
O    5.6771187   -0.0076791   -7.3848966  
C    4.6287467   -0.0050571   -5.2594432  
H    3.6622535   -0.0021326   -2.3689922  
H    4.4282060   -0.0083574   -8.9701849  
H    5.5877287   -0.0049857   -4.7588595  
C    1.0965515    0.0001359   -0.8010305  
C    0.0000000    0.0000000    0.0000000  
C   -1.1546564    0.0001470   -0.8669509  
C   -0.6372018    0.0003521   -2.2486279  
N    0.7342868    0.0007339   -2.1395011  
C   -1.4147743    0.0001355   -3.3608714  
C   -2.8576049   -0.0001046   -3.1854455  
O   -3.6427782   -0.0002491   -4.1244898  
C   -3.4275842   -0.0000725   -1.7311664  
O   -4.6406831    0.0000334   -1.5710053  
C   -2.4891868   -0.0001091   -0.6116742  
H   -1.0150456    0.0001619   -4.3654242  
H   -2.8919123   -0.0002920    0.3920869  
H    2.1388270    0.0000663   -0.5261648  
C    0.8175213    0.6860729    2.3021913  
C    0.0000000    0.0000000    1.4700000  
C   -0.8887526   -0.7456559    2.3478473  
C   -0.4549825   -0.3816753    3.7138435  
N    0.5448156    0.4573574    3.6934124  
C   -1.0945674   -0.9182058    4.8835240  
C   -2.1210866   -1.7789155    4.6970523  
O   -2.8083856   -2.3554314    5.6976972  
C   -2.5824069   -2.1655116    3.3310774  
O   -3.5227682   -2.9541547    3.2362962  
C   -1.9100805   -1.6015804    2.1470656  
H   -0.7567140   -0.6349833    5.8697035  
H   -3.4728268   -2.9124471    5.2533954  
H   -2.2742832   -1.9066565    1.1752040  
H    1.6189533    1.3585343    2.0405121  
