60

C    4.9828807   -0.5424450   -8.7313796  
C    5.7736820   -0.4351080   -9.8519050  
C    5.7258172    0.9289601  -10.2661839  
C    4.8832120    1.6121697   -9.3523086  
N    4.4474960    0.6890224   -8.4343948  
C    4.6073306    2.9789898   -9.4546891  
C    5.1929612    3.6687394  -10.4984620  
O    4.9576278    5.0052033  -10.6450737  
C    6.0363086    3.0046207  -11.4207025  
O    6.5428642    3.8290320  -12.4041099  
C    6.3086975    1.6561833  -11.3204708  
H    6.3172010   -1.2410739  -10.3145064  
H    3.9658892    3.5055402   -8.7615087  
H    5.4545471    5.2860589  -11.4244690  
H    7.1013195    3.3026971  -12.9843712  
H    6.9584629    1.1748156  -12.0419756  
H    4.7572385   -1.4002934   -8.1213461  
C    4.4169323   -0.7262681   -4.2519965  
C    4.7208627   -0.5096733   -5.5576722  
C    3.7394655    0.4171453   -6.0702173  
C    2.8323815    0.7249817   -4.9480652  
N    3.2973506   -0.0000934   -3.8752374  
C    1.7696597    1.5653036   -5.0267153  
C    1.5012095    2.2093696   -6.3017244  
O    0.5680943    2.9826278   -6.4739712  
C    2.4487537    1.8977314   -7.5037428  
O    2.2325035    2.4338349   -8.5822092  
C    3.5619530    0.9748805   -7.2964140  
H    5.5390529   -0.9491615   -6.0999154  
H    1.1167845    1.7775507   -4.1914813  
H    4.9165210   -1.3554542   -3.5333689  
C    3.3321174    0.0004714   -1.3379332  
C    2.6974186    0.0000115   -2.5332308  
C    1.2800441   -0.0002119   -2.2052838  
C    1.2395035    0.0000643   -0.7271293  
N    2.4394063    0.0005458   -0.2131034  
C    0.0000000    0.0000000    0.0000000  
C   -1.1468701    0.0000634   -0.7169542  
O   -2.3742201    0.0000072   -0.1695492  
C   -1.1388767    0.0001606   -2.2096354  
O   -2.2206229    0.0000903   -2.7970413  
C    0.1454526    0.0001815   -2.9324239  
H   -2.9844344    0.0001023   -0.9290168  
H    0.1083580    0.0003680   -4.0135594  
H    4.3940040    0.0007617   -1.1498630  
C    2.5128556    2.1077716    2.9199648  
C    1.9592212    1.6432552    4.0696553  
C    0.8915788    0.7479214    3.6910360  
C    0.8684491    0.7287414    2.2159470  
N    1.8754542    1.5738793    1.8102719  
C    0.0000000    0.0000000    1.4700000  
C   -0.9772830   -0.8200135    2.1664417  
O   -1.8021297   -1.5120829    1.5842315  
C   -0.9711318   -0.8147624    3.7284083  
O   -1.7894187   -1.5009653    4.3257297  
C    0.0140216    0.0115358    4.4216297  
H    2.2638494    1.8988021    5.0689105  
H    0.0117648    0.0094386    5.5031631  
H    3.3327358    2.7953732    2.7900019  
H    2.1123206    1.7707734    0.8551938  
