64

C    7.1119741   -3.3930887   -1.4510211  
C    8.4763143   -3.3848225   -1.2750197  
C    8.9197370   -2.0515360   -1.5206275  
C    7.7716830   -1.2841339   -1.8446537  
N    6.6913557   -2.1297426   -1.7950927  
C    7.8340651    0.0796114   -2.1464755  
C    9.0780242    0.6796660   -2.1204285  
O    9.1960643    2.0089792   -2.4067942  
C   10.2352060   -0.0692911   -1.7997880  
O   11.3990150    0.6713931   -1.8165149  
C   10.1744450   -1.4147543   -1.5021926  
H    9.0780833   -4.2354039   -1.0041346  
H    6.9627911    0.6700637   -2.3943645  
H   10.1354740    2.2218400   -2.3328860  
H   12.1320772    0.0912011   -1.5893568  
H   11.0778982   -1.9623194   -1.2604852  
H    6.4057967   -4.2005170   -1.3597420  
C    4.1863608   -2.1478772   -1.3903806  
C    5.2964345   -1.7420569   -2.0496413  
C    4.8117016   -0.8307213   -3.0748248  
C    3.3454828   -0.8022507   -2.8851476  
N    2.9730514   -1.5723544   -1.8991330  
C    2.4861704   -0.0045255   -3.7159919  
C    3.0653208    0.7316068   -4.6917118  
O    2.3851028    1.5212588   -5.5401180  
C    4.5422559    0.7243200   -4.9079754  
O    5.0006617    1.4186843   -5.8151378  
C    5.4023453   -0.1022439   -4.0425491  
H    3.0670362    1.9124160   -6.1155441  
H    6.4672339   -0.0798685   -4.2316053  
H    4.1206068   -2.8299028   -0.5576195  
C    0.0000000    0.0000000    0.0000000  
C    1.0521669   -0.0011848   -0.8862341  
C    0.4917221   -0.0011931   -2.1979130  
C   -0.9187427    0.0003100   -2.0478683  
N   -1.1833170   -0.0009472   -0.7007915  
C   -1.7951698    0.0010259   -3.1372090  
C   -1.2375835    0.0005161   -4.4010425  
O   -2.0474208    0.0015256   -5.4997580  
C    0.1673584   -0.0013557   -4.5711962  
O    0.5673529   -0.0020659   -5.8915551  
C    1.0325773   -0.0023359   -3.4969890  
H    2.0953059   -0.0030542   -0.6200560  
H   -2.0989777    0.0102265   -0.2891825  
H   -2.8710930    0.0020274   -3.0295514  
H   -1.4634881    0.0006427   -6.2693593  
H    1.5290715   -0.0033076   -5.9180042  
C    0.0000000    0.0000000    1.4700000  
C    1.0521667    0.0011902    2.3562342  
C    0.4917218    0.0011957    3.6679131  
C   -0.9187428   -0.0003148    3.5178682  
N   -1.1833171    0.0009411    2.1707914  
C   -1.7951701   -0.0010350    4.6072090  
C   -1.2375837   -0.0005224    5.8710424  
O   -2.0474215   -0.0015360    6.9697579  
C    0.1673580    0.0013566    6.0411963  
O    0.5673524    0.0020687    7.3615553  
C    1.0325770    0.0023412    4.9669890  
H    2.0953057    0.0030649    2.0900562  
H   -2.0989778   -0.0102372    1.7591824  
H   -2.8710934   -0.0020419    4.4995513  
H   -1.4634884   -0.0006497    7.7393593  
H    1.5290710    0.0033153    7.3880045  
H    2.1042148    0.0039609    5.1284455  
