64

C   -3.6119555    0.7207791   -8.2533041  
C   -2.5823534    0.0022674   -8.8155565  
C   -3.1325614   -0.7251285   -9.9122630  
C   -4.5137568   -0.4077117   -9.9711851  
N   -4.7719277    0.4711286   -8.9486369  
C   -5.3731376   -0.9462997  -10.9335661  
C   -4.8282212   -1.8210214  -11.8534055  
O   -5.6223234   -2.3757404  -12.8150212  
C   -3.4525286   -2.1503576  -11.8106917  
O   -3.0620769   -3.0354889  -12.7942734  
C   -2.6041942   -1.6196152  -10.8613929  
H   -5.6662446    0.8804707   -8.7470996  
H   -6.4267687   -0.7085099  -10.9837468  
H   -5.0512160   -2.9474613  -13.3443953  
H   -2.1202881   -3.2048943  -12.6945722  
H   -1.5549335   -1.8906645  -10.8534936  
H   -3.6109572    1.3904781   -7.4104155  
C   -0.8287671    0.0000935   -4.7555305  
C    0.4934745   -0.0006678   -5.1351932  
C    0.5171458   -0.0005603   -6.5613909  
C   -0.8317452    0.0005740   -7.0000447  
N   -1.6230471   -0.0010050   -5.8782354  
C   -1.1872839    0.0012869   -8.3522210  
C   -0.1624549    0.0011536   -9.2784513  
O   -0.4533755    0.0021781  -10.6120098  
C    1.1896012   -0.0003469   -8.8604092  
O    2.0936294   -0.0007075   -9.9025607  
C    1.5410839   -0.0013238   -7.5266238  
H    1.3371559   -0.0023365   -4.4664687  
H   -2.6269692    0.0098689   -5.8761611  
H    0.3938019    0.0015829  -11.0762893  
H    2.9824057   -0.0017119   -9.5342134  
H    2.5853074   -0.0026485   -7.2366685  
C    1.0672566   -0.0000698   -0.8321912  
C    0.0000000    0.0000000    0.0000000  
C   -1.1601226   -0.0000736   -0.8778472  
C   -0.5938732   -0.0000770   -2.2438435  
N    0.7113365   -0.0001555   -2.2234123  
C   -1.4286989   -0.0001880   -3.4135239  
C   -2.7683117   -0.0006800   -3.2270522  
O   -3.6653907   -0.0008306   -4.2276967  
C   -3.3702026   -0.0010611   -1.8610771  
O   -4.5974909   -0.0013781   -1.7662957  
C   -2.4926826   -0.0008944   -0.6770655  
H   -4.5324249   -0.0012263   -3.7833950  
H   -2.9677773   -0.0012975    0.2947963  
H    2.1134390   -0.0000546   -0.5705121  
C    2.5311839    2.1237619    3.0120429  
C    1.9795631    1.6616747    1.8395852  
C    0.9223175    0.7739173    2.1983588  
C    0.8753926    0.7337535    3.6154372  
N    1.8668922    1.5631002    4.0777464  
C   -0.0496243   -0.0427881    4.3197917  
C   -0.9437528   -0.7922060    3.5801400  
O   -1.8685244   -1.5680278    4.2172520  
C   -0.9124520   -0.7656372    2.1655264  
O   -1.8671164   -1.5663939    1.5732860  
C    0.0000000    0.0000000    1.4700000  
H    2.3005065    1.9304404    0.8477417  
H    2.0679347    1.7444845    5.0445261  
H   -0.0904770   -0.0778569    5.3997470  
H   -2.3849669   -2.0011402    3.5251786  
H   -1.7775064   -1.4909735    0.6183591  
H    3.3468514    2.8078103    3.1724291  
