60

C    5.1832264   -2.9240038   -8.6917426  
C    5.8575919   -2.4555672   -9.7954926  
C    5.5731394   -1.0614830   -9.8965662  
C    4.7128570   -0.7329459   -8.8177217  
N    4.4946138   -1.8870397   -8.1070490  
C    4.2280221    0.5609077   -8.6040238  
C    4.6189991    1.5410206   -9.4954799  
O    4.1751649    2.8215486   -9.3333900  
C    5.4764884    1.2327658  -10.5783035  
O    5.7741453    2.3170485  -11.3777244  
C    5.9549565   -0.0434889  -10.7898895  
H    6.4773176   -3.0462423  -10.4482079  
H    3.9309679   -1.9612196   -7.2795342  
H    4.5609655    3.3374329  -10.0533104  
H    6.3573517    2.0230892  -12.0841669  
H    6.6102061   -0.2494688  -11.6281609  
H    5.1378031   -3.9160529   -8.2761307  
C    4.1774648   -0.7039258   -4.3991482  
C    3.1006054    0.0006263   -3.9654951  
C    2.5992402    0.7428151   -5.0980253  
C    3.4785677    0.4104974   -6.2351876  
N    4.4147929   -0.4705967   -5.7452437  
C    3.3361161    0.9100879   -7.4889113  
C    2.2439823    1.8371251   -7.7346382  
O    2.0321276    2.3416470   -8.8295708  
C    1.3005628    2.2033754   -6.5448385  
O    0.3778221    2.9830422   -6.7395981  
C    1.5546719    1.6002372   -5.2388884  
H    0.8967558    1.8588594   -4.4203627  
H    4.8177812   -1.3738064   -3.8485622  
H    5.1550885   -0.8824329   -6.2832025  
C    3.2798083    0.0005857   -1.4499652  
C    2.5571142    0.0005565   -2.5996556  
C    1.1637432    0.0001548   -2.2210361  
C    1.1336964   -0.0000200   -0.7459473  
N    2.4483512   -0.0001428   -0.3402723  
C    0.0000000    0.0000000    0.0000000  
C   -1.2757368   -0.0000186   -0.6964415  
O   -2.3524598   -0.0000639   -0.1142311  
C   -1.2676497   -0.0000872   -2.2584083  
O   -2.3355766   -0.0004101   -2.8557295  
C    0.0181558    0.0001758   -2.9516296  
H    0.0150788    0.0003319   -4.0331631  
H    4.3498547    0.0008612   -1.3200026  
H    2.7563626    0.0012823    0.6148059  
C    0.8175213    0.6860729    2.3021913  
C    0.0000000    0.0000000    1.4700000  
C   -0.8887526   -0.7456559    2.3478473  
C   -0.4549825   -0.3816753    3.7138435  
N    0.5448156    0.4573574    3.6934124  
C   -1.0945674   -0.9182058    4.8835240  
C   -2.1210866   -1.7789155    4.6970523  
O   -2.8083856   -2.3554314    5.6976972  
C   -2.5824069   -2.1655116    3.3310774  
O   -3.5227682   -2.9541547    3.2362962  
C   -1.9100805   -1.6015804    2.1470656  
H   -0.7567140   -0.6349833    5.8697035  
H   -3.4728268   -2.9124471    5.2533954  
H   -2.2742832   -1.9066565    1.1752040  
H    1.6189533    1.3585343    2.0405121  
