62

C    8.1857344    0.0031514   -2.6641678  
C    8.3354586    0.0066566   -4.0316608  
C    9.7369432    0.0088279   -4.2970584  
C   10.3981850    0.0061918   -3.0421964  
N    9.4269620    0.0047234   -2.0719689  
C   11.7910877    0.0070256   -2.9213250  
C   12.5299307    0.0102783   -4.0884919  
O   13.8935178    0.0108762   -4.0281399  
C   11.8884640    0.0133179   -5.3499706  
O   12.7620472    0.0167840   -6.4177638  
C   10.5143731    0.0127707   -5.4699658  
H    7.5332354    0.0086452   -4.7495931  
H    9.5953308   -0.0077843   -1.0822837  
H   12.3011386    0.0051730   -1.9678852  
H   14.2072649    0.0135765   -4.9418257  
H   12.2481898    0.0186535   -7.2311212  
H   10.0513840    0.0153360   -6.4498196  
C    5.6692779    0.0013336   -2.3388885  
C    4.7630507    0.0004755   -1.3275395  
C    5.5107321   -0.0007787   -0.0923041  
C    6.9370632   -0.0005503   -0.4696227  
N    6.9650294    0.0003504   -1.8451615  
C    7.9663623   -0.0010980    0.4148252  
C    7.6481548   -0.0021969    1.8330204  
O    8.5043581   -0.0028177    2.7077870  
C    6.1443518   -0.0027089    2.2553735  
O    5.8642059   -0.0039400    3.4464980  
C    5.1238526   -0.0017578    1.2101785  
H    9.0057222   -0.0007873    0.1170998  
H    4.0849824   -0.0019148    1.5109647  
H    5.4995508    0.0023846   -3.4033512  
C    3.3003548    0.0005276   -1.4738982  
C    2.5232817    0.0003497   -2.6090743  
C    1.1623204   -0.0001319   -2.1820101  
C    1.1711886    0.0000583   -0.7636140  
N    2.4852302   -0.0014919   -0.3662356  
C    0.0000000    0.0000000    0.0000000  
C   -1.2020379    0.0000520   -0.6806479  
O   -2.3759249    0.0003495    0.0157742  
C   -1.2314652   -0.0005112   -2.0955511  
O   -2.5054384   -0.0008036   -2.6250184  
C   -0.0764510   -0.0007271   -2.8495195  
H    2.8919962   -0.0005619   -3.6205297  
H    2.8036267    0.0088181    0.5858667  
H   -3.0835636    0.0000348   -0.6418823  
H   -2.4360038   -0.0011526   -3.5845925  
H   -0.1304090   -0.0013420   -3.9319089  
C    0.8400945    0.7047457    2.2710304  
C    0.0000000    0.0000000    1.4700000  
C   -0.8844236   -0.7423113    2.3369512  
C   -0.4878984   -0.4098547    3.7186280  
N    0.5629682    0.4714286    3.6095011  
C   -1.0836927   -0.9095027    4.8308716  
C   -2.1891196   -1.8367527    4.6554461  
O   -2.7906899   -2.3413415    5.5944904  
C   -2.6257283   -2.2031529    3.2011665  
O   -3.5549479   -2.9829990    3.0410059  
C   -1.9068976   -1.5999348    2.0816745  
H   -0.7774656   -0.6525820    5.8354244  
H   -2.2155208   -1.8586617    1.0779135  
H    1.6384792    1.3747609    1.9961646  
H    1.0518368    0.8833920    4.3830260  
