62

C    9.6103516   -0.7133758    1.9743060  
C   10.9605367   -0.4630846    2.0569024  
C   11.2803744    0.4467990    1.0059900  
C   10.0749754    0.7185509    0.3095046  
N    9.0809566   -0.0033887    0.9221614  
C   10.0147804    1.5791873   -0.7907093  
C   11.1928359    2.1766068   -1.1950057  
O   11.1908176    3.0260342   -2.2634070  
C   12.4056362    1.9177405   -0.5131549  
O   13.4917644    2.5881224   -1.0368510  
C   12.4658106    1.0686034    0.5721430  
H   11.6324891   -0.8853231    2.7843553  
H    9.0992716    1.7903496   -1.3259239  
H   12.1019611    3.3272882   -2.3744389  
H   14.2695164    2.3582768   -0.5192829  
H   13.4093689    0.8895365    1.0742491  
H    8.9833344   -1.3432830    2.5817797  
C    6.5771488   -0.0035573    1.3345532  
C    7.6645487   -0.0027622    0.5288600  
C    7.1290976   -0.0009890   -0.8238371  
C    5.6614000   -0.0010506   -0.6437065  
N    5.3318744   -0.0024720    0.6193853  
C    4.7577216    0.0005129   -1.7610467  
C    5.2958115    0.0024559   -3.0019294  
O    4.5716623    0.0040579   -4.1340274  
C    6.7730250    0.0029426   -3.2164074  
O    7.1927149    0.0046212   -4.3735931  
C    7.6790894    0.0012687   -2.0540952  
H    5.2317432    0.0052549   -4.8505779  
H    8.7426331    0.0018006   -2.2518453  
H    6.5493799   -0.0048793    2.4126073  
C    3.3041270    0.0001177   -1.5420435  
C    2.5845370   -0.0004780   -0.3695856  
C    1.2040004   -0.0000007   -0.7283590  
C    1.1422370    0.0006038   -2.1454373  
N    2.4348634    0.0026110   -2.6077469  
C   -0.0655187    0.0008799   -2.8497918  
C   -1.2321769    0.0002326   -2.1101398  
O   -2.4392822    0.0001149   -2.7472517  
C   -1.1911211   -0.0000007   -0.6955263  
O   -2.4371526   -0.0002319   -0.1032858  
C    0.0000000    0.0000000    0.0000000  
H    3.0031534   -0.0000661    0.6222578  
H    2.7054623   -0.0071098   -3.5745266  
H   -0.1193555    0.0014846   -3.9297472  
H   -3.1132992   -0.0000646   -2.0551783  
H   -2.3200279   -0.0004070    0.8516411  
C    0.0000000    0.0000000    1.4700000  
C    1.0662921    0.0000102    2.3034270  
C    0.4961870   -0.0000064    3.6418889  
C   -0.9663858    0.0000850    3.4240247  
N   -1.2632773    0.0000084    2.1528658  
C   -1.8985362    0.0000517    4.5177257  
C   -1.3925775   -0.0004564    5.7720543  
O   -2.1456383   -0.0005410    6.8851312  
C    0.0786232   -0.0009323    6.0245000  
O    0.4683759   -0.0012588    7.1921102  
C    1.0143166   -0.0008442    4.8859032  
H    2.1107198   -0.0000632    2.0421868  
H   -2.9622183    0.0003270    4.3293377  
H   -1.5042274   -0.0009692    7.6184419  
H    2.0724152   -0.0013148    5.1109744  
