60

C    4.2666897   -3.0465528   -0.1546489  
C    5.2923333   -3.6925422    0.4959053  
C    4.6998464   -4.4860393    1.5225127  
C    3.2980476   -4.2822666    1.4492825  
N    3.0693964   -3.4013466    0.4215104  
C    2.3963794   -4.9099987    2.3140004  
C    2.9193219   -5.7591361    3.2698625  
O    2.0837458   -6.3982296    4.1395680  
C    4.3151252   -5.9750294    3.3589725  
O    4.6795744   -6.8478783    4.3632897  
C    5.2052531   -5.3558827    2.5064131  
H    6.3388958   -3.6020350    0.2603036  
H    2.1666963   -3.0764029    0.1256650  
H    1.3269014   -4.7587846    2.2634645  
H    2.6457797   -6.9337869    4.7145135  
H    5.6373671   -6.9382541    4.3549811  
H    6.2691142   -5.5406206    2.5988729  
C    4.3047801   -2.1086495   -1.2859250  
C    5.3774567   -1.6442153   -1.9771129  
C    4.8701594   -0.7486132   -2.9897238  
C    3.4034922   -0.7291858   -2.8306577  
N    3.1250168   -1.5744514   -1.7814355  
C    2.5562217   -0.0001543   -3.6003001  
C    3.1269046    0.8199333   -4.6559103  
O    2.4474929    1.5122577   -5.4024941  
C    4.6776922    0.8144239   -4.8425431  
O    5.1696063    1.5006866   -5.7281646  
C    5.4870226   -0.0121787   -3.9505986  
H    6.4066170   -1.8999854   -1.7981576  
H    6.5600127   -0.0102589   -4.0862917  
H    2.2064282   -1.7712342   -1.4285629  
C    0.0000000    0.0000000    0.0000000  
C    1.0541688   -0.0001719   -0.8560391  
C    0.5103141   -0.0000449   -2.1935955  
C   -0.9576367    0.0002461   -2.0455733  
N   -1.2018459   -0.0001392   -0.6915970  
C   -1.8348306    0.0008319   -3.0810611  
C   -1.2972842    0.0009739   -4.4314605  
O   -2.0050664    0.0014267   -5.4301321  
C    0.2542628    0.0004190   -4.6117571  
O    0.7184677    0.0002263   -5.7439119  
C    1.0974556    0.0000880   -3.4189127  
H    2.0940752   -0.0005479   -0.5817978  
H   -2.9081050    0.0011669   -2.9507065  
H   -2.1128195    0.0014911   -0.2706793  
C    1.0672568    0.0000697    2.3021913  
C    0.0000000    0.0000000    1.4700000  
C   -1.1601224    0.0000736    2.3478473  
C   -0.5938729    0.0000769    3.7138435  
N    0.7113367    0.0001554    3.6934124  
C   -1.4286986    0.0001879    4.8835240  
C   -2.7683114    0.0006799    4.6970523  
O   -3.6653903    0.0008304    5.6976972  
C   -3.3702025    0.0010610    3.3310774  
O   -4.5974910    0.0013779    3.2362962  
C   -2.4926826    0.0008943    2.1470656  
H   -0.9878360   -0.0000190    5.8697035  
H   -4.5324246    0.0012261    5.2533954  
H   -2.9677772    0.0012974    1.1752040  
H    2.1134392    0.0000545    2.0405121  
