62

C   -1.0406342    0.5644063   -9.0052726  
C   -0.0641026   -0.2749280   -9.4893923  
C   -0.1625263   -0.2511998  -10.9121887  
C   -1.2260028    0.6278228  -11.2412225  
N   -1.7386185    1.1042010  -10.0601608  
C   -1.6070890    0.8935120  -12.5599231  
C   -0.9015562    0.2605332  -13.5647795  
O   -1.2316586    0.4844594  -14.8701161  
C    0.1624139   -0.6202407  -13.2565242  
O    0.7662326   -1.1726626  -14.3671890  
C    0.5387359   -0.8830272  -11.9558118  
H    0.6326712   -0.8362003   -8.8906653  
H   -2.4968330    1.7571544   -9.9780406  
H   -2.4168093    1.5623207  -12.8173169  
H   -0.6241117   -0.0473749  -15.4004985  
H    1.4732675   -1.7542030  -14.0713562  
H    1.3576682   -1.5624995  -11.7505190  
C    0.6605682   -0.7024456   -5.1602328  
C   -0.1387079    0.0017019   -4.3179684  
C   -1.0653110    0.7443398   -5.1393888  
C   -0.7380199    0.4127268   -6.5392829  
N    0.3171094   -0.4684297   -6.4831128  
C   -1.3885281    0.9128902   -7.6201994  
C   -2.4839895    1.8398444   -7.3894272  
O   -3.1316438    2.3448508   -8.2970685  
C   -2.8477044    2.2053532   -5.9150055  
O   -3.7679149    2.9849435   -5.7083362  
C   -2.0739361    1.6016377   -4.8330337  
H   -2.3322391    1.8597480   -3.8150051  
H    1.4717489   -1.3724717   -4.9258386  
H    0.7669206   -0.8798730   -7.2802526  
C    3.3041273    0.0001178   -1.5420428  
C    2.5845373   -0.0004780   -0.3695851  
C    1.2040007   -0.0000007   -0.7283589  
C    1.1422374    0.0006038   -2.1454372  
N    2.4348641    0.0026111   -2.6077464  
C   -0.0655179    0.0008799   -2.8497918  
C   -1.2321766    0.0002325   -2.1101402  
O   -2.4392814    0.0001148   -2.7472522  
C   -1.1911209   -0.0000007   -0.6955266  
O   -2.4371528   -0.0002320   -0.1032862  
C    0.0000000    0.0000000    0.0000000  
H    3.0031533   -0.0000660    0.6222584  
H    2.7054631   -0.0071097   -3.5745261  
H   -3.1132988   -0.0000648   -2.0551787  
H   -2.3200282   -0.0004072    0.8516409  
H    4.3686625    0.0004073   -1.7024290  
C    2.5128556    2.1077716    2.9199648  
C    1.9592212    1.6432552    4.0696553  
C    0.8915788    0.7479214    3.6910360  
C    0.8684491    0.7287414    2.2159470  
N    1.8754542    1.5738793    1.8102719  
C    0.0000000    0.0000000    1.4700000  
C   -0.9772830   -0.8200135    2.1664417  
O   -1.8021297   -1.5120829    1.5842315  
C   -0.9711318   -0.8147624    3.7284083  
O   -1.7894187   -1.5009653    4.3257297  
C    0.0140216    0.0115358    4.4216297  
H    2.2638494    1.8988021    5.0689105  
H    0.0117648    0.0094386    5.5031631  
H    3.3327358    2.7953732    2.7900019  
H    2.1123206    1.7707734    0.8551938  
