64

C    6.2558487    0.7118791   -5.8723987  
C    6.2374848    0.4627483   -7.2251971  
C    7.3028998   -0.4462870   -7.4956519  
C    7.9416269   -0.7187408   -6.2588321  
N    7.2821289    0.0019837   -5.2943446  
C    9.0382481   -1.5788414   -6.1473031  
C    9.4982704   -2.1749935   -7.3053873  
O   10.5658654   -3.0238504   -7.2534672  
C    8.8745201   -1.9154104   -8.5489182  
O    9.4494942   -2.5845433   -9.6095831  
C    7.7928049   -1.0668014   -8.6597306  
H    5.5424542    0.8851965   -7.9305079  
H    9.5295905   -1.7905339   -5.2076379  
H   10.7201315   -3.3242320   -8.1585848  
H    8.9692378   -2.3542812  -10.4107937  
H    7.3358810   -0.8871618   -9.6258716  
H    5.6189757    1.3409016   -5.2743336  
C    4.7161325   -0.0005435   -1.6923264  
C    5.7254239   -0.0020906   -0.7575560  
C    6.9579237   -0.0022114   -1.4755702  
C    6.6349842   -0.0004002   -2.8567410  
N    5.2655550   -0.0013739   -2.9530733  
C    7.6078546    0.0003045   -3.8608874  
C    8.9308324   -0.0005333   -3.4635108  
O    9.9212225    0.0004503   -4.4027334  
C    9.2730454   -0.0027156   -2.0903021  
O   10.6326706   -0.0037315   -1.8562879  
C    8.3138101   -0.0036848   -1.0991455  
H    5.5899962   -0.0041233    0.3104555  
H    4.7441074    0.0100535   -3.8109450  
H   10.7569960   -0.0006818   -3.9182267  
H   10.7775869   -0.0051700   -0.9051826  
H    8.6062648   -0.0055411   -0.0556201  
C    3.2573665   -0.0002920   -1.5109385  
C    2.5379463   -0.0001709   -0.3591964  
C    1.1435038    0.0000331   -0.7338500  
C    1.1092599   -0.0000083   -2.2088477  
N    2.4227553    0.0001909   -2.6182613  
C   -0.0265539   -0.0002524   -2.9515660  
C   -1.3003040   -0.0002640   -2.2514977  
O   -2.3786790   -0.0004133   -2.8306421  
C   -1.2877727    0.0000311   -0.6895603  
O   -2.3539959    0.0003306   -0.0892030  
C    0.0000000    0.0000000    0.0000000  
H    2.9384091   -0.0000367    0.6389234  
H   -0.0296303   -0.0004086   -4.0327229  
H    2.7280482   -0.0013407   -3.5742119  
C    0.8576279    0.7185626    2.2703808  
C    0.0000000    0.0000000    1.4700000  
C   -0.8668858   -0.7285659    2.3373528  
C   -0.4876752   -0.4117774    3.6669281  
N    0.5635254    0.4678311    3.5902241  
C   -1.1297612   -0.9515493    4.7854808  
C   -2.1738724   -1.8268314    4.5576857  
O   -2.8357962   -2.3827064    5.6140350  
C   -2.5667212   -2.1555554    3.2384331  
O   -3.6226318   -3.0413663    3.1773122  
C   -1.9335634   -1.6236449    2.1344818  
H    1.0363952    0.8769718    4.3757045  
H   -0.8454472   -0.7142436    5.8013813  
H   -3.5178062   -2.9546422    5.2385129  
H   -3.8247440   -3.2102924    2.2519915  
H   -2.2566033   -1.8942483    1.1360343  
H    1.6567807    1.3889844    2.0042067  
