60

C    9.8939644    2.1243831   -6.7150040  
C    8.9011767    1.6624211   -5.8822781  
C    9.5181627    0.7757299   -4.9507699  
C   10.9003818    0.7360574   -5.2667182  
N   11.0941321    1.5646574   -6.3439832  
C   11.8177451   -0.0394278   -4.5512777  
C   11.3309489   -0.7882745   -3.4975059  
O   12.1832298   -1.5630614   -2.7651563  
C    9.9551046   -0.7621822   -3.1670676  
O    9.6263106   -1.5622663   -2.0923104  
C    9.0494870    0.0024126   -3.8726011  
H    7.8601384    1.9305835   -5.9399045  
H   11.9775870    1.7461668   -6.7850508  
H   12.8724341   -0.0741176   -4.7871357  
H   11.6459607   -1.9959277   -2.0889667  
H    8.6800609   -1.4872295   -1.9355120  
H    9.8406877    2.8077474   -7.5451443  
C    6.5739141    0.0018721   -4.3537910  
C    7.6280828    0.0019468   -3.4977523  
C    7.0842285    0.0017734   -2.1601955  
C    5.6162780    0.0015609   -2.3082178  
N    5.3720684    0.0020314   -3.6621941  
C    4.7390840    0.0009613   -1.2727298  
C    5.2766310    0.0007199    0.0776697  
O    4.5688485    0.0002467    1.0763412  
C    6.8281783    0.0011904    0.2579660  
O    7.2923831    0.0012992    1.3901206  
C    7.6713704    0.0015458   -0.9348786  
H    8.7446430    0.0016650   -0.8014249  
H    6.5739141    0.0019306   -5.4317008  
H    4.4610948    0.0004680   -4.0831113  
C    3.2798077    0.0005856   -1.4499661  
C    2.5571132    0.0005565   -2.5996564  
C    1.1637425    0.0001547   -2.2210366  
C    1.1336959   -0.0000200   -0.7459475  
N    2.4483509   -0.0001429   -0.3402730  
C    0.0000000    0.0000000    0.0000000  
C   -1.2757370   -0.0000187   -0.6964411  
O   -2.3524597   -0.0000640   -0.1142306  
C   -1.2676502   -0.0000874   -2.2584078  
O   -2.3355774   -0.0004102   -2.8557287  
C    0.0181551    0.0001758   -2.9516297  
H    2.9547342    0.0006074   -3.5989118  
H    0.0150776    0.0003317   -4.0331632  
H    2.7563626    0.0012823    0.6148051  
C    0.8400945    0.7047457    2.2710304  
C    0.0000000    0.0000000    1.4700000  
C   -0.8844236   -0.7423113    2.3369512  
C   -0.4878984   -0.4098547    3.7186280  
N    0.5629682    0.4714286    3.6095011  
C   -1.0836927   -0.9095027    4.8308716  
C   -2.1891196   -1.8367527    4.6554461  
O   -2.7906899   -2.3413415    5.5944904  
C   -2.6257283   -2.2031529    3.2011665  
O   -3.5549479   -2.9829990    3.0410059  
C   -1.9068976   -1.5999348    2.0816745  
H   -0.7774656   -0.6525820    5.8354244  
H   -2.2155208   -1.8586617    1.0779135  
H    1.6384792    1.3747609    1.9961646  
H    1.0518368    0.8833920    4.3830260  
