60

C    6.1310219   -2.1146959   -1.6340979  
C    7.4128806   -1.6153960   -1.6363628  
C    7.5169129   -0.7404121   -2.7580486  
C    6.2563166   -0.7455917   -3.4082763  
N    5.4386610   -1.5917379   -2.7011031  
C    5.9945976    0.0077625   -4.5566444  
C    7.0241082    0.7806560   -5.0575648  
O    6.8228043    1.5359998   -6.1764687  
C    8.2890077    0.7987721   -4.4231208  
O    9.2101021    1.6177038   -5.0430242  
C    8.5479913    0.0556123   -3.2903516  
H    8.1790848   -1.8534855   -0.9185612  
H    4.4786888   -1.7883506   -2.9196841  
H    7.6567718    1.9906689   -6.3526503  
H   10.0362440    1.5725273   -4.5520545  
H    9.5268317    0.0895536   -2.8264585  
H    5.6562614   -2.8035891   -0.9566129  
C    1.7334697    0.0049246   -3.2500361  
C    3.0863258    0.0047395   -3.2131614  
C    3.4995613    0.0065854   -4.6080567  
C    2.2333973    0.0076339   -5.3718701  
N    1.1947442    0.0067482   -4.5811810  
C    2.2116358    0.0095928   -6.8087451  
C    3.4007181    0.0108539   -7.4532716  
O    3.5293452    0.0127176   -8.7909908  
C    4.6955643    0.0102154   -6.7106176  
O    5.7398288    0.0113176   -7.3623315  
C    4.6914550    0.0081545   -5.2368793  
H    3.7249597    0.0035934   -2.3464312  
H    1.2717200    0.0101175   -7.3411622  
H    4.4909169    0.0132660   -8.9476192  
C    1.1319247    0.0015655   -0.8009267  
C    0.7969916    0.0034943   -2.1169401  
C   -0.6453337    0.0035710   -2.1842668  
C   -1.1266832    0.0015433   -0.7896026  
N    0.0000000    0.0000000    0.0000000  
C   -2.4346130    0.0013964   -0.4276294  
C   -3.4350109    0.0031408   -1.4820183  
O   -4.6384610    0.0030973   -1.2583915  
C   -2.9478956    0.0050505   -2.9661075  
O   -3.7809378    0.0062218   -3.8623775  
C   -1.5113821    0.0053090   -3.2312122  
H   -2.7664565    0.0000232    0.6013446  
H   -1.1823527    0.0068407   -4.2614846  
H    2.1104317    0.0009391   -0.3488056  
C    0.8175213    0.6860729    2.3021913  
C    0.0000000    0.0000000    1.4700000  
C   -0.8887526   -0.7456559    2.3478473  
C   -0.4549825   -0.3816753    3.7138435  
N    0.5448156    0.4573574    3.6934124  
C   -1.0945674   -0.9182058    4.8835240  
C   -2.1210866   -1.7789155    4.6970523  
O   -2.8083856   -2.3554314    5.6976972  
C   -2.5824069   -2.1655116    3.3310774  
O   -3.5227682   -2.9541547    3.2362962  
C   -1.9100805   -1.6015804    2.1470656  
H   -0.7567140   -0.6349833    5.8697035  
H   -3.4728268   -2.9124471    5.2533954  
H   -2.2742832   -1.9066565    1.1752040  
H    1.6189533    1.3585343    2.0405121  
