62

C    4.1463353    0.6296484   -8.6040916  
C    5.2404973   -0.2009872   -8.6770442  
C    5.7127572   -0.1503328  -10.0220361  
C    4.8601298    0.7353940  -10.7294542  
N    3.9188517    1.1896937   -9.8393850  
C    5.0299401    1.0261722  -12.0864368  
C    6.0797770    0.4118546  -12.7411392  
O    6.2914130    0.6605941  -14.0664132  
C    6.9410876   -0.4752308  -12.0526334  
O    7.9388068   -1.0069458  -12.8433167  
C    6.7739981   -0.7627642  -10.7140039  
H    5.6474618   -0.7738905   -7.8614737  
H    3.1855016    1.8414409  -10.0524691  
H    4.3834796    1.7002152  -12.6313758  
H    7.0628699    0.1385017  -14.3224190  
H    8.4751517   -1.5943993  -12.3021739  
H    7.4496025   -1.4464907  -10.2134486  
C    4.1935182   -0.7177397   -4.3920615  
C    3.1006054    0.0006263   -3.9654951  
C    2.6156864    0.7290728   -5.0919139  
C    3.4596601    0.4124174   -6.1870684  
N    4.4081828   -0.4670001   -5.7271261  
C    3.2765219    0.9521235   -7.4637701  
C    2.2220072    1.8272015   -7.6381675  
O    1.9974358    2.3830042   -8.8644082  
C    1.3691758    2.1557904   -6.5576468  
O    0.3653186    3.0414031   -6.8912717  
C    1.5494153    1.6239446   -5.2978134  
H    5.1380330   -0.8760161   -6.2821091  
H    1.2248040    2.9547960   -8.7676622  
H   -0.1646158    3.2102480   -6.1062464  
H    0.8800662    1.8944410   -4.4895550  
H    4.8377618   -1.3880262   -3.8492675  
C    3.2798083    0.0005857   -1.4499652  
C    2.5571142    0.0005565   -2.5996556  
C    1.1637432    0.0001548   -2.2210361  
C    1.1336964   -0.0000200   -0.7459473  
N    2.4483512   -0.0001428   -0.3402723  
C    0.0000000    0.0000000    0.0000000  
C   -1.2757368   -0.0000186   -0.6964415  
O   -2.3524598   -0.0000639   -0.1142311  
C   -1.2676497   -0.0000872   -2.2584083  
O   -2.3355766   -0.0004101   -2.8557295  
C    0.0181558    0.0001758   -2.9516296  
H    0.0150788    0.0003319   -4.0331631  
H    4.3498547    0.0008612   -1.3200026  
H    2.7563626    0.0012823    0.6148059  
C    0.0000000    0.0000000    1.4700000  
C    1.0541688    0.0001722    2.3260392  
C    0.5103138    0.0000454    3.6635956  
C   -0.9576371   -0.0002459    3.5155732  
N   -1.2018458    0.0001392    2.1615969  
C   -1.8348311   -0.0008317    4.5510609  
C   -1.2972847   -0.0009736    5.9014604  
O   -2.0050672   -0.0014265    6.9001319  
C    0.2542623   -0.0004184    6.0817573  
O    0.7184670   -0.0002256    7.2139121  
C    1.0974552   -0.0000873    4.8889129  
H    2.0940752    0.0005483    2.0517982  
H   -2.9081052   -0.0011668    4.4207061  
H    2.1707277    0.0000911    5.0223670  
H   -2.1128194   -0.0014912    1.7406791  
