62

C    6.9128532   -1.8283879   -6.6658104  
C    8.0198025   -2.6348705   -6.7951021  
C    8.4569657   -2.5280535   -8.1486444  
C    7.5707339   -1.6345353   -8.8029722  
N    6.6440839   -1.2298199   -7.8744569  
C    7.7009093   -1.2931512  -10.1525286  
C    8.7449260   -1.8639347  -10.8542509  
O    8.9184741   -1.5648678  -12.1746494  
C    9.6393845   -2.7579809  -10.2190799  
O   10.6263691   -3.2424554  -11.0524402  
C    9.5114059   -3.0954269   -8.8878110  
H    8.4576082   -3.2281337   -6.0106537  
H    5.8938179   -0.5851494   -8.0461590  
H    7.0287089   -0.6129026  -10.6571181  
H    9.6926246   -2.0628073  -12.4679289  
H   11.1868316   -3.8381577  -10.5458592  
H   10.2117931   -3.7832375   -8.4286244  
C    6.2380163   -2.1231806   -4.2495877  
C    5.2558084   -1.6611809   -3.4044311  
C    4.4368139   -0.7737769   -4.1636163  
C    4.9722983   -0.7337288   -5.4764673  
N    6.0663542   -1.5628010   -5.4937160  
C    4.4150850    0.0424759   -6.4971576  
C    3.2967538    0.7916693   -6.1869598  
O    2.7123217    1.5671591   -7.1461626  
C    2.7480080    0.7652114   -4.8827381  
O    1.6345598    1.5657145   -4.7318327  
C    3.2973506   -0.0000934   -3.8752374  
H    5.1440869   -1.9297761   -2.3679137  
H    4.8185283    0.0774550   -7.4997596  
H    1.9582890    2.0001609   -6.7251999  
H    1.3266650    1.4903898   -3.8234656  
H    7.0482933   -2.8069878   -4.0629900  
C    3.3321174    0.0004714   -1.3379332  
C    2.6974186    0.0000115   -2.5332308  
C    1.2800441   -0.0002119   -2.2052838  
C    1.2395035    0.0000643   -0.7271293  
N    2.4394063    0.0005458   -0.2131034  
C    0.0000000    0.0000000    0.0000000  
C   -1.1468701    0.0000634   -0.7169542  
O   -2.3742201    0.0000072   -0.1695492  
C   -1.1388767    0.0001606   -2.2096354  
O   -2.2206229    0.0000903   -2.7970413  
C    0.1454526    0.0001815   -2.9324239  
H   -2.9844344    0.0001023   -0.9290168  
H    0.1083580    0.0003680   -4.0135594  
H    4.3940040    0.0007617   -1.1498630  
C    0.8175213    0.6860729    2.3021913  
C    0.0000000    0.0000000    1.4700000  
C   -0.8887526   -0.7456559    2.3478473  
C   -0.4549825   -0.3816753    3.7138435  
N    0.5448156    0.4573574    3.6934124  
C   -1.0945674   -0.9182058    4.8835240  
C   -2.1210866   -1.7789155    4.6970523  
O   -2.8083856   -2.3554314    5.6976972  
C   -2.5824069   -2.1655116    3.3310774  
O   -3.5227682   -2.9541547    3.2362962  
C   -1.9100805   -1.6015804    2.1470656  
H   -0.7567140   -0.6349833    5.8697035  
H   -3.4728268   -2.9124471    5.2533954  
H   -2.2742832   -1.9066565    1.1752040  
H    1.6189533    1.3585343    2.0405121  
