60

C    5.2201946   -2.9349110   -7.1486837  
C    4.3264341   -1.9733654   -6.7374786  
C    4.7258653   -0.7464110   -7.3454576  
C    5.8792176   -1.0234303   -8.1232514  
N    6.1533970   -2.3609329   -7.9799666  
C    6.5449539   -0.0426046   -8.8645781  
C    6.0369585    1.2411962   -8.8201543  
O    6.6479336    2.2372595   -9.5255484  
C    4.8874456    1.5373839   -8.0496289  
O    4.5053636    2.8617597   -8.1078193  
C    4.2303297    0.5703295   -7.3178294  
H    3.4901695   -2.1360239   -6.0793025  
H    6.9097968   -2.8491557   -8.4243519  
H    7.4245391   -0.2472615   -9.4592606  
H    6.1400530    3.0417367   -9.3578037  
H    3.7223562    2.9767323   -7.5607506  
H    5.2666721   -3.9844590   -6.9136359  
C    2.8912669   -0.6998115   -3.3332351  
C    1.7334695    0.0049281   -3.2500363  
C    1.6041102    0.7488995   -4.4807305  
C    2.7899385    0.4174236   -5.2935812  
N    3.5303612   -0.4649349   -4.5411803  
C    3.0393026    0.9187046   -6.5298013  
C    2.0755510    1.8468028   -7.0975619  
O    2.2101249    2.3528611   -8.2039503  
C    0.8125767    2.2121885   -6.2542380  
O   -0.0056406    2.9927353   -6.7217081  
C    0.6534234    1.6072169   -4.9341882  
H   -0.2239001    1.8652504   -4.3567402  
H    3.3315067   -1.3708305   -2.6136436  
H    4.3999325   -0.8765954   -4.8265370  
C    1.1319246    0.0015678   -0.8009268  
C    0.7969914    0.0034958   -2.1169401  
C   -0.6453340    0.0035696   -2.1842669  
C   -1.1266832    0.0015410   -0.7896025  
N    0.0000000    0.0000000    0.0000000  
C   -2.4346129    0.0013913   -0.4276292  
C   -3.4350111    0.0031335   -1.4820181  
O   -4.6384614    0.0030875   -1.2583914  
C   -2.9478961    0.0050442   -2.9661074  
O   -3.7809382    0.0062135   -3.8623773  
C   -1.5113825    0.0053055   -3.2312122  
H   -2.7664565    0.0000174    0.6013448  
H   -1.1823533    0.0068381   -4.2614848  
H    2.1104316    0.0009435   -0.3488059  
C    0.8175213    0.6860729    2.3021913  
C    0.0000000    0.0000000    1.4700000  
C   -0.8887526   -0.7456559    2.3478473  
C   -0.4549825   -0.3816753    3.7138435  
N    0.5448156    0.4573574    3.6934124  
C   -1.0945674   -0.9182058    4.8835240  
C   -2.1210866   -1.7789155    4.6970523  
O   -2.8083856   -2.3554314    5.6976972  
C   -2.5824069   -2.1655116    3.3310774  
O   -3.5227682   -2.9541547    3.2362962  
C   -1.9100805   -1.6015804    2.1470656  
H   -0.7567140   -0.6349833    5.8697035  
H   -3.4728268   -2.9124471    5.2533954  
H   -2.2742832   -1.9066565    1.1752040  
H    1.6189533    1.3585343    2.0405121  
