66

C   -4.7577222    0.0041170   -1.7610414  
C   -5.7908160    0.0076219   -0.8526514  
C   -7.0043615    0.0076314   -1.6022564  
C   -6.6458624    0.0037378   -2.9746225  
N   -5.2744018    0.0036320   -3.0355572  
C   -7.5924774    0.0023568   -4.0035576  
C   -8.9252742    0.0046468   -3.6404820  
O   -9.8910793    0.0030865   -4.6049668  
C   -9.3028352    0.0089140   -2.2765734  
O  -10.6680482    0.0111879   -2.0777523  
C   -8.3695153    0.0105516   -1.2609766  
H   -5.6830130    0.0109976    0.2184975  
H   -4.7309822   -0.0093112   -3.8796596  
H  -10.7390859    0.0054501   -4.1422085  
H  -10.8374787    0.0140068   -1.1307100  
H   -8.6888204    0.0140149   -0.2253556  
C   -3.3041279    0.0030977   -1.5420399  
C   -2.5845362    0.0029931   -0.3695828  
C   -1.2040010    0.0011725   -0.7283576  
C   -1.1422400    0.0005079   -2.1454361  
N   -2.4348682   -0.0002414   -2.6077441  
C    0.0655140   -0.0009435   -2.8497920  
C    1.2321734   -0.0014315   -2.1101413  
O    2.4392770   -0.0024884   -2.7472544  
C    1.1911195   -0.0011583   -0.6955276  
O    2.4371506   -0.0021397   -0.1032884  
C    0.0000000    0.0000000    0.0000000  
H   -3.0031518    0.0029885    0.6222611  
H   -2.7054585    0.0097428   -3.5745234  
H    0.1193490   -0.0016004   -3.9297474  
H    3.1132953   -0.0029647   -2.0551816  
H    2.3200275   -0.0018506    0.8516388  
C   -7.2298419   -0.0014770   -5.4281210  
C   -5.9915691   -0.0054746   -6.0273975  
C   -6.2111140   -0.0086368   -7.4367912  
C   -7.6149994   -0.0060699   -7.6393392  
N   -8.2037093   -0.0036878   -6.3991650  
C   -8.1956077   -0.0077775   -8.9112195  
C   -7.3434795   -0.0118491   -9.9984348  
O   -7.8572435   -0.0133191  -11.2629736  
C   -5.9399854   -0.0148343   -9.8167353  
O   -5.2266341   -0.0191786  -10.9976059  
C   -5.3665057   -0.0134253   -8.5622854  
H   -5.0463360   -0.0071470   -5.5121074  
H   -9.1925982    0.0089957   -6.2261925  
H   -9.2648359   -0.0059825   -9.0723139  
H   -7.1015053   -0.0164879  -11.8647324  
H   -4.2881154   -0.0209476  -10.7859855  
H   -4.2881603   -0.0159714   -8.4543827  
C    2.5311839    2.1237619    3.0120429  
C    1.9795631    1.6616747    1.8395852  
C    0.9223175    0.7739173    2.1983588  
C    0.8753926    0.7337535    3.6154372  
N    1.8668922    1.5631002    4.0777464  
C   -0.0496243   -0.0427881    4.3197917  
C   -0.9437528   -0.7922060    3.5801400  
O   -1.8685244   -1.5680278    4.2172520  
C   -0.9124520   -0.7656372    2.1655264  
O   -1.8671164   -1.5663939    1.5732860  
C    0.0000000    0.0000000    1.4700000  
H    2.3005065    1.9304404    0.8477417  
H    2.0679347    1.7444845    5.0445261  
H   -0.0904770   -0.0778569    5.3997470  
H   -2.3849669   -2.0011402    3.5251786  
H   -1.7775064   -1.4909735    0.6183591  
H    3.3468514    2.8078103    3.1724291  
