60

C    4.5679369    0.0003569    4.7246895  
C    5.6736317    0.0000857    5.5431675  
C    6.8199787   -0.0008523    4.6943518  
C    6.3475553   -0.0008317    3.3569136  
N    4.9758198   -0.0020396    3.4113070  
C    7.2044671   -0.0013309    2.2521554  
C    8.5630367   -0.0015537    2.5020867  
O    9.4444813   -0.0016899    1.4599394  
C    9.0537449   -0.0019540    3.8294984  
O   10.4308311   -0.0025609    3.9130338  
C    8.2089621   -0.0017350    4.9198498  
H    5.6561170   -0.0005934    6.6195908  
H    4.3634571    0.0082497    2.6157648  
H   10.3283363   -0.0021351    1.8498925  
H   10.6791530   -0.0027729    4.8425182  
H    8.6140659   -0.0022346    5.9250213  
H    3.5206198    0.0006244    4.9738578  
C    6.7235408   -0.0015094    0.8630512  
C    5.4473216   -0.0011276    0.3990033  
C    5.5236519   -0.0015785   -1.0428735  
C    6.9592470   -0.0022883   -1.3832528  
N    7.6329841   -0.0018115   -0.1836830  
C    7.4493963   -0.0032606   -2.6487389  
C    6.4996345   -0.0034066   -3.7489602  
O    6.8417402   -0.0041912   -4.9242320  
C    4.9744852   -0.0024120   -3.4117301  
O    4.1654296   -0.0022186   -4.3297116  
C    4.5679461   -0.0016854   -2.0086701  
H    4.5543636   -0.0004090    0.9983692  
H    8.5062543   -0.0038991   -2.8766912  
H    8.6315332   -0.0036617   -0.0839633  
C    3.1301149   -0.0010311   -1.7028252  
C    2.5367768   -0.0002767   -0.4864665  
C    1.1089904    0.0001028   -0.7656183  
C    1.0177872   -0.0004148   -2.2415132  
N    2.1993578   -0.0011611   -2.7963820  
C   -0.2459209   -0.0002877   -2.9257118  
C   -1.3675319   -0.0000605   -2.1698524  
O   -2.6129313    0.0000867   -2.6748490  
C   -1.3083584    0.0000910   -0.6783232  
O   -2.3693261    0.0004206   -0.0541692  
C    0.0000000    0.0000000    0.0000000  
H    3.0096017   -0.0001007    0.4807525  
H   -0.2829630   -0.0004687   -4.0053125  
H   -3.1967441    0.0002094   -1.8949034  
C    2.4951002    2.0940188    2.9809380  
C    1.9440701    1.6314916    1.8291961  
C    0.8759964    0.7350050    2.2038498  
C    0.8497377    0.7130254    3.6788474  
N    1.8560616    1.5571714    4.0882609  
C   -0.0205033   -0.0168748    4.4215661  
C   -0.9962600   -0.8356168    3.7214979  
O   -1.8224391   -1.5286685    4.3006425  
C   -0.9864710   -0.8277881    2.1595606  
O   -1.8030528   -1.5133726    1.5592035  
C    0.0000000    0.0000000    1.4700000  
H    2.2509283    1.8888011    0.8310761  
H   -0.0229599   -0.0187323    5.5027230  
H    3.3143982    2.7817323    3.1139444  
H    2.0889452    1.7545833    5.0442112  
