64

C    2.8233664   -0.7205607   -3.3382292  
C    3.4268661   -0.4842994   -4.5516688  
C    2.5842328    0.4170778   -5.2672726  
C    1.4720842    0.6983393   -4.4330402  
N    1.6478441   -0.0100103   -3.2702994  
C    0.4355979    1.5542918   -4.8175285  
C    0.5235710    2.1371635   -6.0668078  
O   -0.4608988    2.9814396   -6.4922850  
C    1.6251367    1.8686375   -6.9137216  
O    1.5672663    2.5248764   -8.1258871  
C    2.6478820    1.0241123   -6.5351770  
H    4.3591355   -0.9101967   -4.8810315  
H   -0.4148219    1.7726465   -4.1864115  
H   -0.2071854    3.2724183   -7.3778505  
H    2.3476242    2.2892251   -8.6368809  
H    3.1377238   -1.3408256   -2.5163961  
C    1.1188644    0.0008222   -0.8003802  
C    0.0000000    0.0000000    0.0000000  
C   -1.1323859    0.0008892   -0.8673531  
C   -0.6382655    0.0019669   -2.1969283  
N    0.7324019    0.0038477   -2.1202237  
C   -1.4770904    0.0027303   -3.3154812  
C   -2.8395467    0.0020925   -3.0876865  
O   -3.7039188    0.0024401   -4.1440357  
C   -3.3517866    0.0013913   -1.7684335  
O   -4.7300494    0.0012345   -1.7073130  
C   -2.5248543    0.0009112   -0.6644822  
H   -1.1067560    0.0036971   -4.3313815  
H   -4.5940025    0.0021802   -3.7685138  
H   -4.9934597    0.0007243   -0.7819929  
H   -2.9462580    0.0005593    0.3339652  
H    2.1619896    0.0009358   -0.5342059  
C    4.3859056   -0.4474935   -7.6279196  
C    5.4097187   -0.3093238   -8.5363158  
C    5.4333970    1.0609615   -8.9317365  
C    4.3922441    1.7160141   -8.2254546  
N    3.7749258    0.7708419   -7.4443116  
C    4.1226753    3.0803476   -8.3693803  
C    4.9188387    3.7965177   -9.2419645  
O    4.6993856    5.1318549   -9.4200905  
C    5.9622839    3.1607084   -9.9559560  
O    6.6652817    4.0093243  -10.7860099  
C    6.2286167    1.8147401   -9.8146686  
H    6.0588477   -1.0992530   -8.8734149  
H    3.3305470    3.5855055   -7.8340763  
H    5.3561086    5.4333474  -10.0612468  
H    7.3508329    3.5012254  -11.2303729  
H    7.0345104    1.3553680  -10.3750175  
H    4.0422372   -1.3190069   -7.0975277  
C    2.4951002    2.0940188    2.9809380  
C    1.9440701    1.6314916    1.8291961  
C    0.8759964    0.7350050    2.2038498  
C    0.8497377    0.7130254    3.6788474  
N    1.8560616    1.5571714    4.0882609  
C   -0.0205033   -0.0168748    4.4215661  
C   -0.9962600   -0.8356168    3.7214979  
O   -1.8224391   -1.5286685    4.3006425  
C   -0.9864710   -0.8277881    2.1595606  
O   -1.8030528   -1.5133726    1.5592035  
C    0.0000000    0.0000000    1.4700000  
H    2.2509283    1.8888011    0.8310761  
H   -0.0229599   -0.0187323    5.5027230  
H    3.3143982    2.7817323    3.1139444  
H    2.0889452    1.7545833    5.0442112  
