64

C    3.3003547    0.0005275   -1.4738980  
C    2.5232816    0.0003495   -2.6090742  
C    1.1623206   -0.0001320   -2.1820096  
C    1.1711889    0.0000583   -0.7636136  
N    2.4852300   -0.0014920   -0.3662353  
C    0.0000000    0.0000000    0.0000000  
C   -1.2020382    0.0000519   -0.6806479  
O   -2.3759247    0.0003494    0.0157745  
C   -1.2314650   -0.0005113   -2.0955508  
O   -2.5054383   -0.0008037   -2.6250181  
C   -0.0764510   -0.0007273   -2.8495192  
H    2.8919962   -0.0005621   -3.6205295  
H    2.8036265    0.0088181    0.5858667  
H   -3.0835641    0.0000347   -0.6418820  
H   -2.4360047   -0.0011529   -3.5845921  
C    6.5582218    0.0029724   -4.4647471  
C    7.6103889    0.0023857   -3.5785129  
C    7.0499440    0.0016137   -2.2668342  
C    5.6394785    0.0014820   -2.4168795  
N    5.3749057    0.0042714   -3.7639545  
C    4.7630506    0.0004754   -1.3275394  
C    5.3206369   -0.0007212   -0.0637066  
O    4.5107984   -0.0020883    1.0350081  
C    6.7255803   -0.0002355    0.1064484  
O    7.1255744   -0.0011494    1.4268070  
C    7.5907996    0.0010305   -0.9677582  
H    8.6535293    0.0036053   -3.8446895  
H    4.4592359   -0.0057082   -4.1755733  
H    5.0947319   -0.0024567    1.8046099  
H    8.0872944   -0.0007697    1.4532573  
H    8.6624386    0.0015568   -0.8063008  
H    6.5582220    0.0040130   -5.5412965  
C    0.6672015   -0.7204490   -5.1593827  
C   -0.1496409   -0.0015614   -4.3176961  
C   -1.0587663    0.7263816   -5.1412187  
C   -0.7461677    0.4088959   -6.4878484  
N    0.3077053   -0.4705107   -6.4630860  
C   -1.4432453    0.9479362   -7.5733466  
C   -2.4748764    1.8231902   -7.2943382  
O   -3.1886730    2.3783662   -8.3167319  
C   -2.8016123    2.1526038   -5.9573459  
O   -3.8533284    3.0382902   -5.8442232  
C   -2.1141800    1.6214150   -4.8859911  
H    0.7409535   -0.8800258   -7.2709067  
H   -1.2098223    0.7100969   -8.6020097  
H   -3.8512426    2.9504124   -7.9080383  
H   -4.0091493    3.2077108   -4.9100819  
H   -2.3871560    1.8925362   -3.8728494  
H    1.4787355   -1.3905993   -4.9329527  
C    2.4951002    2.0940188    2.9809380  
C    1.9440701    1.6314916    1.8291961  
C    0.8759964    0.7350050    2.2038498  
C    0.8497377    0.7130254    3.6788474  
N    1.8560616    1.5571714    4.0882609  
C   -0.0205033   -0.0168748    4.4215661  
C   -0.9962600   -0.8356168    3.7214979  
O   -1.8224391   -1.5286685    4.3006425  
C   -0.9864710   -0.8277881    2.1595606  
O   -1.8030528   -1.5133726    1.5592035  
C    0.0000000    0.0000000    1.4700000  
H    2.2509283    1.8888011    0.8310761  
H   -0.0229599   -0.0187323    5.5027230  
H    3.3143982    2.7817323    3.1139444  
H    2.0889452    1.7545833    5.0442112  
