62

C    7.0948290    0.5211534   -5.0523494  
C    7.6198384   -0.3298608   -4.1075703  
C    9.0328076   -0.3471206   -4.3020470  
C    9.3140000    0.5200874   -5.3886962  
N    8.1149954    1.0291568   -5.8221160  
C   10.6109118    0.7471368   -5.8590765  
C   11.6427877    0.0869490   -5.2206697  
O   12.9286327    0.2727324   -5.6391195  
C   11.3822978   -0.7826041   -4.1349259  
O   12.5151050   -1.3654946   -3.6054615  
C   10.1030877   -1.0072767   -3.6705260  
H    7.0539088   -0.8724136   -3.3697676  
H    8.0003697    1.6827562   -6.5755419  
H   10.8318487    1.4067530   -6.6869029  
H   13.4835601   -0.2729353   -5.0667844  
H   12.2513681   -1.9369719   -2.8778206  
H    9.9344311   -1.6790286   -2.8369900  
C    3.4298636   -0.6917983   -3.0313912  
C    2.4861704   -0.0045255   -3.7159919  
C    3.2229047    0.7397800   -4.7258098  
C    4.6377453    0.3737857   -4.5002911  
N    4.7652643   -0.4651682   -3.5083813  
C    5.6998704    0.9085430   -5.3071432  
C    5.3638091    1.7694809   -6.2946570  
O    6.2517354    2.3444730   -7.1235185  
C    3.9449184    2.1580889   -6.5474274  
O    3.7122537    2.9468275   -7.4633852  
C    2.8734592    1.5959541   -5.7060567  
H    5.7142190    2.9021186   -7.7145014  
H    1.8586323    1.9024603   -5.9214876  
H    3.2895182   -1.3638312   -2.1997370  
C    0.0000000    0.0000000    0.0000000  
C    1.0521669   -0.0011848   -0.8862341  
C    0.4917221   -0.0011931   -2.1979130  
C   -0.9187427    0.0003100   -2.0478683  
N   -1.1833170   -0.0009472   -0.7007915  
C   -1.7951698    0.0010259   -3.1372090  
C   -1.2375835    0.0005161   -4.4010425  
O   -2.0474208    0.0015256   -5.4997580  
C    0.1673584   -0.0013557   -4.5711962  
O    0.5673529   -0.0020659   -5.8915551  
C    1.0325773   -0.0023359   -3.4969890  
H    2.0953059   -0.0030542   -0.6200560  
H   -2.0989777    0.0102265   -0.2891825  
H   -2.8710930    0.0020274   -3.0295514  
H   -1.4634881    0.0006427   -6.2693593  
H    1.5290715   -0.0033076   -5.9180042  
C    3.2798086   -0.0005857    2.9199648  
C    2.5571146   -0.0005566    4.0696553  
C    1.1637436   -0.0001548    3.6910360  
C    1.1336965    0.0000200    2.2159470  
N    2.4483514    0.0001428    1.8102719  
C    0.0000000    0.0000000    1.4700000  
C   -1.2757367    0.0000186    2.1664417  
O   -2.3524596    0.0000640    1.5842315  
C   -1.2676493    0.0000873    3.7284083  
O   -2.3355761    0.0004100    4.3257297  
C    0.0181563   -0.0001760    4.4216297  
H    2.9547357   -0.0006076    5.0689105  
H    0.0150794   -0.0003319    5.5031631  
H    4.3498549   -0.0008612    2.7900019  
H    2.7563627   -0.0012824    0.8551938  
