62

C   -4.0110777    0.7090327   -6.3521294  
C   -5.3587636    0.4587546   -6.4686320  
C   -5.5209961   -0.4500499   -7.5559933  
C   -4.2264888   -0.7211872   -8.0684977  
N   -3.3330910    0.0000658   -7.3160011  
C   -4.0055727   -1.5807222   -9.1488614  
C   -5.1115758   -2.1776512   -9.7221071  
O   -4.9528729   -3.0260052  -10.7795206  
C   -6.4112592   -1.9193842   -9.2251769  
O   -7.4088174   -2.5891629   -9.9031283  
C   -6.6299672   -1.0713337   -8.1595769  
H   -6.1301413    0.8803096   -5.8471330  
H   -3.0214704   -1.7914111   -9.5442790  
H   -5.8378682   -3.3270825  -11.0232410  
H   -8.2540651   -2.3597824   -9.5049508  
H   -7.6369590   -0.8927047   -7.8010550  
H   -3.4799478    1.3382848   -5.6586587  
C   -0.0307354   -0.0004645   -4.4215603  
C    1.0209938   -0.0006523   -5.2805949  
C    0.4733355   -0.0007745   -6.6165991  
C   -0.9941883   -0.0006122   -6.4644009  
N   -1.2345441   -0.0008266   -5.1097353  
C   -1.8743248   -0.0002659   -7.4973884  
C   -1.3406225   -0.0002638   -8.8493122  
O   -2.0512433   -0.0000278   -9.8459652  
C    0.2104054   -0.0006861   -9.0340223  
O    0.6713873   -0.0009947  -10.1674938  
C    1.0569888   -0.0007584   -7.8435816  
H    2.0616762   -0.0008821   -5.0093140  
H    2.1298771   -0.0008461   -7.9800887  
H   -2.1443165    0.0007711   -4.6862276  
C    3.2573669   -0.0002919   -1.5109381  
C    2.5379467   -0.0001709   -0.3591962  
C    1.1435042    0.0000332   -0.7338501  
C    1.1092607   -0.0000081   -2.2088477  
N    2.4227561    0.0001910   -2.6182614  
C   -0.0265534   -0.0002522   -2.9515663  
C   -1.3003036   -0.0002639   -2.2514981  
O   -2.3786785   -0.0004131   -2.8306428  
C   -1.2877726    0.0000312   -0.6895608  
O   -2.3539957    0.0003306   -0.0892035  
C    0.0000000    0.0000000    0.0000000  
H    2.9384091   -0.0000368    0.6389238  
H    4.3270391   -0.0004764   -1.6439447  
H    2.7280492   -0.0013405   -3.5742114  
C    2.5285572    2.1210227    2.9438989  
C    1.9331703    1.6216660    4.0790748  
C    0.8903039    0.7472258    3.6520102  
C    0.8972198    0.7527806    2.2336141  
N    1.9028376    1.5986179    1.8362361  
C    0.0000000    0.0000000    1.4700000  
C   -0.9207814   -0.7726952    2.1506477  
O   -1.8198395   -1.5274828    1.4542253  
C   -0.9436862   -0.7911793    3.5655508  
O   -1.9197945   -1.6098497    4.0950179  
C   -0.0590329   -0.0485852    4.3195194  
H    2.2150357    1.8593692    5.0905303  
H    2.1533708    1.7953814    0.8841339  
H   -2.3621246   -1.9821033    2.1118817  
H   -1.8668290   -1.5649508    5.0545920  
H   -0.1007624   -0.0827977    5.4019087  
H    3.3491200    2.8096064    2.8367138  
