62

C    4.8119710   -1.0361000   -4.9427339  
C    5.6476495   -1.9217642   -4.3026493  
C    6.7533662   -2.1543459   -5.1732211  
C    6.5357111   -1.3767277   -6.3393523  
N    5.3471708   -0.7116010   -6.1673193  
C    7.4287412   -1.3603368   -7.4150007  
C    8.5622890   -2.1429736   -7.3114324  
O    9.4677653   -2.1639199   -8.3325536  
C    8.7969056   -2.9259998   -6.1561655  
O    9.9696889   -3.6509546   -6.2047944  
C    7.9162088   -2.9428652   -5.0947450  
H    5.4802778   -2.3486287   -3.3286028  
H    4.9376332   -0.0749930   -6.8268573  
H    7.2685519   -0.7699521   -8.3066211  
H   10.1729822   -2.7652207   -8.0598424  
H   10.0520233   -4.1514030   -5.3872516  
H    8.1226147   -3.5527680   -4.2230267  
C    2.9067049   -0.7102172   -3.3086444  
C    3.5336408   -0.4560502   -4.5064829  
C    2.7086171    0.4617617   -5.2217153  
C    1.5825617    0.7341312   -4.4033387  
N    1.7334695    0.0049281   -3.2500363  
C    0.5573845    1.6017754   -4.7919192  
C    0.6711744    2.2056961   -6.0290567  
O   -0.3012925    3.0621138   -6.4578585  
C    1.7869436    1.9463322   -6.8600845  
O    1.7545740    2.6236968   -8.0615307  
C    2.7985452    1.0902849   -6.4774999  
H   -0.3035284    1.8134476   -4.1728674  
H   -0.0298853    3.3670752   -7.3334168  
H    2.5431352    2.3930063   -8.5620880  
H    3.6408084    0.9110166   -7.1354771  
H    3.2029011   -1.3461537   -2.4920591  
C    1.1319246    0.0015678   -0.8009268  
C    0.7969914    0.0034958   -2.1169401  
C   -0.6453340    0.0035696   -2.1842669  
C   -1.1266832    0.0015410   -0.7896025  
N    0.0000000    0.0000000    0.0000000  
C   -2.4346129    0.0013913   -0.4276292  
C   -3.4350111    0.0031335   -1.4820181  
O   -4.6384614    0.0030875   -1.2583914  
C   -2.9478961    0.0050442   -2.9661074  
O   -3.7809382    0.0062135   -3.8623773  
C   -1.5113825    0.0053055   -3.2312122  
H   -2.7664565    0.0000174    0.6013448  
H   -1.1823533    0.0068381   -4.2614848  
H    2.1104316    0.0009435   -0.3488059  
C    0.8175213    0.6860729    2.3021913  
C    0.0000000    0.0000000    1.4700000  
C   -0.8887526   -0.7456559    2.3478473  
C   -0.4549825   -0.3816753    3.7138435  
N    0.5448156    0.4573574    3.6934124  
C   -1.0945674   -0.9182058    4.8835240  
C   -2.1210866   -1.7789155    4.6970523  
O   -2.8083856   -2.3554314    5.6976972  
C   -2.5824069   -2.1655116    3.3310774  
O   -3.5227682   -2.9541547    3.2362962  
C   -1.9100805   -1.6015804    2.1470656  
H   -0.7567140   -0.6349833    5.8697035  
H   -3.4728268   -2.9124471    5.2533954  
H   -2.2742832   -1.9066565    1.1752040  
H    1.6189533    1.3585343    2.0405121  
