62

C    1.2650305   -1.1106139   -9.4905592  
C    1.6998707   -0.7349231  -10.7404548  
C    1.4674096    0.6674791  -10.8580540  
C    0.8842645    1.0964320   -9.6382716  
N    0.7736688   -0.0084044   -8.8309793  
C    0.5215435    2.4254393   -9.3996067  
C    0.7519754    3.3381021  -10.4106088  
O    0.4171166    4.6489822  -10.2304003  
C    1.3324934    2.9293558  -11.6348406  
O    1.4974247    3.9557274  -12.5418707  
C    1.6903267    1.6183751  -11.8710837  
H    2.1305131   -1.3911570  -11.4772710  
H    0.0765786    2.7587328   -8.4721782  
H    0.6581990    5.1069995  -11.0460991  
H    1.8948531    3.5950524  -13.3403489  
H    2.1329500    1.3350188  -12.8188560  
H    1.2651866   -2.0778597   -9.0179142  
C    1.9999918   -2.1070890   -5.1447766  
C    1.9105667   -1.6426495   -6.4177158  
C    0.7784254   -0.7475272   -6.4606980  
C    0.2115582   -0.7283877   -5.0986826  
N    0.9973786   -1.5733444   -4.3494008  
C   -0.8712826    0.0001710   -4.7267111  
C   -1.5219797    0.8200163   -5.7351666  
O   -2.5037637    1.5119151   -5.4992068  
C   -0.9387700    0.8148045   -7.1841813  
O   -1.4783591    1.5008668   -8.0417488  
C    0.2330300   -0.0112902   -7.4640108  
H    2.5631036   -1.8981143   -7.2335262  
H    2.7138547   -2.7945382   -4.7208625  
H    0.8643846   -1.7702172   -3.3744130  
C    1.0965514    0.0001359   -0.8010305  
C    0.0000000    0.0000000    0.0000000  
C   -1.1546563    0.0001470   -0.8669513  
C   -0.6372014    0.0003519   -2.2486282  
N    0.7342871    0.0007337   -2.1395014  
C   -1.4147739    0.0001352   -3.3608717  
C   -2.8576049   -0.0001048   -3.1854462  
O   -3.6427779   -0.0002494   -4.1244907  
C   -3.4275840   -0.0000725   -1.7311666  
O   -4.6406831    0.0000333   -1.5710060  
C   -2.4891867   -0.0001091   -0.6116744  
H   -2.8919122   -0.0002918    0.3920866  
H    2.1388272    0.0000663   -0.5261648  
H    1.3735872   -0.0006099   -2.9130262  
C    2.5311839    2.1237619    3.0120429  
C    1.9795631    1.6616747    1.8395852  
C    0.9223175    0.7739173    2.1983588  
C    0.8753926    0.7337535    3.6154372  
N    1.8668922    1.5631002    4.0777464  
C   -0.0496243   -0.0427881    4.3197917  
C   -0.9437528   -0.7922060    3.5801400  
O   -1.8685244   -1.5680278    4.2172520  
C   -0.9124520   -0.7656372    2.1655264  
O   -1.8671164   -1.5663939    1.5732860  
C    0.0000000    0.0000000    1.4700000  
H    2.3005065    1.9304404    0.8477417  
H    2.0679347    1.7444845    5.0445261  
H   -0.0904770   -0.0778569    5.3997470  
H   -2.3849669   -2.0011402    3.5251786  
H   -1.7775064   -1.4909735    0.6183591  
H    3.3468514    2.8078103    3.1724291  
