64

C   -3.3003526   -0.0035222   -1.4738992  
C   -2.5232794   -0.0026393   -2.6090750  
C   -1.1623190   -0.0009229   -2.1820104  
C   -1.1711884   -0.0011211   -0.7636141  
N   -2.4852306   -0.0007631   -0.3662362  
C    0.0000000    0.0000000    0.0000000  
C    1.2020373    0.0010386   -0.6806474  
O    2.3759243    0.0018063    0.0157751  
C    1.2314657    0.0016283   -2.0955506  
O    2.5054375    0.0030767   -2.6250173  
C    0.0764515    0.0007963   -2.8495192  
H   -2.8919940   -0.0020623   -3.6205304  
H   -2.8036173   -0.0113619    0.5858658  
H    3.0835634    0.0027629   -0.6418813  
H    2.4360039    0.0033627   -3.5845915  
H    0.1304089    0.0014601   -3.9319085  
C   -4.7630475   -0.0047973   -1.3275412  
C   -5.7197888   -0.0067901   -2.2912411  
C   -6.9965511   -0.0072674   -1.6169173  
C   -6.7031120   -0.0053463   -0.1709988  
N   -5.3315492   -0.0043072   -0.0628096  
C   -7.6461186   -0.0047617    0.8049324  
C   -9.0433272   -0.0063409    0.4045073  
O   -9.9665684   -0.0060304    1.2082034  
C   -9.3772040   -0.0086392   -1.1213781  
O  -10.5499505   -0.0102888   -1.4705544  
C   -8.2742368   -0.0087980   -2.0791442  
H   -5.5504459   -0.0079919   -3.3532840  
H   -8.5138854   -0.0101898   -3.1337961  
H   -4.8220255   -0.0013802    0.8017275  
C   -7.3244743   -0.0026599    2.2393105  
C   -6.1038911    0.0002632    2.8738467  
C   -6.3637531    0.0018960    4.2763692  
C   -7.7728693   -0.0004535    4.4385811  
N   -8.3257812   -0.0012407    3.1820362  
C   -8.3897041   -0.0000041    5.6932932  
C   -7.5690963    0.0025623    6.8044963  
O   -8.1189038    0.0027611    8.0537863  
C   -6.1609693    0.0053065    6.6631143  
O   -5.4817661    0.0080835    7.8639550  
C   -5.5517593    0.0051382    5.4256210  
H   -5.1442724    0.0022191    2.3858709  
H   -9.3093079   -0.0134128    2.9807686  
H   -9.4631118   -0.0016412    5.8236645  
H   -7.3807283    0.0050062    8.6769688  
H   -4.5375654    0.0097936    7.6793315  
H   -4.4707630    0.0074632    5.3486817  
C    2.5285572    2.1210227    2.9438989  
C    1.9331703    1.6216660    4.0790748  
C    0.8903039    0.7472258    3.6520102  
C    0.8972198    0.7527806    2.2336141  
N    1.9028376    1.5986179    1.8362361  
C    0.0000000    0.0000000    1.4700000  
C   -0.9207814   -0.7726952    2.1506477  
O   -1.8198395   -1.5274828    1.4542253  
C   -0.9436862   -0.7911793    3.5655508  
O   -1.9197945   -1.6098497    4.0950179  
C   -0.0590329   -0.0485852    4.3195194  
H    2.2150357    1.8593692    5.0905303  
H    2.1533708    1.7953814    0.8841339  
H   -2.3621246   -1.9821033    2.1118817  
H   -1.8668290   -1.5649508    5.0545920  
H   -0.1007624   -0.0827977    5.4019087  
H    3.3491200    2.8096064    2.8367138  
