60

C    3.9966179   -3.6501726   -5.2579715  
C    4.6955076   -4.4730733   -4.4054129  
C    4.0730353   -4.3722329   -3.1259762  
C    2.9903791   -3.4657115   -3.2601448  
N    2.9735223   -3.0445978   -4.5666655  
C    2.1516404   -3.1263219   -2.1942551  
C    2.4103672   -3.7129760   -0.9707045  
O    1.6221986   -3.4170946    0.1036590  
C    3.4861043   -4.6195850   -0.8168605  
O    3.6137919   -5.1185592    0.4630074  
C    4.3141136   -4.9546544   -1.8678859  
H    5.5496535   -5.0714767   -4.6725127  
H    1.3249077   -2.4359922   -2.2899596  
H    1.9711850   -3.9262450    0.8467870  
H    4.3627854   -5.7221299    0.4808236  
H    5.1303102   -5.6520416   -1.7197197  
H    4.1478587   -3.4461962   -6.3041443  
C    1.9999919   -2.1070888   -5.1447781  
C    1.9105660   -1.6426489   -6.4177171  
C    0.7784250   -0.7475268   -6.4606992  
C    0.2115578   -0.7283873   -5.0986833  
N    0.9973787   -1.5733444   -4.3494018  
C   -0.8712826    0.0001710   -4.7267111  
C   -1.5219800    0.8200163   -5.7351661  
O   -2.5037639    1.5119150   -5.4992064  
C   -0.9387708    0.8148048   -7.1841811  
O   -1.4783605    1.5008674   -8.0417489  
C    0.2330292   -0.0112898   -7.4640111  
H    2.5631029   -1.8981137   -7.2335281  
H    0.6307982   -0.0091663   -8.4697443  
H    0.8643847   -1.7702171   -3.3744140  
C    1.0965514    0.0001359   -0.8010305  
C    0.0000000    0.0000000    0.0000000  
C   -1.1546563    0.0001470   -0.8669513  
C   -0.6372014    0.0003519   -2.2486282  
N    0.7342871    0.0007337   -2.1395014  
C   -1.4147739    0.0001352   -3.3608717  
C   -2.8576049   -0.0001048   -3.1854462  
O   -3.6427779   -0.0002494   -4.1244907  
C   -3.4275840   -0.0000725   -1.7311666  
O   -4.6406831    0.0000333   -1.5710060  
C   -2.4891867   -0.0001091   -0.6116744  
H   -2.8919122   -0.0002918    0.3920866  
H    2.1388272    0.0000663   -0.5261648  
H    1.3735872   -0.0006099   -2.9130262  
C    2.4951002    2.0940188    2.9809380  
C    1.9440701    1.6314916    1.8291961  
C    0.8759964    0.7350050    2.2038498  
C    0.8497377    0.7130254    3.6788474  
N    1.8560616    1.5571714    4.0882609  
C   -0.0205033   -0.0168748    4.4215661  
C   -0.9962600   -0.8356168    3.7214979  
O   -1.8224391   -1.5286685    4.3006425  
C   -0.9864710   -0.8277881    2.1595606  
O   -1.8030528   -1.5133726    1.5592035  
C    0.0000000    0.0000000    1.4700000  
H    2.2509283    1.8888011    0.8310761  
H   -0.0229599   -0.0187323    5.5027230  
H    3.3143982    2.7817323    3.1139444  
H    2.0889452    1.7545833    5.0442112  
