62

C    1.5437655    0.0010881   -7.9352640  
C    0.3710685    0.0028830   -7.2160657  
C   -0.6971004    0.0036900   -8.1613772  
C   -0.1101334    0.0020228   -9.4526533  
N    1.2516711    0.0024184   -9.2791495  
C   -0.8677031    0.0019501  -10.6277601  
C   -2.2428625    0.0032833  -10.4969496  
O   -3.0303174    0.0029260  -11.6118169  
C   -2.8471716    0.0053315   -9.2172532  
O   -4.2263041    0.0068929   -9.2538179  
C   -2.1004324    0.0056777   -8.0575524  
H    0.2948880    0.0046360   -6.1422004  
H    1.9309036   -0.0090596  -10.0184004  
H   -0.4264080    0.0008278  -11.6149083  
H   -3.9447418    0.0043229  -11.3002229  
H   -4.5545334    0.0081987   -8.3494572  
H   -2.5914323    0.0074464   -7.0914293  
C    3.2973507   -0.0000930   -3.8752373  
C    4.6195925   -0.0010202   -4.2548994  
C    4.6432641   -0.0012929   -5.6810971  
C    3.2943728   -0.0002089   -6.1197511  
N    2.5030707   -0.0014509   -4.9979422  
C    2.9388349    0.0001621   -7.4719279  
C    3.9636641   -0.0002676   -8.3981590  
O    3.6727434    0.0004166   -9.7317169  
C    5.3157201   -0.0017235   -7.9801162  
O    6.2197482   -0.0024057   -9.0222666  
C    5.6672022   -0.0023634   -6.6463297  
H    5.4632736   -0.0025527   -3.5861744  
H    1.4991494    0.0094730   -4.9958708  
H    4.5199206   -0.0003434  -10.1959952  
H    7.1085242   -0.0033560   -8.6539189  
H    6.7114258   -0.0036625   -6.3563737  
C    3.3321175    0.0004715   -1.3379331  
C    2.6974186    0.0000117   -2.5332308  
C    1.2800441   -0.0002117   -2.2052838  
C    1.2395036    0.0000644   -0.7271292  
N    2.4394065    0.0005460   -0.2131033  
C    0.0000000    0.0000000    0.0000000  
C   -1.1468701    0.0000635   -0.7169542  
O   -2.3742199    0.0000073   -0.1695491  
C   -1.1388766    0.0001607   -2.2096354  
O   -2.2206227    0.0000905   -2.7970412  
C    0.1454526    0.0001817   -2.9324239  
H   -2.9844344    0.0001026   -0.9290168  
H    0.1083579    0.0003683   -4.0135594  
H    4.3940038    0.0007619   -1.1498630  
C    2.3971438    2.0127888    3.1728260  
C    1.9431056    1.6308205    1.9564670  
C    0.8496017    0.7127664    2.2356185  
C    0.7794028    0.6545384    3.7115134  
N    1.6840587    1.4146091    4.2663826  
C   -0.1885723   -0.1578550    4.3957118  
C   -1.0476298   -0.8789867    3.6398520  
O   -2.0015663   -1.6796266    4.1448486  
C   -1.0022026   -0.8410666    2.1483229  
O   -1.8147390   -1.5232959    1.5241687  
C    0.0000000    0.0000000    1.4700000  
H    2.3054237    1.9346118    0.9892483  
H   -0.2170646   -0.1815267    5.4753125  
H   -2.4487139   -2.0549881    3.3649027  
H    3.2048689    2.6911772    3.3971983  
