66

C    5.0719494   -2.3226006   -4.8596203  
C    4.6817179   -1.0174616   -5.0514505  
C    5.7226775   -0.3752197   -5.7852954  
C    6.7304601   -1.3466053   -6.0148806  
N    6.3043832   -2.5172203   -5.4380480  
C    7.9089049   -1.0635670   -6.7119797  
C    8.0728504    0.2234466   -7.1862106  
O    9.2046246    0.5539679   -7.8738584  
C    7.0788433    1.2066420   -6.9669099  
O    7.3897721    2.4401637   -7.5008503  
C    5.9161525    0.9281961   -6.2790553  
H    6.8073987   -3.3860404   -5.4484765  
H    8.6808954   -1.7994201   -6.8901748  
H    9.1178366    1.4865893   -8.1103948  
H    6.6672984    3.0456839   -7.3085452  
H    5.1728296    1.7019321   -6.1264740  
H    4.5693158   -3.1296896   -4.3547188  
C    2.8320538   -0.6842456   -3.3638059  
C    1.6628945    0.0339172   -3.2649299  
C    1.5251281    0.7739968   -4.4765002  
C    2.6497193    0.4643213   -5.2835458  
N    3.4240288   -0.4223169   -4.5771928  
C    2.8441969    1.0160059   -6.5534315  
C    1.8857962    1.8961092   -7.0171817  
O    2.0260207    2.4635770   -8.2506036  
C    0.7569684    2.2178777   -6.2265926  
O   -0.1068580    3.1097672   -6.8279914  
C    0.5646022    1.6742131   -4.9736163  
H    3.6992245    0.7841687   -7.1734167  
H    1.2587957    3.0370503   -8.3761385  
H   -0.8411892    3.2733616   -6.2283263  
H   -0.3098411    1.9397110   -4.3910885  
H    3.2912530   -1.3614893   -2.6642087  
C    1.1243410    0.0100105   -0.7919003  
C    0.7474072    0.0234665   -2.1148542  
C   -0.6787384    0.0234379   -2.1414698  
C   -1.1201748    0.0098411   -0.7935547  
N    0.0000000    0.0000000    0.0000000  
C   -2.4730818    0.0063307   -0.4408240  
C   -3.3971962    0.0170429   -1.4675058  
O   -4.7313520    0.0145490   -1.1793468  
C   -2.9763654    0.0303020   -2.8186325  
O   -4.0166484    0.0394464   -3.7247625  
C   -1.6418567    0.0334992   -3.1673480  
H   -2.8160166   -0.0041569    0.5845966  
H   -5.1938823    0.0230023   -2.0274386  
H   -3.6464680    0.0481700   -4.6127343  
H   -1.3497475    0.0435647   -4.2109234  
H    2.1062466    0.0053162   -0.3505405  
C    0.8676693    0.7151171    2.2619005  
C    0.5875920    0.4624972    3.5848544  
C   -0.5048400   -0.4542819    3.6114698  
C   -0.8517165   -0.7276451    2.2635546  
N    0.0000000    0.0000000    1.4700000  
C   -1.8902865   -1.5946756    1.9108239  
C   -2.5912627   -2.1969500    2.9375057  
O   -3.6148162   -3.0527051    2.6493466  
C   -2.2603868   -1.9365747    4.2886322  
O   -3.0513550   -2.6123276    5.1947621  
C   -1.2361111   -1.0811317    4.6373480  
H    1.1060808    0.8876438    4.4271209  
H   -2.1597133   -1.8070987    0.8854031  
H   -3.9636755   -3.3565188    3.4974381  
H   -2.7621927   -2.3810384    6.0827341  
H   -1.0058879   -0.9010589    5.6809233  
H    1.6167816    1.3499334    1.8205408  
