60

C    5.5802956   -4.5924537   -1.7784981  
C    6.8893206   -4.3790317   -1.4132975  
C    7.1891049   -3.0175476   -1.7151087  
C    6.0144219   -2.4451510   -2.2668402  
N    5.0574430   -3.4290884   -2.2928472  
C    5.9454587   -1.1114243   -2.6806113  
C    7.0829632   -0.3414209   -2.5344744  
O    7.0706294    0.9672749   -2.9220008  
C    8.2647254   -0.8945591   -1.9864838  
O    9.3120509   -0.0000821   -1.9067133  
C    8.3335600   -2.2103079   -1.5783269  
H    7.5475388   -5.1145034   -0.9833856  
H    4.1161961   -3.3146280   -2.6228983  
H    7.9524088    1.3153940   -2.7361424  
H   10.0706750   -0.4531689   -1.5261784  
H    9.2527198   -2.6060773   -1.1624052  
H    4.9786588   -5.4828717   -1.7141016  
C    3.4580106   -0.7268399   -2.8377750  
C    4.7325012   -0.5102397   -3.2535078  
C    4.6631580    0.4171279   -4.3580511  
C    3.2335491    0.7252806   -4.5531181  
N    2.5562217   -0.0001543   -3.6003001  
C    2.7508565    1.5661398   -5.5026800  
C    3.7028845    2.2104920   -6.3920552  
O    3.3673528    2.9842342   -7.2792089  
C    5.2217697    1.8985269   -6.2037155  
O    6.0326406    2.4348680   -6.9467415  
C    5.6204818    0.9750981   -5.1443953  
H    1.6983095    1.7786111   -5.6288161  
H    6.6740642    0.7645577   -5.0204572  
H    3.1016700   -1.3563602   -2.0386411  
C    0.0000000    0.0000000    0.0000000  
C    1.0541688   -0.0001719   -0.8560391  
C    0.5103141   -0.0000449   -2.1935955  
C   -0.9576367    0.0002461   -2.0455733  
N   -1.2018459   -0.0001392   -0.6915970  
C   -1.8348306    0.0008319   -3.0810611  
C   -1.2972842    0.0009739   -4.4314605  
O   -2.0050664    0.0014267   -5.4301321  
C    0.2542628    0.0004190   -4.6117571  
O    0.7184677    0.0002263   -5.7439119  
C    1.0974556    0.0000880   -3.4189127  
H    2.0940752   -0.0005479   -0.5817978  
H   -2.9081050    0.0011669   -2.9507065  
H   -2.1128195    0.0014911   -0.2706793  
C    3.1301144    0.0010313    3.1728260  
C    2.5367765    0.0002768    1.9564670  
C    1.1089900   -0.0001027    2.2356185  
C    1.0177864    0.0004150    3.7115134  
N    2.1993570    0.0011613    4.2663826  
C   -0.2459220    0.0002880    4.3957118  
C   -1.3675327    0.0000606    3.6398520  
O   -2.6129319   -0.0000866    4.1448486  
C   -1.3083589   -0.0000910    2.1483229  
O   -2.3693264   -0.0004206    1.5241687  
C    0.0000000    0.0000000    1.4700000  
H    3.0096015    0.0001008    0.9892483  
H   -0.2829642    0.0004689    5.4753125  
H   -3.1967446   -0.0002093    3.3649027  
H    4.1849273    0.0015113    3.3971983  
