62

C    5.4976582   -2.3773644   -6.6964522  
C    5.0606026   -1.0740796   -6.7502868  
C    5.7709532   -0.4402558   -7.8124877  
C    6.6345267   -1.4146317   -8.3752997  
N    6.4448531   -2.5788353   -7.6729671  
C    7.4875856   -1.1396892   -9.4483733  
C    7.4683032    0.1421507   -9.9628557  
O    8.2809422    0.4647020  -11.0109934  
C    6.6139159    1.1282187   -9.4146694  
O    6.7109891    2.3558488  -10.0366386  
C    5.7722847    0.8577609   -8.3558786  
H    6.9141073   -3.4480283   -7.8526500  
H    8.1482554   -1.8778579   -9.8817610  
H    8.1128376    1.3948308  -11.2106566  
H    6.1020314    2.9638100   -9.6063388  
H    5.1291945    1.6335227   -7.9569991  
H    5.2097182   -3.1787734   -6.0378225  
C    3.9300175   -0.7219417   -4.5190963  
C    2.8699641   -0.0020530   -4.0185824  
C    2.3084605    0.7252949   -5.1095817  
C    3.0740001    0.4064306   -6.2603207  
N    4.0515278   -0.4731889   -5.8662065  
C    2.8029519    0.9445735   -7.5219559  
C    1.7395392    1.8203307   -7.6238420  
O    1.4306792    2.3746740   -8.8322796  
C    0.9641551    2.1511164   -6.4871017  
O   -0.0597854    3.0371490   -6.7513655  
C    1.2311450    1.6208133   -5.2421029  
H    3.3827119    0.7056826   -8.4028713  
H    0.6670864    2.9472664   -8.6828515  
H   -0.5337233    3.2075121   -5.9316321  
H    0.6198235    1.8929801   -4.3896420  
H    4.6099250   -1.3920550   -4.0214684  
C    3.2573670   -0.0002921   -1.5109382  
C    2.5379468   -0.0001711   -0.3591962  
C    1.1435043    0.0000330   -0.7338498  
C    1.1092608   -0.0000085   -2.2088474  
N    2.4227562    0.0001906   -2.6182610  
C   -0.0265533   -0.0002525   -2.9515663  
C   -1.3003033   -0.0002641   -2.2514979  
O   -2.3786785   -0.0004132   -2.8306425  
C   -1.2877724    0.0000310   -0.6895608  
O   -2.3539956    0.0003306   -0.0892035  
C    0.0000000    0.0000000    0.0000000  
H    2.9384091   -0.0000370    0.6389240  
H   -0.0296290   -0.0004088   -4.0327231  
H    4.3270394   -0.0004767   -1.6439445  
C    2.5128556    2.1077716    2.9199648  
C    1.9592212    1.6432552    4.0696553  
C    0.8915788    0.7479214    3.6910360  
C    0.8684491    0.7287414    2.2159470  
N    1.8754542    1.5738793    1.8102719  
C    0.0000000    0.0000000    1.4700000  
C   -0.9772830   -0.8200135    2.1664417  
O   -1.8021297   -1.5120829    1.5842315  
C   -0.9711318   -0.8147624    3.7284083  
O   -1.7894187   -1.5009653    4.3257297  
C    0.0140216    0.0115358    4.4216297  
H    2.2638494    1.8988021    5.0689105  
H    0.0117648    0.0094386    5.5031631  
H    3.3327358    2.7953732    2.7900019  
H    2.1123206    1.7707734    0.8551938  
