62

C    3.6688760    0.7006774   -7.9127846  
C    3.5134953    0.4496556   -9.2564031  
C    4.5454078   -0.4606836   -9.6319546  
C    5.3058503   -0.7319474   -8.4657347  
N    4.7478847   -0.0092922   -7.4405219  
C    6.4075082   -1.5928404   -8.4644959  
C    6.7475170   -2.1910233   -9.6623066  
O    7.8142729   -3.0407316   -9.7174499  
C    6.0012858   -1.9326529  -10.8367005  
O    6.4654629   -2.6037786  -11.9491178  
C    4.9145202   -1.0832631  -10.8387175  
H    2.7509465    0.8717116   -9.8883703  
H    6.9912888   -1.8036340   -7.5790759  
H    7.8759138   -3.3425226  -10.6330856  
H    5.9067402   -2.3742300  -12.6979439  
H    4.3622792   -0.9045895  -11.7539140  
H    3.0962636    1.3310943   -7.2542653  
C    2.4861703   -0.0045381   -3.7159920  
C    3.4691536   -0.0057441   -2.7857654  
C    4.7077411   -0.0077542   -3.5489142  
C    4.2744118   -0.0075883   -4.9627066  
N    2.9732091   -0.0056260   -5.0669057  
C    5.2170323   -0.0092330   -6.0473955  
C    6.5327406   -0.0105758   -5.7339555  
O    7.5212023   -0.0121899   -6.6444402  
C    7.0015516   -0.0104085   -4.3167836  
O    8.2141969   -0.0118084   -4.1053331  
C    6.0150638   -0.0087514   -3.2219027  
H    3.3664299   -0.0052315   -1.7140737  
H    8.3418866   -0.0128279   -6.1194373  
H    6.3952615   -0.0085676   -2.2091438  
C    0.0000000    0.0000000    0.0000000  
C    1.0521669   -0.0011901   -0.8862341  
C    0.4917220   -0.0011956   -2.1979132  
C   -0.9187428    0.0003148   -2.0478684  
N   -1.1833170   -0.0009411   -0.7007915  
C   -1.7951699    0.0010351   -3.1372091  
C   -1.2375836    0.0005225   -4.4010425  
O   -2.0474210    0.0015361   -5.4997584  
C    0.1673583   -0.0013566   -4.5711960  
O    0.5673528   -0.0020686   -5.8915549  
C    1.0325772   -0.0023411   -3.4969890  
H    2.0953059   -0.0030648   -0.6200562  
H   -2.0989777    0.0102372   -0.2891825  
H   -2.8710931    0.0020419   -3.0295515  
H   -1.4634882    0.0006497   -6.2693594  
H    1.5290713   -0.0033151   -5.9180046  
C    0.0000000    0.0000000    1.4700000  
C    1.0541688    0.0001722    2.3260392  
C    0.5103138    0.0000454    3.6635956  
C   -0.9576371   -0.0002459    3.5155732  
N   -1.2018458    0.0001392    2.1615969  
C   -1.8348311   -0.0008317    4.5510609  
C   -1.2972847   -0.0009736    5.9014604  
O   -2.0050672   -0.0014265    6.9001319  
C    0.2542623   -0.0004184    6.0817573  
O    0.7184670   -0.0002256    7.2139121  
C    1.0974552   -0.0000873    4.8889129  
H    2.0940752    0.0005483    2.0517982  
H   -2.9081052   -0.0011668    4.4207061  
H    2.1707277    0.0000911    5.0223670  
H   -2.1128194   -0.0014912    1.7406791  
