60

C    7.4830558   -0.0026655    2.0413944  
C    6.8826870   -0.0031256    3.2791439  
C    7.9284764   -0.0038682    4.2491566  
C    9.1557593   -0.0035389    3.5380287  
N    8.8491534   -0.0047589    2.1998934  
C   10.3996810   -0.0037835    4.1763450  
C   10.4047598   -0.0040643    5.5577032  
O   11.5916737   -0.0039602    6.2316849  
C    9.1907065   -0.0047707    6.2849509  
O    9.3627397   -0.0053973    7.6537998  
C    7.9631817   -0.0048031    5.6558975  
H    5.8215208   -0.0040532    3.4605785  
H    9.5180211    0.0057139    1.4512355  
H   11.3386389   -0.0036790    3.6400969  
H   11.3715295   -0.0044956    7.1723237  
H    8.4950477   -0.0058237    8.0693892  
H    7.0500351   -0.0055346    6.2395415  
C    6.8847521   -0.0023785    0.6986611  
C    5.5715633   -0.0012904    0.3713800  
C    5.5475443   -0.0015350   -1.0832412  
C    6.9721656   -0.0027414   -1.4795197  
N    7.7607267   -0.0033210   -0.4392506  
C    7.3784669   -0.0033612   -2.8579262  
C    6.4057885   -0.0031903   -3.7977300  
O    6.6406190   -0.0037039   -5.1209443  
C    4.9592110   -0.0023543   -3.4295275  
O    4.1279730   -0.0021183   -4.3374175  
C    4.5679461   -0.0016854   -2.0086701  
H    4.7238856   -0.0005185    1.0350950  
H    8.4267357   -0.0040357   -3.1187771  
H    5.7562743   -0.0034384   -5.5297073  
C    3.1301149   -0.0010311   -1.7028252  
C    2.5367768   -0.0002767   -0.4864665  
C    1.1089904    0.0001028   -0.7656183  
C    1.0177872   -0.0004148   -2.2415132  
N    2.1993578   -0.0011611   -2.7963820  
C   -0.2459209   -0.0002877   -2.9257118  
C   -1.3675319   -0.0000605   -2.1698524  
O   -2.6129313    0.0000867   -2.6748490  
C   -1.3083584    0.0000910   -0.6783232  
O   -2.3693261    0.0004206   -0.0541692  
C    0.0000000    0.0000000    0.0000000  
H    3.0096017   -0.0001007    0.4807525  
H   -0.2829630   -0.0004687   -4.0053125  
H   -3.1967441    0.0002094   -1.8949034  
C    2.5128556    2.1077716    2.9199648  
C    1.9592212    1.6432552    4.0696553  
C    0.8915788    0.7479214    3.6910360  
C    0.8684491    0.7287414    2.2159470  
N    1.8754542    1.5738793    1.8102719  
C    0.0000000    0.0000000    1.4700000  
C   -0.9772830   -0.8200135    2.1664417  
O   -1.8021297   -1.5120829    1.5842315  
C   -0.9711318   -0.8147624    3.7284083  
O   -1.7894187   -1.5009653    4.3257297  
C    0.0140216    0.0115358    4.4216297  
H    2.2638494    1.8988021    5.0689105  
H    0.0117648    0.0094386    5.5031631  
H    3.3327358    2.7953732    2.7900019  
H    2.1123206    1.7707734    0.8551938  
