64

C   -4.5497374    0.7866097   -7.5171294  
C   -5.8148533    0.5414138   -7.9986149  
C   -5.6751442   -0.3566457   -9.0979649  
C   -4.2900762   -0.6267697   -9.2413067  
N   -3.6351213    0.0847390   -8.2669320  
C   -3.7835865   -1.4767579  -10.2291208  
C   -4.6918856   -2.0650067  -11.0876848  
O   -4.2515039   -2.9038468  -12.0702456  
C   -6.0776966   -1.8075906  -10.9608644  
O   -6.8531599   -2.4680211  -11.8913655  
C   -6.5780462   -0.9689541   -9.9867673  
H   -6.7261912    0.9593807   -7.6064916  
H   -2.7290597   -1.6866217  -10.3437211  
H   -5.0367861   -3.2000080  -12.5486634  
H   -7.7748252   -2.2399020  -11.7361209  
H   -7.6445600   -0.7907343   -9.9142147  
H   -4.2273167    1.4077453   -6.6990864  
C   -1.2456296    0.0472577   -4.5828766  
C    0.0002605    0.0520438   -5.1230708  
C   -0.1629407    0.0660968   -6.5576456  
C   -1.6164593    0.0691566   -6.8107556  
N   -2.2165808    0.0569157   -5.5727758  
C   -2.1820820    0.0818099   -8.0442930  
C   -1.3004434    0.0929475   -9.1997693  
O   -1.7128481    0.1046491  -10.3521949  
C    0.2422766    0.0896871   -8.9552089  
O    0.9944621    0.0986747   -9.9202986  
C    0.7327427    0.0759264   -7.5793069  
H    0.9277601    0.0461943   -4.5787146  
H    1.8022635    0.0739577   -7.4185433  
H   -3.2072924    0.0572152   -5.4129701  
C    1.1243418    0.0099155   -0.7919003  
C    0.7474093    0.0234033   -2.1148542  
C   -0.6787365    0.0234953   -2.1414700  
C   -1.1201738    0.0099357   -0.7935546  
N    0.0000000    0.0000000    0.0000000  
C   -2.4730811    0.0065398   -0.4408241  
C   -3.3971945    0.0173300   -1.4675058  
O   -4.7313507    0.0149490   -1.1793472  
C   -2.9763626    0.0305537   -2.8186325  
O   -4.0166449    0.0397860   -3.7247623  
C   -1.6418538    0.0336381   -3.1673481  
H    1.4178738    0.0310004   -2.9571209  
H   -2.8160170   -0.0039189    0.5845965  
H   -5.1938800    0.0234412   -2.0274384  
H   -3.6464643    0.0484782   -4.6127344  
H    2.1062469    0.0051381   -0.3505407  
C    2.5311839    2.1237619    3.0120429  
C    1.9795631    1.6616747    1.8395852  
C    0.9223175    0.7739173    2.1983588  
C    0.8753926    0.7337535    3.6154372  
N    1.8668922    1.5631002    4.0777464  
C   -0.0496243   -0.0427881    4.3197917  
C   -0.9437528   -0.7922060    3.5801400  
O   -1.8685244   -1.5680278    4.2172520  
C   -0.9124520   -0.7656372    2.1655264  
O   -1.8671164   -1.5663939    1.5732860  
C    0.0000000    0.0000000    1.4700000  
H    2.3005065    1.9304404    0.8477417  
H    2.0679347    1.7444845    5.0445261  
H   -0.0904770   -0.0778569    5.3997470  
H   -2.3849669   -2.0011402    3.5251786  
H   -1.7775064   -1.4909735    0.6183591  
H    3.3468514    2.8078103    3.1724291  
