62

C    5.5836005   -0.0003155   -1.0808165  
C    4.5679461   -0.0016852   -2.0086700  
C    5.1807163   -0.0020959   -3.2967355  
C    6.5840017   -0.0012106   -3.0900577  
N    6.7941554    0.0018109   -1.7334282  
C    7.5035526   -0.0016219   -4.1432504  
C    6.9972724   -0.0032584   -5.4284959  
O    7.8506655   -0.0040785   -6.4937341  
C    5.6003141   -0.0037866   -5.6550441  
O    5.2537722   -0.0050289   -6.9904278  
C    4.6925710   -0.0031080   -4.6165223  
H    7.6925277   -0.0074985   -1.2852979  
H    8.5742727   -0.0008079   -3.9923869  
H    7.2981730   -0.0048901   -7.2862088  
H    4.2938960   -0.0053403   -7.0555537  
H    3.6282969   -0.0033561   -4.8209686  
H    5.5402817    0.0007588   -0.0051399  
C    3.1301152   -0.0010311   -1.7028251  
C    2.5367770   -0.0002766   -0.4864665  
C    1.1089905    0.0001028   -0.7656183  
C    1.0177873   -0.0004148   -2.2415130  
N    2.1993580   -0.0011610   -2.7963820  
C   -0.2459208   -0.0002877   -2.9257119  
C   -1.3675318   -0.0000605   -2.1698523  
O   -2.6129310    0.0000866   -2.6748492  
C   -1.3083584    0.0000911   -0.6783232  
O   -2.3693259    0.0004206   -0.0541692  
C    0.0000000    0.0000000    0.0000000  
H    3.0096019   -0.0001007    0.4807529  
H   -3.1967440    0.0002093   -1.8949035  
C    0.5332471   -0.7193582   -5.2240418  
C   -0.2963281   -0.0005339   -4.3948471  
C   -1.1923421    0.7280157   -5.2320896  
C   -0.8589919    0.4109481   -6.5738314  
N    0.1940949   -0.4688040   -6.5330672  
C   -1.5389791    0.9506281   -7.6698023  
C   -2.5745398    1.8261037   -7.4064888  
O   -3.2722177    2.3819004   -8.4396149  
C   -2.9218724    2.1551074   -6.0745978  
O   -3.9749394    3.0410856   -5.9774577  
C   -2.2513078    1.6232874   -4.9929153  
H    0.6396934   -0.8781466   -7.3342302  
H   -1.2897022    0.7131100   -8.6948129  
H   -3.9408680    2.9540007   -8.0410252  
H   -4.1451787    3.2101966   -5.0457798  
H   -2.5398814    1.8941060   -3.9840245  
H    1.3409613   -1.3898543   -4.9853124  
C    0.8681109    0.7263879    2.2709268  
C    0.6127770    0.5096195    3.5869401  
C   -0.4920590   -0.4175482    3.6542670  
C   -0.8620974   -0.7254003    2.2596025  
N    0.0000000    0.0000000    1.4700000  
C   -1.8641242   -1.5660088    1.8976294  
C   -2.6293522   -2.2103885    2.9520183  
O   -3.5512764   -2.9839180    2.7283916  
C   -2.2549728   -1.8987399    4.4361073  
O   -2.8923672   -2.4351063    5.3323774  
C   -1.1543735   -0.9755647    4.7012123  
H    1.1382914    0.9492124    4.4159191  
H   -2.1192137   -1.7782617    0.8686553  
H   -0.9013378   -0.7652422    5.7314848  
H    1.6172880    1.3558399    1.8188057  
