62

C   -0.0923117    0.7045252   -7.0369822  
C   -1.3462829    0.4532080   -7.5437986  
C   -1.1816983   -0.4564863   -8.6300623  
C    0.2063560   -0.7270705   -8.7396816  
N    0.8391155   -0.0046475   -7.7586928  
C    0.7351272   -1.5872180   -9.7068086  
C   -0.1535536   -2.1853406  -10.5789757  
O    0.3090035   -3.0343351  -11.5424396  
C   -1.5419766   -1.9276414  -10.4857528  
O   -2.2962167   -2.5986107  -11.4261058  
C   -2.0642978   -1.0789870   -9.5320799  
H   -2.2663321    0.8746586   -7.1765357  
H    1.7920511   -1.7974912   -9.7956878  
H   -0.4652956   -3.3362141  -12.0349800  
H   -3.2212246   -2.3695461  -11.2938395  
H   -3.1322548   -0.9008167   -9.4851622  
H    0.2115180    1.3346481   -6.2186966  
C    3.0267439   -0.0008952   -3.9901698  
C    4.3139890   -0.0013046   -4.4079961  
C    4.2367748   -0.0025851   -5.8607646  
C    2.7880404   -0.0029128   -6.1569950  
N    2.0737438   -0.0018452   -5.0643980  
C    2.2868486   -0.0040736   -7.5038033  
C    3.1918041   -0.0044821   -8.5089851  
O    2.8655069   -0.0055568   -9.8126608  
C    4.6604883   -0.0037969   -8.2422898  
O    5.4265654   -0.0043468   -9.2057971  
C    5.1496324   -0.0026519   -6.8520881  
H    5.2057783   -0.0007096   -3.8048486  
H    3.7192779   -0.0055653  -10.2819433  
H    6.2208236   -0.0020674   -6.7011578  
C    3.3003547    0.0005275   -1.4738985  
C    2.5232817    0.0003496   -2.6090745  
C    1.1623204   -0.0001319   -2.1820101  
C    1.1711885    0.0000583   -0.7636140  
N    2.4852303   -0.0014920   -0.3662357  
C    0.0000000    0.0000000    0.0000000  
C   -1.2020382    0.0000520   -0.6806479  
O   -2.3759248    0.0003494    0.0157744  
C   -1.2314653   -0.0005113   -2.0955511  
O   -2.5054389   -0.0008038   -2.6250185  
C   -0.0764511   -0.0007273   -2.8495194  
H    2.8036269    0.0088181    0.5858664  
H   -3.0835637    0.0000348   -0.6418823  
H   -2.4360044   -0.0011528   -3.5845926  
H   -0.1304090   -0.0013422   -3.9319089  
H    4.3715553    0.0004894   -1.3667132  
C    2.5528530    2.1414826    2.8079335  
C    2.0663498    1.7338582    4.0032312  
C    0.9804344    0.8229586    3.6752840  
C    0.9495562    0.7966882    2.1971295  
N    1.8690446    1.5676019    1.6831036  
C    0.0000000    0.0000000    1.4700000  
C   -0.8785127   -0.7372425    2.1869543  
O   -1.8187535   -1.5261249    1.6395491  
C   -0.8723269   -0.7321790    3.6796354  
O   -1.7010379   -1.4274584    4.2670412  
C    0.1115397    0.0933559    4.4024240  
H    2.4028853    2.0163452    4.9860947  
H   -2.2861435   -1.9184361    2.3990168  
H    0.0832434    0.0693689    5.4835595  
H    3.3664920    2.8238276    2.6198634  
