62

C    2.8719483   -5.4722868   -8.8759202  
C    3.0260674   -5.0033172  -10.1599696  
C    2.7242034   -3.6094872  -10.1332059  
C    2.3899892   -3.2816470   -8.7942698  
N    2.4878689   -4.4358946   -8.0575551  
C    2.0368118   -1.9882066   -8.3979538  
C    2.0210233   -1.0077981   -9.3709528  
O    1.6836927    0.2723501   -9.0386239  
C    2.3510260   -1.3153588  -10.7123412  
O    2.2885371   -0.2308570  -11.5628078  
C    2.6992768   -2.5912056  -11.1040849  
H    3.3188530   -5.5934842  -11.0114235  
H    2.3192956   -4.5105249   -7.0706432  
H    1.7348829    0.7885342   -9.8536071  
H    2.5255317   -0.5243428  -12.4478521  
H    2.9469206   -2.7966553  -12.1389468  
H    3.0042170   -6.4643541   -8.4793542  
C    2.2991559   -2.1048094   -5.8924434  
C    1.6888962   -1.6397490   -7.0128795  
C    0.6412942   -0.7448177   -6.5810651  
C    0.6916338   -0.7264668   -5.1066432  
N    1.7177155   -1.5716517   -4.7520883  
C   -0.1387079    0.0017019   -4.3179684  
C   -1.1495776    0.8219303   -4.9644230  
O   -1.9445176    1.5135266   -4.3414737  
C   -1.2212021    0.8175538   -6.5247612  
O   -2.0683175    1.5039444   -7.0802107  
C   -0.2716611   -0.0081805   -7.2666415  
H   -0.3277639   -0.0054788   -8.3467194  
H    3.1245934   -2.7923368   -5.8038533  
H    2.0018702   -1.7690376   -3.8101002  
C    3.3041273    0.0001178   -1.5420428  
C    2.5845373   -0.0004780   -0.3695851  
C    1.2040007   -0.0000007   -0.7283589  
C    1.1422374    0.0006038   -2.1454372  
N    2.4348641    0.0026111   -2.6077464  
C   -0.0655179    0.0008799   -2.8497918  
C   -1.2321766    0.0002325   -2.1101402  
O   -2.4392814    0.0001148   -2.7472522  
C   -1.1911209   -0.0000007   -0.6955266  
O   -2.4371528   -0.0002320   -0.1032862  
C    0.0000000    0.0000000    0.0000000  
H    3.0031533   -0.0000660    0.6222584  
H    2.7054631   -0.0071097   -3.5745261  
H   -3.1132988   -0.0000648   -2.0551787  
H   -2.3200282   -0.0004072    0.8516409  
H    4.3686625    0.0004073   -1.7024290  
C    0.0000000    0.0000000    1.4700000  
C    1.0541688    0.0001722    2.3260392  
C    0.5103138    0.0000454    3.6635956  
C   -0.9576371   -0.0002459    3.5155732  
N   -1.2018458    0.0001392    2.1615969  
C   -1.8348311   -0.0008317    4.5510609  
C   -1.2972847   -0.0009736    5.9014604  
O   -2.0050672   -0.0014265    6.9001319  
C    0.2542623   -0.0004184    6.0817573  
O    0.7184670   -0.0002256    7.2139121  
C    1.0974552   -0.0000873    4.8889129  
H    2.0940752    0.0005483    2.0517982  
H   -2.9081052   -0.0011668    4.4207061  
H    2.1707277    0.0000911    5.0223670  
H   -2.1128194   -0.0014912    1.7406791  
