62

C   -0.1404396   -2.9790376   -9.4563238  
C   -0.5536129   -1.9945308   -8.5888556  
C   -0.6484822   -0.7877491   -9.3433615  
C   -0.2781569   -1.1001726  -10.6764694  
N    0.0261066   -2.4384277  -10.7098604  
C   -0.2570459   -0.1466135  -11.6987546  
C   -0.6166135    1.1458161  -11.3693398  
O   -0.6137387    2.1162716  -12.3291428  
C   -0.9887930    1.4771803  -10.0447655  
O   -1.3195986    2.8059052   -9.8762409  
C   -1.0095861    0.5370404   -9.0356916  
H   -0.7600518   -2.1293188   -7.5409018  
H    0.3123813   -2.9483161  -11.5259731  
H    0.0243795   -0.3783062  -12.7167518  
H   -0.8919646    2.9322558  -11.8932250  
H   -1.5584766    2.9453584   -8.9547783  
H    0.0500114   -4.0237895   -9.2797424  
C    0.6364688   -0.6837595   -5.1902200  
C   -0.1387079    0.0017019   -4.3179684  
C   -1.0701777    0.7476897   -5.1500536  
C   -0.7049024    0.3845506   -6.5361590  
N    0.2947993   -0.4543147   -6.5660079  
C   -1.4020122    0.9216209   -7.6722400  
C   -2.4181036    1.7820426   -7.4344017  
O   -3.1544583    2.3589953   -8.3992581  
C   -2.8108993    2.1677923   -6.0469331  
O   -3.7454940    2.9562142   -5.9050026  
C   -2.0803710    1.6033193   -4.8981847  
H   -3.7960377    2.9156438   -7.9221097  
H   -2.3957800    1.9077869   -3.9092220  
H    1.4500366   -1.3562239   -4.9691495  
C    3.3041273    0.0001178   -1.5420428  
C    2.5845373   -0.0004780   -0.3695851  
C    1.2040007   -0.0000007   -0.7283589  
C    1.1422374    0.0006038   -2.1454372  
N    2.4348641    0.0026111   -2.6077464  
C   -0.0655179    0.0008799   -2.8497918  
C   -1.2321766    0.0002325   -2.1101402  
O   -2.4392814    0.0001148   -2.7472522  
C   -1.1911209   -0.0000007   -0.6955266  
O   -2.4371528   -0.0002320   -0.1032862  
C    0.0000000    0.0000000    0.0000000  
H    3.0031533   -0.0000660    0.6222584  
H    2.7054631   -0.0071097   -3.5745261  
H   -3.1132988   -0.0000648   -2.0551787  
H   -2.3200282   -0.0004072    0.8516409  
H    4.3686625    0.0004073   -1.7024290  
C    0.8400945    0.7047457    2.2710304  
C    0.0000000    0.0000000    1.4700000  
C   -0.8844236   -0.7423113    2.3369512  
C   -0.4878984   -0.4098547    3.7186280  
N    0.5629682    0.4714286    3.6095011  
C   -1.0836927   -0.9095027    4.8308716  
C   -2.1891196   -1.8367527    4.6554461  
O   -2.7906899   -2.3413415    5.5944904  
C   -2.6257283   -2.2031529    3.2011665  
O   -3.5549479   -2.9829990    3.0410059  
C   -1.9068976   -1.5999348    2.0816745  
H   -0.7774656   -0.6525820    5.8354244  
H   -2.2155208   -1.8586617    1.0779135  
H    1.6384792    1.3747609    1.9961646  
H    1.0518368    0.8833920    4.3830260  
