62

C    6.9675878   -3.0830428   -7.3606447  
C    6.4673522   -1.8500149   -7.0115391  
C    6.8755001   -0.9329725   -8.0249726  
C    7.6282955   -1.6701129   -8.9746301  
N    7.6664159   -2.9717106   -8.5398790  
C    8.1898315   -1.0847865  -10.1134277  
C    7.9874861    0.2692877  -10.2970511  
O    8.5133572    0.8913653  -11.3922627  
C    7.2395891    1.0218742   -9.3605251  
O    7.1274618    2.3583187   -9.6840778  
C    6.6855586    0.4451477   -8.2367091  
H    8.1217338   -3.7294458   -9.0158030  
H    8.7647347   -1.6410623  -10.8409206  
H    8.2579067    1.8207677  -11.3273054  
H    6.6083496    2.7940514   -9.0012423  
H    6.1177523    1.0471692   -7.5369628  
H    6.8823934   -4.0328264   -6.8610342  
C    5.8883845   -2.0954747   -4.5533061  
C    4.9762279   -1.6321311   -3.6603571  
C    4.1010833   -0.7362693   -4.3789590  
C    4.5815868   -0.7155464   -5.7737627  
N    5.6672530   -1.5597491   -5.8130037  
C    4.0183661    0.0134743   -6.7702647  
C    2.8618710    0.8325283   -6.4474560  
O    2.2840242    1.5248513   -7.2751528  
C    2.3361184    0.8260250   -4.9766244  
O    1.3633190    1.5118827   -4.6928611  
C    3.0267438   -0.0008951   -3.9901699  
H    4.9226753   -1.8885071   -2.6172761  
H    4.3863446    0.0144155   -7.7868769  
H    6.7036722   -2.7830650   -4.3970513  
C    3.3003547    0.0005277   -1.4738986  
C    2.5232816    0.0003497   -2.6090746  
C    1.1623203   -0.0001319   -2.1820102  
C    1.1711884    0.0000584   -0.7636141  
N    2.4852301   -0.0014919   -0.3662359  
C    0.0000000    0.0000000    0.0000000  
C   -1.2020383    0.0000520   -0.6806479  
O   -2.3759248    0.0003493    0.0157745  
C   -1.2314655   -0.0005115   -2.0955511  
O   -2.5054388   -0.0008040   -2.6250184  
C   -0.0764513   -0.0007274   -2.8495195  
H    2.8036266    0.0088183    0.5858662  
H   -3.0835639    0.0000346   -0.6418822  
H   -2.4360043   -0.0011529   -3.5845924  
H   -0.1304091   -0.0013423   -3.9319089  
H    4.3715553    0.0004897   -1.3667133  
C    2.3971438    2.0127888    3.1728260  
C    1.9431056    1.6308205    1.9564670  
C    0.8496017    0.7127664    2.2356185  
C    0.7794028    0.6545384    3.7115134  
N    1.6840587    1.4146091    4.2663826  
C   -0.1885723   -0.1578550    4.3957118  
C   -1.0476298   -0.8789867    3.6398520  
O   -2.0015663   -1.6796266    4.1448486  
C   -1.0022026   -0.8410666    2.1483229  
O   -1.8147390   -1.5232959    1.5241687  
C    0.0000000    0.0000000    1.4700000  
H    2.3054237    1.9346118    0.9892483  
H   -0.2170646   -0.1815267    5.4753125  
H   -2.4487139   -2.0549881    3.3649027  
H    3.2048689    2.6911772    3.3971983  
