60

C   -6.4323785    4.4157543    3.1044119  
C   -6.1067844    3.5929935    2.0510731  
C   -4.6916127    3.6656831    1.8879651  
C   -4.2036205    4.5556761    2.8787739  
N   -5.2869530    4.9944636    3.5988256  
C   -2.8471670    4.8661812    3.0144567  
C   -1.9672763    4.2670980    2.1340760  
O   -0.6317799    4.5348357    2.2222825  
C   -2.4349662    3.3766292    1.1385118  
O   -1.4353184    2.8622274    0.3388631  
C   -3.7730325    3.0700583    1.0039033  
H   -6.8036783    3.0127567    1.4708515  
H   -5.2488482    5.6289120    4.3760012  
H   -2.4688804    5.5437973    3.7674095  
H   -0.2037239    4.0213917    1.5248525  
H   -1.8356400    2.2711229   -0.3060719  
H   -7.3911996    4.6366784    3.5412341  
C   -4.2186876    2.1401316   -0.0437264  
C   -5.4804255    1.7323137   -0.3144299  
C   -5.3466902    0.8217457   -1.4411423  
C   -3.8965667    0.7958595   -1.7293374  
N   -3.2302264    1.5666941   -0.9133756  
C   -3.3460097   -0.0004262   -2.7913647  
C   -4.2050300   -0.7376509   -3.5315801  
O   -3.8298201   -1.5261790   -4.5530897  
C   -5.6737588   -0.7329696   -3.2651715  
O   -6.3965398   -1.4282093   -3.9789291  
C   -6.2140639    0.0921557   -2.1701087  
H   -6.3895971    2.0144730    0.1884314  
H   -4.6590772   -1.9185774   -4.8809756  
H   -7.2835617    0.0678998   -2.0094328  
C    0.0000000    0.0000000    0.0000000  
C    1.0662919   -0.0000103   -0.8334272  
C    0.4961868    0.0000066   -2.1718889  
C   -0.9663860   -0.0000849   -1.9540248  
N   -1.2632775   -0.0000084   -0.6828659  
C   -1.8985364   -0.0000515   -3.0477258  
C   -1.3925778    0.0004567   -4.3020543  
O   -2.1456385    0.0005412   -5.4151314  
C    0.0786229    0.0009326   -4.5544999  
O    0.4683756    0.0012594   -5.7221104  
C    1.0143162    0.0008443   -3.4159034  
H    2.1107195    0.0000631   -0.5721869  
H   -1.5042277    0.0009692   -6.1484420  
H    2.0724151    0.0013151   -3.6409746  
C    0.0000000    0.0000000    1.4700000  
C    1.0541688    0.0001722    2.3260392  
C    0.5103138    0.0000454    3.6635956  
C   -0.9576371   -0.0002459    3.5155732  
N   -1.2018458    0.0001392    2.1615969  
C   -1.8348311   -0.0008317    4.5510609  
C   -1.2972847   -0.0009736    5.9014604  
O   -2.0050672   -0.0014265    6.9001319  
C    0.2542623   -0.0004184    6.0817573  
O    0.7184670   -0.0002256    7.2139121  
C    1.0974552   -0.0000873    4.8889129  
H    2.0940752    0.0005483    2.0517982  
H   -2.9081052   -0.0011668    4.4207061  
H    2.1707277    0.0000911    5.0223670  
H   -2.1128194   -0.0014912    1.7406791  
