64

C   -8.0534697   -0.5258634   -3.1490120  
C   -8.3296469    0.3249311   -2.1038604  
C   -9.7469315    0.3414055   -1.9437542  
C  -10.2870286   -0.5260337   -2.9275074  
N   -9.2317249   -1.0344791   -3.6433524  
C  -11.6597730   -0.7538251   -3.0634246  
C  -12.5026269   -0.0941554   -2.1901477  
O  -13.8518581   -0.2806711   -2.2784666  
C  -11.9828172    0.7756173   -1.2021647  
O  -12.9503161    1.3579267   -0.4095694  
C  -10.6287015    1.0010217   -1.0676765  
H   -7.5994936    0.8678457   -1.5284364  
H   -9.3061500   -1.6880692   -4.4018125  
H  -12.0777404   -1.4136210   -3.8112052  
H  -14.2487414    0.2647342   -1.5868876  
H  -12.5155385    1.9295999    0.2305579  
H  -10.2599967    1.6729252   -0.3014647  
C   -4.0038813    0.6892342   -2.0945599  
C   -3.2578655    0.0024282   -2.9908505  
C   -4.2205387   -0.7423517   -3.7877592  
C   -5.5362171   -0.3771142   -3.2201540  
N   -5.4155555    0.4618407   -2.2273874  
C   -6.7642689   -0.9125093   -3.7400844  
C   -6.6817364   -1.7733339   -4.7800384  
O   -7.7463804   -2.3488699   -5.3642740  
C   -5.3688433   -2.1611849   -5.3750538  
O   -5.3688998   -2.9498616   -6.3201511  
C   -4.1232463   -1.5984049   -4.8239726  
H   -7.3709642   -2.9062639   -6.0696302  
H   -3.1927619   -1.9043717   -5.2831166  
H   -3.6630770    1.3614030   -1.3231875  
C    0.0000000    0.0000000    0.0000000  
C    1.0521666   -0.0011982   -0.8862343  
C    0.4917215   -0.0011996   -2.1979132  
C   -0.9187429    0.0003215   -2.0478682  
N   -1.1833171   -0.0009323   -0.7007913  
C   -1.7951703    0.0010483   -3.1372089  
C   -1.2375841    0.0005313   -4.4010422  
O   -2.0474218    0.0015510   -5.4997578  
C    0.1673576   -0.0013585   -4.5711963  
O    0.5673520   -0.0020735   -5.8915554  
C    1.0325768   -0.0023493   -3.4969892  
H    2.0953056   -0.0030808   -0.6200564  
H   -2.0989778    0.0102529   -0.2891822  
H   -1.4634888    0.0006601   -6.2693595  
H    1.5290707   -0.0033271   -5.9180047  
H    2.1042146   -0.0039770   -3.6584456  
C    3.3041272   -0.0001177    3.0120429  
C    2.5845372    0.0004780    1.8395852  
C    1.2040006    0.0000008    2.1983588  
C    1.1422373   -0.0006037    3.6154372  
N    2.4348639   -0.0026109    4.0777464  
C   -0.0655181   -0.0008797    4.3197917  
C   -1.2321768   -0.0002324    3.5801400  
O   -2.4392816   -0.0001146    4.2172520  
C   -1.1911209    0.0000007    2.1655264  
O   -2.4371527    0.0002320    1.5732860  
C    0.0000000    0.0000000    1.4700000  
H    3.0031534    0.0000661    0.8477417  
H    2.7054629    0.0071099    5.0445261  
H   -0.1193549   -0.0014844    5.3997470  
H   -3.1132988    0.0000648    3.5251786  
H   -2.3200282    0.0004071    0.6183591  
H    4.3686625   -0.0004071    3.1724291  
