60

C   -3.3460099   -0.0004264   -2.7913642  
C   -4.0351704    0.0002976   -1.6007658  
C   -5.4244878    0.0000967   -1.9238714  
C   -5.5227201   -0.0010535   -3.3388893  
N   -4.2424277    0.0006062   -3.8343326  
C   -6.7482125   -0.0018513   -4.0119101  
C   -7.8954388   -0.0017882   -3.2424610  
O   -9.1185486   -0.0028969   -3.8482781  
C   -7.8179694   -0.0002734   -1.8293748  
O   -9.0483379    0.0000108   -1.2052453  
C   -6.6093340    0.0007875   -1.1647513  
H   -3.5911530    0.0020019   -0.6200319  
H   -3.9968115   -0.0102580   -4.8077475  
H   -6.8298412   -0.0025850   -5.0901210  
H   -9.7745213   -0.0023402   -3.1390781  
H   -8.9066632    0.0010310   -0.2536515  
H   -6.5814270    0.0021213   -0.0813780  
C    0.0000000    0.0000000    0.0000000  
C    1.0662919   -0.0000103   -0.8334270  
C    0.4961866    0.0000065   -2.1718889  
C   -0.9663862   -0.0000850   -1.9540246  
N   -1.2632775   -0.0000084   -0.6828656  
C   -1.8985367   -0.0000517   -3.0477255  
C   -1.3925784    0.0004565   -4.3020543  
O   -2.1456390    0.0005410   -5.4151309  
C    0.0786224    0.0009324   -4.5544999  
O    0.4683751    0.0012590   -5.7221101  
C    1.0143159    0.0008443   -3.4159032  
H    2.1107193    0.0000633   -0.5721870  
H   -1.5042281    0.0009693   -6.1484413  
C    2.4521472    0.0014839   -3.7217486  
C    3.4891866    0.0014498   -2.8521921  
C    4.6797430    0.0022554   -3.6882990  
C    4.1623459    0.0025994   -5.0735368  
N    2.8572339    0.0022306   -5.0994565  
C    5.0381710    0.0034465   -6.2128416  
C    6.3703192    0.0043170   -5.9789282  
O    7.3023581    0.0051589   -6.9470941  
C    6.9233357    0.0043694   -4.5924459  
O    8.1464855    0.0050626   -4.4541531  
C    6.0043345    0.0034467   -3.4403348  
H    3.4509648    0.0010309   -1.7762669  
H    4.6325979    0.0034748   -7.2140514  
H    8.1530720    0.0056736   -6.4722907  
H    6.4446261    0.0036317   -2.4522189  
C    0.0000000    0.0000000    1.4700000  
C    1.0662921    0.0000102    2.3034270  
C    0.4961870   -0.0000064    3.6418889  
C   -0.9663858    0.0000850    3.4240247  
N   -1.2632773    0.0000084    2.1528658  
C   -1.8985362    0.0000517    4.5177257  
C   -1.3925775   -0.0004564    5.7720543  
O   -2.1456383   -0.0005410    6.8851312  
C    0.0786232   -0.0009323    6.0245000  
O    0.4683759   -0.0012588    7.1921102  
C    1.0143166   -0.0008442    4.8859032  
H    2.1107198   -0.0000632    2.0421868  
H   -2.9622183    0.0003270    4.3293377  
H   -1.5042274   -0.0009692    7.6184419  
H    2.0724152   -0.0013148    5.1109744  
