60

C    4.4883233   -2.1196450   -1.5653718  
C    3.2264833   -1.6584956   -1.8612908  
C    3.3569169   -0.7714020   -2.9706385  
C    4.7331979   -0.7306581   -3.3113977  
N    5.3921658   -1.5590348   -2.4372290  
C    5.2292260    0.0454725   -4.3632368  
C    4.3192903    0.7938751   -5.0844084  
O    4.7495993    1.5692568   -6.1220171  
C    2.9421617    0.7667152   -4.7594537  
O    2.1637867    1.5664734   -5.5705401  
C    2.4521480    0.0014830   -3.7217483  
H    2.3232778   -1.9274439   -1.3408304  
H    6.3797230   -1.7398425   -2.4416111  
H    6.2770271    0.0809794   -4.6279122  
H    3.9649670    2.0016675   -6.4834556  
H    1.2484454    1.4907074   -5.2841611  
H    4.8153071   -2.8029908   -0.8004673  
C    0.0000000    0.0000000    0.0000000  
C    1.0662921   -0.0000106   -0.8334269  
C    0.4961870    0.0000059   -2.1718889  
C   -0.9663856   -0.0000854   -1.9540246  
N   -1.2632773   -0.0000087   -0.6828657  
C   -1.8985362   -0.0000522   -3.0477258  
C   -1.3925773    0.0004558   -4.3020541  
O   -2.1456384    0.0005402   -5.4151311  
C    0.0786236    0.0009315   -4.5544999  
O    0.4683762    0.0012578   -5.7221098  
C    1.0143167    0.0008435   -3.4159031  
H    2.1107198    0.0000631   -0.5721865  
H   -1.5042271    0.0009682   -6.1484419  
C   -3.9884050    0.7039230   -1.8242583  
C   -3.3460094   -0.0004268   -2.7913647  
C   -4.3537580   -0.7427571   -3.5112426  
C   -5.6451795   -0.4107432   -2.8797465  
N   -5.3546446    0.4703280   -1.8637777  
C   -6.8441771   -0.9105386   -3.2725752  
C   -6.8640253   -1.8374916   -4.3919051  
O   -7.8934842   -2.3421824   -4.8206280  
C   -5.5080965   -2.2034215   -5.0755414  
O   -5.5122771   -2.9830147   -6.0186622  
C   -4.2805269   -1.6000822   -4.5627976  
H   -7.7799855   -0.6539438   -2.7957823  
H   -3.3459154   -1.8584828   -5.0418124  
H   -3.5786579    1.3738258   -1.0858633  
H   -6.0311467    0.8819827   -1.2473908  
C    3.2798086   -0.0005857    2.9199648  
C    2.5571146   -0.0005566    4.0696553  
C    1.1637436   -0.0001548    3.6910360  
C    1.1336965    0.0000200    2.2159470  
N    2.4483514    0.0001428    1.8102719  
C    0.0000000    0.0000000    1.4700000  
C   -1.2757367    0.0000186    2.1664417  
O   -2.3524596    0.0000640    1.5842315  
C   -1.2676493    0.0000873    3.7284083  
O   -2.3355761    0.0004100    4.3257297  
C    0.0181563   -0.0001760    4.4216297  
H    2.9547357   -0.0006076    5.0689105  
H    0.0150794   -0.0003319    5.5031631  
H    4.3498549   -0.0008612    2.7900019  
H    2.7563627   -0.0012824    0.8551938  
