64

C   -8.4348866    1.1158632   -2.2656130  
C   -7.6564181    0.0152630   -2.5397184  
C   -8.5377916   -1.1006180   -2.6519238  
C   -9.8529716   -0.6156655   -2.4350137  
N   -9.7543760    0.7335323   -2.2014292  
C  -10.9796332   -1.4427590   -2.4716192  
C  -10.7749278   -2.7837854   -2.7322375  
O  -11.8401332   -3.6358955   -2.7797731  
C   -9.4702774   -3.2866527   -2.9509345  
O   -9.4316606   -4.6434918   -3.1975917  
C   -8.3583122   -2.4713324   -2.9147037  
H  -10.5269548    1.3499568   -2.0250090  
H  -11.9846360   -1.0793426   -2.3070010  
H  -11.4807611   -4.5117791   -2.9719805  
H   -8.5150398   -4.9018099   -3.3342709  
H   -7.3714426   -2.8851521   -3.0859309  
H   -8.1531692    2.1430877   -2.1093961  
C   -4.4484552    2.1114132   -0.3461920  
C   -5.6479912    1.6480085   -0.7825916  
C   -5.3783932    0.7523819   -1.8825939  
C   -3.9129550    0.7318187   -2.0524731  
N   -3.4082403    1.5765167   -1.0908924  
C   -3.2578655    0.0024282   -2.9908505  
C   -4.0489186   -0.8168743   -3.8939083  
O   -3.5523768   -1.5094417   -4.7725987  
C   -5.6025059   -0.8101576   -3.7322731  
O   -6.2789756   -1.4957519   -4.4869982  
C   -6.1934212    0.0167335   -2.6830241  
H   -6.6117108    1.9044755   -0.3799967  
H   -4.2368622    2.7988447    0.4566508  
H   -2.4341398    1.7725006   -0.9503004  
C    0.0000000    0.0000000    0.0000000  
C    1.0521666   -0.0011982   -0.8862343  
C    0.4917215   -0.0011996   -2.1979132  
C   -0.9187429    0.0003215   -2.0478682  
N   -1.1833171   -0.0009323   -0.7007913  
C   -1.7951703    0.0010483   -3.1372089  
C   -1.2375841    0.0005313   -4.4010422  
O   -2.0474218    0.0015510   -5.4997578  
C    0.1673576   -0.0013585   -4.5711963  
O    0.5673520   -0.0020735   -5.8915554  
C    1.0325768   -0.0023493   -3.4969892  
H    2.0953056   -0.0030808   -0.6200564  
H   -2.0989778    0.0102529   -0.2891822  
H   -1.4634888    0.0006601   -6.2693595  
H    1.5290707   -0.0033271   -5.9180047  
H    2.1042146   -0.0039770   -3.6584456  
C    3.3003543   -0.0005276    2.9438989  
C    2.5232812   -0.0003497    4.0790748  
C    1.1623199    0.0001319    3.6520102  
C    1.1711883   -0.0000583    2.2336141  
N    2.4852299    0.0014920    1.8362361  
C    0.0000000    0.0000000    1.4700000  
C   -1.2020384   -0.0000520    2.1506477  
O   -2.3759250   -0.0003494    1.4542253  
C   -1.2314658    0.0005113    3.5655508  
O   -2.5054393    0.0008037    4.0950179  
C   -0.0764518    0.0007272    4.3195194  
H    2.8919952    0.0005619    5.0905303  
H    2.8036267   -0.0088181    0.8841339  
H   -3.0835639   -0.0000348    2.1118817  
H   -2.4360050    0.0011527    5.0545920  
H   -0.1304098    0.0013421    5.4019087  
H    4.3715549   -0.0004895    2.8367138  
