62

C    2.1141631   -0.0018201   -8.1569191  
C    3.2406278   -0.0012122   -7.3672709  
C    4.3646700   -0.0013472   -8.2454105  
C    3.8578609   -0.0017651   -9.5702020  
N    2.4879903   -0.0039952   -9.4803985  
C    4.6859549   -0.0016941  -10.6967222  
C    6.0505265   -0.0008849  -10.4819634  
O    6.9047596   -0.0004284  -11.5465285  
C    6.5753543   -0.0008336   -9.1676682  
O    7.9541384   -0.0004054   -9.1197269  
C    5.7590141   -0.0011768   -8.0558609  
H    3.2509204   -0.0018360   -6.2907550  
H    1.8552774    0.0057853  -10.2598596  
H    4.3059244   -0.0021550  -11.7090369  
H    7.7983927   -0.0001878  -11.1795329  
H    8.2263841   -0.0003723   -8.1969665  
H    6.1899441   -0.0013093   -7.0614885  
C   -0.1496416   -0.0015616   -4.3176961  
C    0.8738329   -0.0018841   -5.2031790  
C    0.2377941   -0.0027127   -6.5115956  
C   -1.2121173   -0.0029008   -6.2211820  
N   -1.4453512   -0.0021477   -4.9368177  
C   -2.1975660   -0.0036284   -7.2671154  
C   -1.7546864   -0.0037557   -8.5450793  
O   -2.5622321   -0.0044162   -9.6192806  
C   -0.2978793   -0.0032016   -8.8704624  
O    0.0332557   -0.0034788  -10.0560299  
C    0.6933429   -0.0025028   -7.7798645  
H    1.9299719   -0.0015050   -4.9942638  
H   -3.2505493   -0.0039571   -7.0260007  
H   -1.9581275   -0.0043075  -10.3836182  
C    3.3003544    0.0005274   -1.4738988  
C    2.5232813    0.0003494   -2.6090747  
C    1.1623199   -0.0001321   -2.1820103  
C    1.1711883    0.0000582   -0.7636141  
N    2.4852299   -0.0014920   -0.3662360  
C    0.0000000    0.0000000    0.0000000  
C   -1.2020383    0.0000519   -0.6806477  
O   -2.3759250    0.0003494    0.0157744  
C   -1.2314656   -0.0005115   -2.0955510  
O   -2.5054391   -0.0008040   -2.6250180  
C   -0.0764517   -0.0007275   -2.8495195  
H    2.8919953   -0.0005622   -3.6205304  
H    2.8036267    0.0088182    0.5858661  
H   -3.0835639    0.0000346   -0.6418817  
H   -2.4360050   -0.0011531   -3.5845921  
H    4.3715546    0.0004893   -1.3667137  
C    2.5528530    2.1414826    2.8079335  
C    2.0663498    1.7338582    4.0032312  
C    0.9804344    0.8229586    3.6752840  
C    0.9495562    0.7966882    2.1971295  
N    1.8690446    1.5676019    1.6831036  
C    0.0000000    0.0000000    1.4700000  
C   -0.8785127   -0.7372425    2.1869543  
O   -1.8187535   -1.5261249    1.6395491  
C   -0.8723269   -0.7321790    3.6796354  
O   -1.7010379   -1.4274584    4.2670412  
C    0.1115397    0.0933559    4.4024240  
H    2.4028853    2.0163452    4.9860947  
H   -2.2861435   -1.9184361    2.3990168  
H    0.0832434    0.0693689    5.4835595  
H    3.3664920    2.8238276    2.6198634  
