64

C    9.5423628   -0.6698979   -3.2748856  
C    8.7913859    0.0430120   -4.1805683  
C    9.7052284    0.7808660   -4.9899287  
C   11.0109544    0.4753085   -4.5277190  
N   10.8758487   -0.4068371   -3.4845593  
C   12.1629663    1.0262213   -5.0970642  
C   11.9937864    1.9013031   -6.1524258  
O   13.0848314    2.4677968   -6.7454853  
C   10.6991160    2.2189118   -6.6275776  
O   10.6969211    3.1060350   -7.6841535  
C    9.5621704    1.6760077   -6.0662099  
H   11.6335029   -0.8097802   -2.9634273  
H   13.1609463    0.7975062   -4.7493155  
H   12.7480596    3.0375724   -7.4491929  
H    9.7847542    3.2670360   -7.9442159  
H    8.5837570    1.9382442   -6.4514605  
H    9.2322302   -1.3441084   -2.4950031  
C    5.5764488    0.0083482   -1.0736993  
C    6.7920324    0.0210898   -1.7176408  
C    6.5213447    0.0205731   -3.1181150  
C    5.1110770    0.0074286   -3.2694408  
N    4.5679461   -0.0016854   -2.0086701  
C    4.4845810    0.0036235   -4.5193514  
C    5.2965301    0.0135701   -5.6368565  
O    4.7370945    0.0107593   -6.8818617  
C    6.7056512    0.0263689   -5.5063537  
O    7.3755159    0.0347625   -6.7124026  
C    7.3243921    0.0298564   -4.2736030  
H    7.7553653    0.0285926   -1.2370925  
H    3.4102461   -0.0065222   -4.6414306  
H    5.4703963    0.0186807   -7.5107261  
H    8.3210779    0.0432149   -6.5350766  
H    5.3490393    0.0041782   -0.0214509  
C    3.1301149   -0.0010311   -1.7028252  
C    2.5367768   -0.0002767   -0.4864665  
C    1.1089904    0.0001028   -0.7656183  
C    1.0177872   -0.0004148   -2.2415132  
N    2.1993578   -0.0011611   -2.7963820  
C   -0.2459209   -0.0002877   -2.9257118  
C   -1.3675319   -0.0000605   -2.1698524  
O   -2.6129313    0.0000867   -2.6748490  
C   -1.3083584    0.0000910   -0.6783232  
O   -2.3693261    0.0004206   -0.0541692  
C    0.0000000    0.0000000    0.0000000  
H    3.0096017   -0.0001007    0.4807525  
H   -0.2829630   -0.0004687   -4.0053125  
H   -3.1967441    0.0002094   -1.8949034  
C    0.8676693    0.7151171    2.2619005  
C    0.5875920    0.4624972    3.5848544  
C   -0.5048400   -0.4542819    3.6114698  
C   -0.8517165   -0.7276451    2.2635546  
N    0.0000000    0.0000000    1.4700000  
C   -1.8902865   -1.5946756    1.9108239  
C   -2.5912627   -2.1969500    2.9375057  
O   -3.6148162   -3.0527051    2.6493466  
C   -2.2603868   -1.9365747    4.2886322  
O   -3.0513550   -2.6123276    5.1947621  
C   -1.2361111   -1.0811317    4.6373480  
H    1.1060808    0.8876438    4.4271209  
H   -2.1597133   -1.8070987    0.8854031  
H   -3.9636755   -3.3565188    3.4974381  
H   -2.7621927   -2.3810384    6.0827341  
H   -1.0058879   -0.9010589    5.6809233  
H    1.6167816    1.3499334    1.8205408  
