62

C    0.5628247   -0.7213741   -9.5892560  
C    1.3706516   -0.7096719  -10.7026956  
C    1.3664976    0.6249314  -11.2061011  
C    0.5317822    1.3895583  -10.3513937  
N    0.0585240    0.5411041   -9.3814616  
C    0.2957947    2.7536651  -10.5471272  
C    0.9139457    3.3569414  -11.6251473  
O    0.7182009    4.6867509  -11.8624292  
C    1.7500474    2.6107852  -12.4894397  
O    2.2921746    3.3545113  -13.5172117  
C    1.9830891    1.2649678  -12.2971065  
H    1.8971775   -1.5588651  -11.1034881  
H   -0.3394264    3.3420127   -9.8994061  
H    1.2327877    4.9020085  -12.6511810  
H    2.8430061    2.7760779  -14.0534983  
H    2.6282643    0.7195951  -12.9759250  
H    0.3053292   -1.5307011   -8.9277096  
C    0.0796644   -0.6812980   -5.1990241  
C   -0.9736297    0.0040464   -4.6965763  
C   -1.5081916    0.7505043   -5.8250903  
C   -0.6327092    0.3877371   -6.9602179  
N    0.2998665   -0.4513330   -6.5993111  
C   -0.8331622    0.9253257   -8.2777544  
C   -1.8617114    1.7858882   -8.4534059  
O   -2.1648973    2.3633119   -9.6284377  
C   -2.7630768    2.1712712   -7.3277143  
O   -3.6792550    2.9598475   -7.5600632  
C   -2.5367630    1.6062685   -5.9855229  
H   -2.9414838    2.9199431   -9.4381002  
H   -3.2118810    1.9104827   -5.1969164  
H    0.7431974   -1.3540086   -4.6792574  
C    1.1188642    0.0008222   -0.8003808  
C    0.0000000    0.0000000    0.0000000  
C   -1.1323862    0.0008899   -0.8673528  
C   -0.6382663    0.0019679   -2.1969280  
N    0.7324016    0.0038481   -2.1202242  
C   -1.4770914    0.0027318   -3.3154808  
C   -2.8395473    0.0020945   -3.0876857  
O   -3.7039201    0.0024425   -4.1440349  
C   -3.3517868    0.0013931   -1.7684331  
O   -4.7300497    0.0012366   -1.7073121  
C   -2.5248543    0.0009123   -0.6644817  
H    1.3576314   -0.0056167   -2.9057046  
H   -4.5940032    0.0021826   -3.7685128  
H   -4.9934602    0.0007259   -0.7819913  
H   -2.9462577    0.0005603    0.3339659  
H    2.1619895    0.0009355   -0.5342068  
C    0.8681109    0.7263879    2.2709268  
C    0.6127770    0.5096195    3.5869401  
C   -0.4920590   -0.4175482    3.6542670  
C   -0.8620974   -0.7254003    2.2596025  
N    0.0000000    0.0000000    1.4700000  
C   -1.8641242   -1.5660088    1.8976294  
C   -2.6293522   -2.2103885    2.9520183  
O   -3.5512764   -2.9839180    2.7283916  
C   -2.2549728   -1.8987399    4.4361073  
O   -2.8923672   -2.4351063    5.3323774  
C   -1.1543735   -0.9755647    4.7012123  
H    1.1382914    0.9492124    4.4159191  
H   -2.1192137   -1.7782617    0.8686553  
H   -0.9013378   -0.7652422    5.7314848  
H    1.6172880    1.3558399    1.8188057  
