64

C   -3.3460099   -0.0004264   -2.7913642  
C   -4.0351704    0.0002976   -1.6007658  
C   -5.4244878    0.0000967   -1.9238714  
C   -5.5227201   -0.0010535   -3.3388893  
N   -4.2424277    0.0006062   -3.8343326  
C   -6.7482125   -0.0018513   -4.0119101  
C   -7.8954388   -0.0017882   -3.2424610  
O   -9.1185486   -0.0028969   -3.8482781  
C   -7.8179694   -0.0002734   -1.8293748  
O   -9.0483379    0.0000108   -1.2052453  
C   -6.6093340    0.0007875   -1.1647513  
H   -3.5911530    0.0020019   -0.6200319  
H   -3.9968115   -0.0102580   -4.8077475  
H   -6.8298412   -0.0025850   -5.0901210  
H   -9.7745213   -0.0023402   -3.1390781  
H   -8.9066632    0.0010310   -0.2536515  
H   -6.5814270    0.0021213   -0.0813780  
C    0.0000000    0.0000000    0.0000000  
C    1.0662919   -0.0000103   -0.8334270  
C    0.4961866    0.0000065   -2.1718889  
C   -0.9663862   -0.0000850   -1.9540246  
N   -1.2632775   -0.0000084   -0.6828656  
C   -1.8985367   -0.0000517   -3.0477255  
C   -1.3925784    0.0004565   -4.3020543  
O   -2.1456390    0.0005410   -5.4151309  
C    0.0786224    0.0009324   -4.5544999  
O    0.4683751    0.0012590   -5.7221101  
C    1.0143159    0.0008443   -3.4159032  
H    2.1107193    0.0000633   -0.5721870  
H   -1.5042281    0.0009693   -6.1484413  
C    4.4206217   -2.1198139   -1.5561259  
C    5.4069056   -1.6197473   -2.3744439  
C    4.7719037   -0.7451151   -3.3052453  
C    3.3859883   -0.7512896   -3.0033743  
N    3.2068294   -1.5976642   -1.9374618  
C    2.4521472    0.0014839   -3.7217486  
C    2.9260528    0.7748089   -4.7636502  
O    2.0575501    1.5296193   -5.4978017  
C    4.3052207    0.7939170   -5.0804276  
O    4.6197271    1.6131714   -6.1449704  
C    5.2270093    0.0513303   -4.3723335  
H    6.4549545   -1.8571126   -2.3092941  
H    2.3277571   -1.7949327   -1.4944062  
H    2.5878283    1.9847225   -6.1648478  
H    5.5693380    1.5686709   -6.2928315  
H    6.2770179    0.0860289   -4.6383344  
H    4.4867479   -2.8087415   -0.7315259  
C    1.1188642   -0.0008217    2.2703808  
C    0.0000000    0.0000000    1.4700000  
C   -1.1323862   -0.0008904    2.3373528  
C   -0.6382662   -0.0019682    3.6669281  
N    0.7324016   -0.0038477    3.5902241  
C   -1.4770914   -0.0027325    4.7854808  
C   -2.8395474   -0.0020958    4.5576857  
O   -3.7039201   -0.0024443    5.6140350  
C   -3.3517868   -0.0013946    3.2384331  
O   -4.7300496   -0.0012389    3.1773122  
C   -2.5248543   -0.0009135    2.1344818  
H    1.3576314    0.0056174    4.3757045  
H   -1.1067570   -0.0036993    5.8013813  
H   -4.5940033   -0.0021850    5.2385129  
H   -4.9934601   -0.0007286    2.2519915  
H   -2.9462578   -0.0005617    1.1360343  
H    2.1619896   -0.0009344    2.0042067  
