62

C    2.9574919   -0.0031016   -7.1333220  
C    3.5299055   -0.0054329   -5.8824007  
C    4.9437123   -0.0069977   -6.0714711  
C    5.1765117   -0.0052186   -7.4706590  
N    3.9493324   -0.0048217   -8.0860017  
C    6.4606299   -0.0057682   -8.0236797  
C    7.5292026   -0.0078503   -7.1482789  
O    8.8045368   -0.0081221   -7.6346292  
C    7.3172558   -0.0100221   -5.7490330  
O    8.4824577   -0.0123628   -5.0103560  
C    6.0507193   -0.0097546   -5.2027639  
H    2.9943354   -0.0070481   -4.9485082  
H    3.7977297    0.0069127   -9.0784027  
H    6.6447639   -0.0045647   -9.0891812  
H    9.3898485   -0.0099791   -6.8660769  
H    8.2506323   -0.0137004   -4.0766228  
H    5.9195682   -0.0116360   -4.1269973  
C   -0.8287671    0.0000935   -4.7555305  
C    0.4934748   -0.0006597   -5.1351930  
C    0.5171462   -0.0005563   -6.5613907  
C   -0.8317450    0.0005673   -7.0000451  
N   -1.6230471   -0.0010138   -5.8782354  
C   -1.1872834    0.0012736   -8.3522208  
C   -0.1624541    0.0011448   -9.2784519  
O   -0.4533751    0.0021632  -10.6120096  
C    1.1896019   -0.0003450   -8.8604089  
O    2.0936297   -0.0007027   -9.9025596  
C    1.5410843   -0.0013157   -7.5266237  
H    1.3371561   -0.0023206   -4.4664686  
H   -2.6269690    0.0098531   -5.8761615  
H   -2.2134625    0.0019868   -8.6930394  
H    0.3938023    0.0015725  -11.0762892  
H    2.9824062   -0.0017000   -9.5342132  
C    1.0672566   -0.0000698   -0.8321912  
C    0.0000000    0.0000000    0.0000000  
C   -1.1601226   -0.0000736   -0.8778472  
C   -0.5938732   -0.0000770   -2.2438435  
N    0.7113365   -0.0001555   -2.2234123  
C   -1.4286989   -0.0001880   -3.4135239  
C   -2.7683117   -0.0006800   -3.2270522  
O   -3.6653907   -0.0008306   -4.2276967  
C   -3.3702026   -0.0010611   -1.8610771  
O   -4.5974909   -0.0013781   -1.7662957  
C   -2.4926826   -0.0008944   -0.6770655  
H   -4.5324249   -0.0012263   -3.7833950  
H   -2.9677773   -0.0012975    0.2947963  
H    2.1134390   -0.0000546   -0.5705121  
C    0.0000000    0.0000000    1.4700000  
C    1.0662921    0.0000102    2.3034270  
C    0.4961870   -0.0000064    3.6418889  
C   -0.9663858    0.0000850    3.4240247  
N   -1.2632773    0.0000084    2.1528658  
C   -1.8985362    0.0000517    4.5177257  
C   -1.3925775   -0.0004564    5.7720543  
O   -2.1456383   -0.0005410    6.8851312  
C    0.0786232   -0.0009323    6.0245000  
O    0.4683759   -0.0012588    7.1921102  
C    1.0143166   -0.0008442    4.8859032  
H    2.1107198   -0.0000632    2.0421868  
H   -2.9622183    0.0003270    4.3293377  
H   -1.5042274   -0.0009692    7.6184419  
H    2.0724152   -0.0013148    5.1109744  
