60

C    9.8353159    0.7177417   -4.4460097  
C    9.2250472    0.0006541   -3.4431011  
C   10.2500023   -0.7262115   -2.7680207  
C   11.4754009   -0.4099534   -3.4085721  
N   11.1874836    0.4677150   -4.4241599  
C   12.7008703   -0.9484069   -3.0047371  
C   12.6891316   -1.8218000   -1.9345856  
O   13.8576955   -2.3763275   -1.4987277  
C   11.4766039   -2.1499668   -1.2827415  
O   11.6304928   -3.0338459   -0.2346869  
C   10.2672429   -1.6193569   -1.6807680  
H   11.8610389    0.8760851   -5.0466858  
H   13.6382693   -0.7114964   -3.4888397  
H   13.6279770   -2.9470575   -0.7539049  
H   10.7651642   -3.2025163    0.1504890  
H    9.3547752   -1.8894915   -1.1622051  
H    9.4128561    1.3866624   -5.1760998  
C    6.7793184   -0.0000202   -4.0582541  
C    7.7853564    0.0004709   -3.1461341  
C    7.1695420    0.0010648   -1.8401450  
C    5.7118176    0.0008487   -2.0678072  
N    5.5416283    0.0005848   -3.4330637  
C    4.7795901    0.0008674   -1.0815733  
C    5.2428769    0.0013428    0.2960699  
O    4.4818131    0.0014585    1.2547580  
C    6.7823177    0.0018303    0.5605058  
O    7.1842444    0.0025393    1.7162372  
C    7.6891545    0.0014823   -0.5847011  
H    8.7535772    0.0016181   -0.3930572  
H    6.8379584   -0.0005567   -5.1345671  
H    4.6549022   -0.0011624   -3.9029153  
C    3.3321168    0.0004716   -1.3379341  
C    2.6974177    0.0000118   -2.5332316  
C    1.2800432   -0.0002116   -2.2052842  
C    1.2395033    0.0000644   -0.7271298  
N    2.4394059    0.0005460   -0.2131041  
C    0.0000000    0.0000000    0.0000000  
C   -1.1468704    0.0000635   -0.7169542  
O   -2.3742206    0.0000074   -0.1695488  
C   -1.1388774    0.0001608   -2.2096352  
O   -2.2206238    0.0000906   -2.7970409  
C    0.1454514    0.0001818   -2.9324241  
H    3.1367978   -0.0000649   -3.5160956  
H   -2.9844350    0.0001027   -0.9290164  
H    0.1083567    0.0003684   -4.0135594  
C    2.4951002    2.0940188    2.9809380  
C    1.9440701    1.6314916    1.8291961  
C    0.8759964    0.7350050    2.2038498  
C    0.8497377    0.7130254    3.6788474  
N    1.8560616    1.5571714    4.0882609  
C   -0.0205033   -0.0168748    4.4215661  
C   -0.9962600   -0.8356168    3.7214979  
O   -1.8224391   -1.5286685    4.3006425  
C   -0.9864710   -0.8277881    2.1595606  
O   -1.8030528   -1.5133726    1.5592035  
C    0.0000000    0.0000000    1.4700000  
H    2.2509283    1.8888011    0.8310761  
H   -0.0229599   -0.0187323    5.5027230  
H    3.3143982    2.7817323    3.1139444  
H    2.0889452    1.7545833    5.0442112  
