60

C   11.0894622    2.1268492   -2.1787009  
C    9.8280838    1.6642951   -1.8830040  
C    9.9594049    0.7767990   -0.7740831  
C   11.3357266    0.7372686   -0.4333431  
N   11.9938645    1.5667250   -1.3071134  
C   11.8325311   -0.0388710    0.6181224  
C   10.9233457   -0.7885307    1.3389340  
O   11.3544315   -1.5639801    2.3761696  
C    9.5461910   -0.7625927    1.0139921  
O    8.7686167   -1.5635196    1.8246941  
C    9.0554111    0.0026475   -0.0233452  
H    8.9246087    1.9325893   -2.4033350  
H   12.9812409    1.7485185   -1.3026442  
H   12.8803692   -0.0734565    0.8827812  
H   10.5702321   -1.9973498    2.7374002  
H    7.8531999   -1.4885319    1.5383510  
H   11.4157613    2.8108898   -2.9432768  
C    7.0021977    0.0016964   -3.8667569  
C    5.7010038    0.0007394   -3.4946381  
C    5.7268785    0.0007367   -2.0400488  
C    7.1642508    0.0016711   -1.6928540  
N    7.9166770    0.0023173   -2.7595516  
C    7.6175797    0.0019951   -0.3291902  
C    6.6776994    0.0018010    0.6434145  
O    6.9577654    0.0020529    1.9577977  
C    5.2193467    0.0012353    0.3250321  
O    4.4197297    0.0009616    1.2608917  
C    4.7795901    0.0008674   -1.0815733  
H    4.8310653    0.0002032   -4.1288957  
H    6.0879580    0.0018433    2.3966452  
H    7.4070859    0.0020142   -4.8662762  
C    3.3321168    0.0004716   -1.3379341  
C    2.6974177    0.0000118   -2.5332316  
C    1.2800432   -0.0002116   -2.2052842  
C    1.2395033    0.0000644   -0.7271298  
N    2.4394059    0.0005460   -0.2131041  
C    0.0000000    0.0000000    0.0000000  
C   -1.1468704    0.0000635   -0.7169542  
O   -2.3742206    0.0000074   -0.1695488  
C   -1.1388774    0.0001608   -2.2096352  
O   -2.2206238    0.0000906   -2.7970409  
C    0.1454514    0.0001818   -2.9324241  
H    3.1367978   -0.0000649   -3.5160956  
H   -2.9844350    0.0001027   -0.9290164  
H    0.1083567    0.0003684   -4.0135594  
C    0.8400945    0.7047457    2.2710304  
C    0.0000000    0.0000000    1.4700000  
C   -0.8844236   -0.7423113    2.3369512  
C   -0.4878984   -0.4098547    3.7186280  
N    0.5629682    0.4714286    3.6095011  
C   -1.0836927   -0.9095027    4.8308716  
C   -2.1891196   -1.8367527    4.6554461  
O   -2.7906899   -2.3413415    5.5944904  
C   -2.6257283   -2.2031529    3.2011665  
O   -3.5549479   -2.9829990    3.0410059  
C   -1.9068976   -1.5999348    2.0816745  
H   -0.7774656   -0.6525820    5.8354244  
H   -2.2155208   -1.8586617    1.0779135  
H    1.6384792    1.3747609    1.9961646  
H    1.0518368    0.8833920    4.3830260  
