60

C    0.3031304   -3.0256176  -10.3771264  
C    0.1352063   -2.2355645  -11.4907170  
C   -0.0884869   -0.9051667  -11.0274637  
C   -0.0453163   -0.9451472   -9.6102605  
N    0.1923421   -2.2478877   -9.2483166  
C   -0.2258923    0.1910652   -8.8157785  
C   -0.4539060    1.3895224   -9.4637663  
O   -0.6365627    2.5299349   -8.7363680  
C   -0.5009024    1.4496018  -10.8769187  
O   -0.7372953    2.7154862  -11.3718906  
C   -0.3231154    0.3290528  -11.6613216  
H    0.1686087   -2.5764240  -12.5113502  
H    0.2854552   -2.5805629   -8.3056401  
H   -0.7786426    3.2410727   -9.3746159  
H   -0.7536540    2.6682291  -12.3326730  
H   -0.3646944    0.4059408  -12.7415237  
H    0.4917409   -4.0826105  -10.2987116  
C    2.4064704   -2.0119089   -6.1315527  
C    1.9558553   -1.6301625   -4.9138521  
C    0.8614673   -0.7121809   -5.1897589  
C    0.7870640   -0.6537475   -6.6654397  
N    1.6902156   -1.4136448   -7.2229901  
C   -0.1829370    0.1586449   -7.3467641  
C   -1.0399147    0.8795790   -6.5883597  
O   -1.9953662    1.6801933   -7.0905244  
C   -0.9902404    0.8414487   -5.0969710  
O   -1.8010679    1.5235043   -4.4704093  
C    0.0139741    0.0003876   -4.4216236  
H    2.3209548   -1.9340559   -3.9477120  
H   -2.4403315    2.0553965   -6.3092554  
H    3.2136235   -2.6901819   -6.3583201  
C    3.2798085    0.0005853   -1.4499648  
C    2.5571144    0.0005562   -2.5996554  
C    1.1637436    0.0001546   -2.2210360  
C    1.1336965   -0.0000201   -0.7459470  
N    2.4483513   -0.0001430   -0.3402717  
C    0.0000000    0.0000000    0.0000000  
C   -1.2757367   -0.0000188   -0.6964414  
O   -2.3524597   -0.0000640   -0.1142313  
C   -1.2676494   -0.0000875   -2.2584081  
O   -2.3355762   -0.0004102   -2.8557294  
C    0.0181562    0.0001757   -2.9516296  
H    2.9547357    0.0006072   -3.5989105  
H    4.3498550    0.0008609   -1.3200021  
H    2.7563627    0.0012824    0.6148063  
C    0.8400945    0.7047457    2.2710304  
C    0.0000000    0.0000000    1.4700000  
C   -0.8844236   -0.7423113    2.3369512  
C   -0.4878984   -0.4098547    3.7186280  
N    0.5629682    0.4714286    3.6095011  
C   -1.0836927   -0.9095027    4.8308716  
C   -2.1891196   -1.8367527    4.6554461  
O   -2.7906899   -2.3413415    5.5944904  
C   -2.6257283   -2.2031529    3.2011665  
O   -3.5549479   -2.9829990    3.0410059  
C   -1.9068976   -1.5999348    2.0816745  
H   -0.7774656   -0.6525820    5.8354244  
H   -2.2155208   -1.8586617    1.0779135  
H    1.6384792    1.3747609    1.9961646  
H    1.0518368    0.8833920    4.3830260  
