62

C    2.9742269    0.0012771   -6.9991141  
C    3.5141430    0.0008933   -5.7338246  
C    4.9323624    0.0006557   -5.8863162  
C    5.2012202    0.0012000   -7.2790255  
N    3.9903433   -0.0003831   -7.9258576  
C    6.4991928    0.0014506   -7.7986964  
C    7.5448015    0.0014533   -6.8959888  
O    8.8322714    0.0020433   -7.3492384  
C    7.2967876    0.0005390   -5.5026820  
O    8.4425248    0.0002423   -4.7341561  
C    6.0165655    0.0000180   -4.9893060  
H    2.9546329   -0.0003085   -4.8140747  
H    3.8644105    0.0101332   -8.9218552  
H    6.7107842    0.0017213   -8.8590886  
H    9.3975382    0.0016353   -6.5658238  
H    8.1866611   -0.0003539   -3.8067203  
H    5.8576754   -0.0008623   -3.9172839  
C   -0.8287671    0.0000935   -4.7555305  
C    0.4829789    0.0003530   -5.1068098  
C    0.5323574    0.0005979   -6.5498614  
C   -0.8681890    0.0004882   -7.0138227  
N   -1.6437154   -0.0002183   -5.8774035  
C   -1.2464054    0.0010496   -8.3171481  
C   -0.2045430    0.0015867   -9.3305858  
O   -0.4431238    0.0020512  -10.5311605  
C    1.2854927    0.0014600   -8.8619716  
O    2.1713306    0.0016020   -9.7060991  
C    1.5684487    0.0011145   -7.4288673  
H    1.3204180    0.0001883   -4.4320437  
H   -2.2794297    0.0010872   -8.6361648  
H   -2.6471542    0.0011001   -5.8649191  
C    1.0672566   -0.0000698   -0.8321912  
C    0.0000000    0.0000000    0.0000000  
C   -1.1601226   -0.0000736   -0.8778472  
C   -0.5938732   -0.0000770   -2.2438435  
N    0.7113365   -0.0001555   -2.2234123  
C   -1.4286989   -0.0001880   -3.4135239  
C   -2.7683117   -0.0006800   -3.2270522  
O   -3.6653907   -0.0008306   -4.2276967  
C   -3.3702026   -0.0010611   -1.8610771  
O   -4.5974909   -0.0013781   -1.7662957  
C   -2.4926826   -0.0008944   -0.6770655  
H   -4.5324249   -0.0012263   -3.7833950  
H   -2.9677773   -0.0012975    0.2947963  
H    2.1134390   -0.0000546   -0.5705121  
C    0.8676693    0.7151171    2.2619005  
C    0.5875920    0.4624972    3.5848544  
C   -0.5048400   -0.4542819    3.6114698  
C   -0.8517165   -0.7276451    2.2635546  
N    0.0000000    0.0000000    1.4700000  
C   -1.8902865   -1.5946756    1.9108239  
C   -2.5912627   -2.1969500    2.9375057  
O   -3.6148162   -3.0527051    2.6493466  
C   -2.2603868   -1.9365747    4.2886322  
O   -3.0513550   -2.6123276    5.1947621  
C   -1.2361111   -1.0811317    4.6373480  
H    1.1060808    0.8876438    4.4271209  
H   -2.1597133   -1.8070987    0.8854031  
H   -3.9636755   -3.3565188    3.4974381  
H   -2.7621927   -2.3810384    6.0827341  
H   -1.0058879   -0.9010589    5.6809233  
H    1.6167816    1.3499334    1.8205408  
