60

C    8.1744148   -0.0025375   -2.6017018  
C    8.3530056   -0.0017047   -3.9657297  
C    9.7597867   -0.0025030   -4.2014545  
C   10.3943610   -0.0041130   -2.9328968  
N    9.4028538   -0.0021407   -1.9834087  
C   11.7843979   -0.0055541   -2.7826185  
C   12.5477414   -0.0056735   -3.9339154  
O   13.9097483   -0.0074046   -3.8447622  
C   11.9330787   -0.0037068   -5.2086713  
O   12.8290333   -0.0036787   -6.2577693  
C   10.5618308   -0.0020112   -5.3576767  
H    7.5661357    0.0004539   -4.7004570  
H    9.5502504   -0.0132085   -0.9903668  
H   12.2741847   -0.0066407   -1.8186113  
H   14.2427358   -0.0068713   -4.7516165  
H   12.3324805   -0.0023219   -7.0818063  
H   10.1196554   -0.0003423   -6.3470983  
C    5.6706431   -0.0000110   -2.2998307  
C    6.9366741   -0.0017183   -1.8086711  
C    6.8296106   -0.0022729   -0.3687500  
C    5.3870837   -0.0007670   -0.0590648  
N    4.7390840    0.0009613   -1.2727298  
C    4.8700559   -0.0011615    1.1956809  
C    5.7961368   -0.0029800    2.3159070  
O    5.4290426   -0.0034067    3.4836151  
C    7.3281306   -0.0043430    2.0112795  
O    8.1174244   -0.0055711    2.9463070  
C    7.7645002   -0.0040406    0.6172089  
H    3.8085777   -0.0001653    1.4010416  
H    8.8269284   -0.0051960    0.4147983  
H    5.3397978    0.0008359   -3.3257105  
C    3.2798077    0.0005856   -1.4499661  
C    2.5571132    0.0005565   -2.5996564  
C    1.1637425    0.0001547   -2.2210366  
C    1.1336959   -0.0000200   -0.7459475  
N    2.4483509   -0.0001429   -0.3402730  
C    0.0000000    0.0000000    0.0000000  
C   -1.2757370   -0.0000187   -0.6964411  
O   -2.3524597   -0.0000640   -0.1142306  
C   -1.2676502   -0.0000874   -2.2584078  
O   -2.3355774   -0.0004102   -2.8557287  
C    0.0181551    0.0001758   -2.9516297  
H    2.9547342    0.0006074   -3.5989118  
H    0.0150776    0.0003317   -4.0331632  
H    2.7563626    0.0012823    0.6148051  
C    0.8400945    0.7047457    2.2710304  
C    0.0000000    0.0000000    1.4700000  
C   -0.8844236   -0.7423113    2.3369512  
C   -0.4878984   -0.4098547    3.7186280  
N    0.5629682    0.4714286    3.6095011  
C   -1.0836927   -0.9095027    4.8308716  
C   -2.1891196   -1.8367527    4.6554461  
O   -2.7906899   -2.3413415    5.5944904  
C   -2.6257283   -2.2031529    3.2011665  
O   -3.5549479   -2.9829990    3.0410059  
C   -1.9068976   -1.5999348    2.0816745  
H   -0.7774656   -0.6525820    5.8354244  
H   -2.2155208   -1.8586617    1.0779135  
H    1.6384792    1.3747609    1.9961646  
H    1.0518368    0.8833920    4.3830260  
