62

C   -8.3771864    0.7372558   -2.7118774  
C   -9.6558087    0.7279489   -2.2044254  
C  -10.1450012   -0.6057741   -2.3327755  
C   -9.1118517   -1.3723575   -2.9301705  
N   -8.0534696   -0.5258634   -3.1490114  
C   -9.2456591   -2.7362507   -3.2070822  
C  -10.4441474   -3.3372975   -2.8745971  
O  -10.6281013   -4.6667985   -3.1227917  
C  -11.4869620   -2.5891677   -2.2782271  
O  -12.6182238   -3.3307944   -2.0069672  
C  -11.3557543   -1.2435595   -2.0050086  
H  -10.1727833    1.5781336   -1.7934311  
H   -8.4620705   -3.3260824   -3.6623720  
H  -11.5199872   -4.8803915   -2.8191765  
H  -13.2729910   -2.7511187   -1.6058942  
H  -12.1720146   -0.6966428   -1.5477580  
H   -7.6710332    1.5452817   -2.7978980  
C   -4.0038810    0.6892344   -2.0945597  
C   -3.2578655    0.0024282   -2.9908505  
C   -4.2205387   -0.7423515   -3.7877591  
C   -5.5362170   -0.3771143   -3.2201536  
N   -5.4155555    0.4618406   -2.2273872  
C   -6.7642688   -0.9125093   -3.7400838  
C   -6.6817368   -1.7733335   -4.7800375  
O   -7.7463803   -2.3488702   -5.3642737  
C   -5.3688438   -2.1611851   -5.3750536  
O   -5.3689003   -2.9498618   -6.3201509  
C   -4.1232465   -1.5984046   -4.8239722  
H   -7.3709642   -2.9062640   -6.0696295  
H   -3.1927619   -1.9043717   -5.2831166  
H   -3.6630768    1.3614030   -1.3231875  
C    0.0000000    0.0000000    0.0000000  
C    1.0521666   -0.0011982   -0.8862343  
C    0.4917215   -0.0011996   -2.1979132  
C   -0.9187429    0.0003215   -2.0478682  
N   -1.1833171   -0.0009323   -0.7007913  
C   -1.7951703    0.0010483   -3.1372089  
C   -1.2375841    0.0005313   -4.4010422  
O   -2.0474218    0.0015510   -5.4997578  
C    0.1673576   -0.0013585   -4.5711963  
O    0.5673520   -0.0020735   -5.8915554  
C    1.0325768   -0.0023493   -3.4969892  
H    2.0953056   -0.0030808   -0.6200564  
H   -2.0989778    0.0102529   -0.2891822  
H   -1.4634888    0.0006601   -6.2693595  
H    1.5290707   -0.0033271   -5.9180047  
H    2.1042146   -0.0039770   -3.6584456  
C    1.0672568    0.0000697    2.3021913  
C    0.0000000    0.0000000    1.4700000  
C   -1.1601224    0.0000736    2.3478473  
C   -0.5938729    0.0000769    3.7138435  
N    0.7113367    0.0001554    3.6934124  
C   -1.4286986    0.0001879    4.8835240  
C   -2.7683114    0.0006799    4.6970523  
O   -3.6653903    0.0008304    5.6976972  
C   -3.3702025    0.0010610    3.3310774  
O   -4.5974910    0.0013779    3.2362962  
C   -2.4926826    0.0008943    2.1470656  
H   -0.9878360   -0.0000190    5.8697035  
H   -4.5324246    0.0012261    5.2533954  
H   -2.9677772    0.0012974    1.1752040  
H    2.1134392    0.0000545    2.0405121  
