66

C    9.8914594    0.7045748   -0.9320730  
C   11.2428262    0.4528988   -0.9862322  
C   11.5395866   -0.4570779    0.0713481  
C   10.3195441   -0.7274562    0.7424069  
N    9.3393525   -0.0046449    0.1088567  
C   10.2353715   -1.5877900    1.8412837  
C   11.4040623   -2.1863133    2.2703610  
O   11.3787335   -3.0355040    3.3386524  
C   12.6311852   -1.9288247    1.6140920  
O   13.7053865   -2.6001916    2.1606263  
C   12.7150123   -1.0799871    0.5301301  
H   11.9303442    0.8742968   -1.6994901  
H    9.3086036   -1.7979074    2.3571854  
H   12.2870359   -3.3376561    3.4688637  
H   14.4940757   -2.3712472    1.6594685  
H   13.6690937   -0.9019859    0.0479246  
H    9.2779835    1.3349836   -1.5527118  
C    5.6708528    0.0006681   -2.3611558  
C    4.7630507    0.0004755   -1.3275395  
C    5.5133494   -0.0015008   -0.1144244  
C    6.8855145   -0.0021652   -0.4737124  
N    6.9456605   -0.0027648   -1.8452079  
C    7.9149929   -0.0037508    0.4723109  
C    7.5526784   -0.0043756    1.8053169  
O    8.5177183   -0.0055669    2.7705681  
C    6.1889805   -0.0041051    2.1836619  
O    5.9909383   -0.0052314    3.5489905  
C    5.1728469   -0.0028142    1.2509254  
H    7.7894878    0.0072551   -2.3891166  
H    8.0554425   -0.0061235    3.6188400  
H    5.0439893   -0.0049335    3.7189642  
H    4.1374040   -0.0028198    1.5708260  
H    5.5098589    0.0015367   -3.4255988  
C    3.3003548    0.0005276   -1.4738982  
C    2.5232817    0.0003497   -2.6090743  
C    1.1623204   -0.0001319   -2.1820101  
C    1.1711886    0.0000583   -0.7636140  
N    2.4852302   -0.0014919   -0.3662356  
C    0.0000000    0.0000000    0.0000000  
C   -1.2020379    0.0000520   -0.6806479  
O   -2.3759249    0.0003495    0.0157742  
C   -1.2314652   -0.0005112   -2.0955511  
O   -2.5054384   -0.0008036   -2.6250184  
C   -0.0764510   -0.0007271   -2.8495195  
H    2.8919962   -0.0005619   -3.6205297  
H    2.8036267    0.0088181    0.5858667  
H   -3.0835636    0.0000348   -0.6418823  
H   -2.4360038   -0.0011526   -3.5845925  
H   -0.1304090   -0.0013420   -3.9319089  
C    2.5311839    2.1237619    3.0120429  
C    1.9795631    1.6616747    1.8395852  
C    0.9223175    0.7739173    2.1983588  
C    0.8753926    0.7337535    3.6154372  
N    1.8668922    1.5631002    4.0777464  
C   -0.0496243   -0.0427881    4.3197917  
C   -0.9437528   -0.7922060    3.5801400  
O   -1.8685244   -1.5680278    4.2172520  
C   -0.9124520   -0.7656372    2.1655264  
O   -1.8671164   -1.5663939    1.5732860  
C    0.0000000    0.0000000    1.4700000  
H    2.3005065    1.9304404    0.8477417  
H    2.0679347    1.7444845    5.0445261  
H   -0.0904770   -0.0778569    5.3997470  
H   -2.3849669   -2.0011402    3.5251786  
H   -1.7775064   -1.4909735    0.6183591  
H    3.3468514    2.8078103    3.1724291  
