64

C   -0.1918093   -0.6567193   -5.1170602  
C   -0.1066354   -0.3930688   -6.4645397  
C   -1.1576407    0.5190708   -6.7775728  
C   -1.8568371    0.7783666   -5.5710006  
N   -1.2456334    0.0471639   -4.5828767  
C   -2.9578877    1.6374766   -5.5046090  
C   -3.3602483    2.2461477   -6.6775553  
O   -4.4293569    3.0946485   -6.6693814  
C   -2.6756822    1.9997977   -7.8914322  
O   -3.1976931    2.6804256   -8.9719849  
C   -1.5895575    1.1521743   -7.9577217  
H    0.6225531   -0.8080758   -7.1391113  
H   -3.4951651    1.8391732   -4.5881742  
H   -4.5387591    3.4047763   -7.5777414  
H   -2.6783306    2.4586747   -9.7508904  
H    0.4148926   -1.2922824   -4.4950222  
C    1.1243406    0.0100009   -0.7919006  
C    0.7474076    0.0234600   -2.1148541  
C   -0.6787382    0.0234440   -2.1414701  
C   -1.1201747    0.0098511   -0.7935543  
N    0.0000000    0.0000000    0.0000000  
C   -2.4730817    0.0063527   -0.4408239  
C   -3.3971961    0.0170733   -1.4675058  
O   -4.7313519    0.0145913   -1.1793472  
C   -2.9763651    0.0303289   -2.8186326  
O   -4.0166478    0.0394824   -3.7247625  
C   -1.6418566    0.0335141   -3.1673479  
H    1.4178714    0.0311078   -2.9571209  
H   -2.8160166   -0.0041319    0.5845963  
H   -5.1938823    0.0230486   -2.0274382  
H   -3.6464679    0.0482029   -4.6127345  
H    2.1062468    0.0052974   -0.3505403  
C    0.1021880   -2.5066881   -9.7769537  
C    0.5544324   -1.9309228  -10.9416150  
C    0.2226813   -0.5451430  -10.8771513  
C   -0.4361876   -0.3320520   -9.6392459  
N   -0.4943637   -1.5439059   -8.9968729  
C   -0.9056486    0.9224596   -9.2385029  
C   -0.7060853    1.9812015  -10.1030352  
O   -1.1442358    3.2278962   -9.7612900  
C   -0.0511734    1.7885127  -11.3427045  
O    0.0707401    2.9405386  -12.0919157  
C    0.4119829    0.5511334  -11.7388174  
H    1.0601386   -2.4465369  -11.7399862  
H   -0.8972222   -1.7017747   -8.0909127  
H   -0.9075074    3.8109563  -10.4942741  
H    0.5236366    2.7232205  -12.9124414  
H    0.9097582    0.4341729  -12.6943369  
H    0.1566853   -3.5282246   -9.4416148  
C    2.5128556    2.1077716    2.9199648  
C    1.9592212    1.6432552    4.0696553  
C    0.8915788    0.7479214    3.6910360  
C    0.8684491    0.7287414    2.2159470  
N    1.8754542    1.5738793    1.8102719  
C    0.0000000    0.0000000    1.4700000  
C   -0.9772830   -0.8200135    2.1664417  
O   -1.8021297   -1.5120829    1.5842315  
C   -0.9711318   -0.8147624    3.7284083  
O   -1.7894187   -1.5009653    4.3257297  
C    0.0140216    0.0115358    4.4216297  
H    2.2638494    1.8988021    5.0689105  
H    0.0117648    0.0094386    5.5031631  
H    3.3327358    2.7953732    2.7900019  
H    2.1123206    1.7707734    0.8551938  
