60

C    1.0442345    0.0120824   -7.5868831  
C   -0.2695939    0.0128124   -7.1790581  
C   -1.0716824    0.0150435   -8.3585708  
C   -0.1844323    0.0153022   -9.4652385  
N    1.0925393    0.0154256   -8.9612939  
C   -0.6288468    0.0169944  -10.7908640  
C   -1.9938009    0.0181449  -11.0031816  
O   -2.4820322    0.0194627  -12.2777964  
C   -2.8950018    0.0182845   -9.9120112  
O   -4.2225329    0.0199135  -10.2875154  
C   -2.4572838    0.0168889   -8.6039877  
H   -0.6082197    0.0129599   -6.1571357  
H    1.9330886    0.0050472   -9.5102467  
H    0.0422346    0.0173447  -11.6387140  
H   -3.4450555    0.0204019  -12.2013036  
H   -4.7636278    0.0198694   -9.4920157  
H   -3.1713527    0.0172171   -7.7887675  
C    1.7334697    0.0049246   -3.2500361  
C    3.0913864    0.0046110   -3.2383151  
C    3.5242786    0.0065420   -4.6157897  
C    2.2984618    0.0080462   -5.4368632  
N    1.2476583    0.0065694   -4.5487757  
C    2.2819760    0.0104503   -6.7938550  
C    3.5566099    0.0114095   -7.4923122  
O    3.6472547    0.0134883   -8.7130007  
C    4.8674242    0.0095955   -6.6428609  
O    5.9464907    0.0100754   -7.2198161  
C    4.7574561    0.0073244   -5.1862366  
H    3.7182532    0.0030069   -2.3644448  
H    5.6697682    0.0062837   -4.6053670  
H    0.2773174    0.0086322   -4.8046684  
C    1.1319247    0.0015655   -0.8009267  
C    0.7969916    0.0034943   -2.1169401  
C   -0.6453337    0.0035710   -2.1842668  
C   -1.1266832    0.0015433   -0.7896026  
N    0.0000000    0.0000000    0.0000000  
C   -2.4346130    0.0013964   -0.4276294  
C   -3.4350109    0.0031408   -1.4820183  
O   -4.6384610    0.0030973   -1.2583915  
C   -2.9478956    0.0050505   -2.9661075  
O   -3.7809378    0.0062218   -3.8623775  
C   -1.5113821    0.0053090   -3.2312122  
H   -2.7664565    0.0000232    0.6013446  
H   -1.1823527    0.0068407   -4.2614846  
H    2.1104317    0.0009391   -0.3488056  
C    2.5128556    2.1077716    2.9199648  
C    1.9592212    1.6432552    4.0696553  
C    0.8915788    0.7479214    3.6910360  
C    0.8684491    0.7287414    2.2159470  
N    1.8754542    1.5738793    1.8102719  
C    0.0000000    0.0000000    1.4700000  
C   -0.9772830   -0.8200135    2.1664417  
O   -1.8021297   -1.5120829    1.5842315  
C   -0.9711318   -0.8147624    3.7284083  
O   -1.7894187   -1.5009653    4.3257297  
C    0.0140216    0.0115358    4.4216297  
H    2.2638494    1.8988021    5.0689105  
H    0.0117648    0.0094386    5.5031631  
H    3.3327358    2.7953732    2.7900019  
H    2.1123206    1.7707734    0.8551938  
