62

C    3.1072587   -3.5710490   -4.0996716  
C    4.1927290   -4.3745374   -4.3616411  
C    4.4586757   -4.2724243   -5.7592978  
C    3.4949534   -3.3847284   -6.3025852  
N    2.6887807   -2.9788121   -5.2682094  
C    3.4558846   -3.0490224   -7.6592598  
C    4.4072026   -3.6196021   -8.4824307  
O    4.4149400   -3.3259417   -9.8153664  
C    5.3767207   -4.5078864   -7.9591693  
O    6.2548358   -4.9929367   -8.9062616  
C    5.4156924   -4.8397301   -6.6209293  
H    4.7264444   -4.9628402   -3.6349759  
H    2.7238733   -2.3732274   -8.0795712  
H    5.1487242   -3.8227041  -10.2001433  
H    6.8758969   -5.5845375   -8.4704921  
H    6.1700854   -5.5232014   -6.2491274  
H    2.5975598   -3.3746721   -3.1719855  
C    1.5640650   -2.0395931   -5.3856081  
C    0.7230581   -1.5862621   -4.4205824  
C   -0.2043668   -0.6833976   -5.0605465  
C    0.1679199   -0.6476535   -6.4877525  
N    1.2472254   -1.4907308   -6.6189379  
C   -0.4698111    0.0915042   -7.4304336  
C   -1.5980276    0.9063962   -7.0113711  
O   -2.2374227    1.6070674   -7.7850208  
C   -2.0096059    0.8840406   -5.5047495  
O   -2.9576827    1.5662686   -5.1400902  
C   -1.2456329    0.0471727   -4.5828766  
H    0.7494882   -1.8536710   -3.3792337  
H   -0.1807621    0.1034055   -8.4721727  
H    1.7291266   -1.6799002   -7.4786088  
C    1.1243410    0.0099923   -0.7919003  
C    0.7474076    0.0234544   -2.1148543  
C   -0.6787381    0.0234490   -2.1414700  
C   -1.1201745    0.0098592   -0.7935546  
N    0.0000000    0.0000000    0.0000000  
C   -2.4730816    0.0063709   -0.4408240  
C   -3.3971958    0.0170982   -1.4675058  
O   -4.7313517    0.0146259   -1.1793471  
C   -2.9763648    0.0303504   -2.8186324  
O   -4.0166480    0.0395118   -3.7247624  
C   -1.6418562    0.0335260   -3.1673481  
H    1.4178717    0.0310972   -2.9571209  
H   -2.8160166   -0.0041111    0.5845966  
H   -5.1938818    0.0230867   -2.0274384  
H   -3.6464675    0.0482293   -4.6127343  
H    2.1062467    0.0052819   -0.3505407  
C    2.3971438    2.0127888    3.1728260  
C    1.9431056    1.6308205    1.9564670  
C    0.8496017    0.7127664    2.2356185  
C    0.7794028    0.6545384    3.7115134  
N    1.6840587    1.4146091    4.2663826  
C   -0.1885723   -0.1578550    4.3957118  
C   -1.0476298   -0.8789867    3.6398520  
O   -2.0015663   -1.6796266    4.1448486  
C   -1.0022026   -0.8410666    2.1483229  
O   -1.8147390   -1.5232959    1.5241687  
C    0.0000000    0.0000000    1.4700000  
H    2.3054237    1.9346118    0.9892483  
H   -0.2170646   -0.1815267    5.4753125  
H   -2.4487139   -2.0549881    3.3649027  
H    3.2048689    2.6911772    3.3971983  
