64

C    4.4996714   -0.9932550   -8.9045445  
C    4.7970795   -0.5805372  -10.1826999  
C    4.5438709    0.8221593  -10.2368105  
C    4.0902955    1.2131238   -8.9509862  
N    4.0734075    0.0863631   -8.1669317  
C    3.7458044    2.5317969   -8.6391912  
C    3.8615887    3.4729937   -9.6436422  
O    3.5387345    4.7753586   -9.3933943  
C    4.3119416    3.1023196  -10.9330600  
O    4.3728304    4.1538034  -11.8241374  
C    4.6517056    1.8015546  -11.2414397  
H    5.1517309   -1.2129074  -10.9785155  
H    3.3993150    2.8361888   -7.6611878  
H    3.6889103    5.2570424  -10.2172214  
H    4.6858998    3.8181794  -12.6696837  
H    4.9933705    1.5475937  -12.2380579  
H    4.5565177   -1.9725814   -8.4610964  
C    5.7258288   -2.1256350   -4.6503671  
C    5.5043005   -1.6279379   -5.9135734  
C    4.3814511   -0.7527181   -5.8252547  
C    3.9565273   -0.7561091   -4.4719793  
N    4.7930957   -1.6014631   -3.7863066  
C    2.8699641   -0.0020530   -4.0185824  
C    2.2003454    0.7697161   -4.9481847  
O    1.1324739    1.5256767   -4.5593574  
C    2.6089834    0.7860435   -6.3030157  
O    1.8406944    1.6040253   -7.1055001  
C    3.6806471    0.0421903   -6.7510614  
H    6.0803753   -1.8672192   -6.7909988  
H    4.7419878   -1.7968040   -2.8028376  
H    0.8162311    1.9793600   -5.3514599  
H    2.1830479    1.5576556   -8.0034136  
H    6.4744888   -2.8141557   -4.2976529  
C    3.2573670   -0.0002921   -1.5109382  
C    2.5379468   -0.0001711   -0.3591962  
C    1.1435043    0.0000330   -0.7338498  
C    1.1092608   -0.0000085   -2.2088474  
N    2.4227562    0.0001906   -2.6182610  
C   -0.0265533   -0.0002525   -2.9515663  
C   -1.3003033   -0.0002641   -2.2514979  
O   -2.3786785   -0.0004132   -2.8306425  
C   -1.2877724    0.0000310   -0.6895608  
O   -2.3539956    0.0003306   -0.0892035  
C    0.0000000    0.0000000    0.0000000  
H    2.9384091   -0.0000370    0.6389240  
H   -0.0296290   -0.0004088   -4.0327231  
H    4.3270394   -0.0004767   -1.6439445  
C    2.5311839    2.1237619    3.0120429  
C    1.9795631    1.6616747    1.8395852  
C    0.9223175    0.7739173    2.1983588  
C    0.8753926    0.7337535    3.6154372  
N    1.8668922    1.5631002    4.0777464  
C   -0.0496243   -0.0427881    4.3197917  
C   -0.9437528   -0.7922060    3.5801400  
O   -1.8685244   -1.5680278    4.2172520  
C   -0.9124520   -0.7656372    2.1655264  
O   -1.8671164   -1.5663939    1.5732860  
C    0.0000000    0.0000000    1.4700000  
H    2.3005065    1.9304404    0.8477417  
H    2.0679347    1.7444845    5.0445261  
H   -0.0904770   -0.0778569    5.3997470  
H   -2.3849669   -2.0011402    3.5251786  
H   -1.7775064   -1.4909735    0.6183591  
H    3.3468514    2.8078103    3.1724291  
