60

C    5.8529632   -0.7058930    3.1442462  
C    5.6633456   -0.4547062    4.4834315  
C    6.6863693    0.4543494    4.8854777  
C    7.4769247    0.7246962    3.7392397  
N    6.9446511    0.0027517    2.6999616  
C    8.5793112    1.5842269    3.7664137  
C    8.8891023    2.1819654    4.9726135  
O    9.9551333    3.0303534    5.0552513  
C    8.1125586    1.9244941    6.1273889  
O    8.5487649    2.5950234    7.2514246  
C    7.0250537    1.0764481    6.1013769  
H    4.8842561   -0.8758319    5.0955311  
H    9.1859584    1.7943165    2.8963310  
H    9.9935486    3.3320497    5.9721862  
H    7.9706622    2.3661507    7.9856039  
H    6.4492090    0.8984390    7.0020399  
H    5.2967196   -1.3355886    2.4711675  
C    4.7795901    0.0008674   -1.0815733  
C    5.7862015    0.0008770   -1.9861793  
C    7.0047289    0.0013409   -1.1913895  
C    6.5351378    0.0016825    0.2107760  
N    5.2316823    0.0013264    0.2814340  
C    7.4495164    0.0021404    1.3193780  
C    8.7728604    0.0018632    1.0399218  
O    9.7375503    0.0022374    1.9755576  
C    9.2780074    0.0011447   -0.3647085  
O   10.4956959    0.0010500   -0.5448630  
C    8.3200394    0.0007288   -1.4846285  
H    5.7111080    0.0005128   -3.0601606  
H   10.5714816    0.0018715    1.4718618  
H    8.7261888    0.0000952   -2.4872616  
C    3.3321168    0.0004716   -1.3379341  
C    2.6974177    0.0000118   -2.5332316  
C    1.2800432   -0.0002116   -2.2052842  
C    1.2395033    0.0000644   -0.7271298  
N    2.4394059    0.0005460   -0.2131041  
C    0.0000000    0.0000000    0.0000000  
C   -1.1468704    0.0000635   -0.7169542  
O   -2.3742206    0.0000074   -0.1695488  
C   -1.1388774    0.0001608   -2.2096352  
O   -2.2206238    0.0000906   -2.7970409  
C    0.1454514    0.0001818   -2.9324241  
H    3.1367978   -0.0000649   -3.5160956  
H   -2.9844350    0.0001027   -0.9290164  
H    0.1083567    0.0003684   -4.0135594  
C    0.8175213    0.6860729    2.3021913  
C    0.0000000    0.0000000    1.4700000  
C   -0.8887526   -0.7456559    2.3478473  
C   -0.4549825   -0.3816753    3.7138435  
N    0.5448156    0.4573574    3.6934124  
C   -1.0945674   -0.9182058    4.8835240  
C   -2.1210866   -1.7789155    4.6970523  
O   -2.8083856   -2.3554314    5.6976972  
C   -2.5824069   -2.1655116    3.3310774  
O   -3.5227682   -2.9541547    3.2362962  
C   -1.9100805   -1.6015804    2.1470656  
H   -0.7567140   -0.6349833    5.8697035  
H   -3.4728268   -2.9124471    5.2533954  
H   -2.2742832   -1.9066565    1.1752040  
H    1.6189533    1.3585343    2.0405121  
