66

C   -0.7566198   -0.6106078   -9.4361695  
C   -0.5176630   -0.5378853  -10.7889730  
C   -0.7374096    0.8166183  -11.1783724  
C   -1.1112696    1.5299363  -10.0107543  
N   -1.1149618    0.6331321   -8.9713572  
C   -1.4046808    2.8969012  -10.0210784  
C   -1.3188286    3.5558415  -11.2321121  
O   -1.5943569    4.8909946  -11.2989192  
C   -0.9478583    2.8614058  -12.4081053  
O   -0.9079057    3.6572201  -13.5343489  
C   -0.6585244    1.5128052  -12.3987097  
H   -0.2224746   -1.3602019  -11.4179826  
H   -1.6903561    3.4463104   -9.1346576  
H   -1.4762599    5.1482791  -12.2225652  
H   -0.6492932    3.1115455  -14.2833244  
H   -0.3773717    1.0078152  -13.3154528  
H   -0.7011854   -1.4515578   -8.7663268  
C    0.6781146   -0.7162593   -5.1604645  
C   -0.1387079    0.0017019   -4.3179684  
C   -1.0478133    0.7305974   -5.1406708  
C   -0.7352236    0.4146204   -6.4876569  
N    0.3186253   -0.4648426   -6.4638858  
C   -1.4322865    0.9549026   -7.5725470  
C   -2.4638932    1.8298701   -7.2925525  
O   -3.1776749    2.3862171   -8.3143196  
C   -2.7906201    2.1577860   -5.9551904  
O   -3.8423119    3.0433734   -5.8410698  
C   -2.1032024    1.6253716   -4.8844344  
H    0.7518621   -0.8734592   -7.2721674  
H   -3.8402285    2.9578205   -7.9049816  
H   -3.9981282    3.2117456   -4.9067381  
H   -2.3761707    1.8953587   -3.8709880  
H    1.4896301   -1.3866865   -4.9347903  
C    3.3041273    0.0001178   -1.5420428  
C    2.5845373   -0.0004780   -0.3695851  
C    1.2040007   -0.0000007   -0.7283589  
C    1.1422374    0.0006038   -2.1454372  
N    2.4348641    0.0026111   -2.6077464  
C   -0.0655179    0.0008799   -2.8497918  
C   -1.2321766    0.0002325   -2.1101402  
O   -2.4392814    0.0001148   -2.7472522  
C   -1.1911209   -0.0000007   -0.6955266  
O   -2.4371528   -0.0002320   -0.1032862  
C    0.0000000    0.0000000    0.0000000  
H    3.0031533   -0.0000660    0.6222584  
H    2.7054631   -0.0071097   -3.5745261  
H   -3.1132988   -0.0000648   -2.0551787  
H   -2.3200282   -0.0004072    0.8516409  
H    4.3686625    0.0004073   -1.7024290  
C    2.5311839    2.1237619    3.0120429  
C    1.9795631    1.6616747    1.8395852  
C    0.9223175    0.7739173    2.1983588  
C    0.8753926    0.7337535    3.6154372  
N    1.8668922    1.5631002    4.0777464  
C   -0.0496243   -0.0427881    4.3197917  
C   -0.9437528   -0.7922060    3.5801400  
O   -1.8685244   -1.5680278    4.2172520  
C   -0.9124520   -0.7656372    2.1655264  
O   -1.8671164   -1.5663939    1.5732860  
C    0.0000000    0.0000000    1.4700000  
H    2.3005065    1.9304404    0.8477417  
H    2.0679347    1.7444845    5.0445261  
H   -0.0904770   -0.0778569    5.3997470  
H   -2.3849669   -2.0011402    3.5251786  
H   -1.7775064   -1.4909735    0.6183591  
H    3.3468514    2.8078103    3.1724291  
