60

C    2.9287797    0.0029130   -7.1524616  
C    3.5752361    0.0029919   -5.9381463  
C    4.9751487    0.0036006   -6.2117242  
C    5.1235559    0.0041606   -7.6223635  
N    3.8616607    0.0017725   -8.1629472  
C    6.3721693    0.0051455   -8.2514507  
C    7.4913546    0.0058799   -7.4417585  
O    8.7352006    0.0072048   -8.0037712  
C    7.3637662    0.0049626   -6.0323131  
O    8.5712008    0.0054443   -5.3648959  
C    6.1322972    0.0037175   -5.4110170  
H    3.0966809    0.0015473   -4.9737939  
H    3.6507535    0.0121064   -9.1444726  
H    6.4920247    0.0054323   -9.3260851  
H    9.3655817    0.0072237   -7.2717292  
H    8.3958318    0.0047909   -4.4189310  
H    6.0659469    0.0028543   -4.3293173  
C   -0.8287671    0.0000935   -4.7555305  
C    0.4848185    0.0005138   -5.0812187  
C    0.5106016    0.0006421   -6.5358097  
C   -0.9135382    0.0001376   -6.9338163  
N   -1.7033612   -0.0001047   -5.8945040  
C   -1.3181683    0.0001438   -8.3127148  
C   -0.3443510    0.0010208   -9.2513378  
O   -0.5775769    0.0011273  -10.5748347  
C    1.1017794    0.0019184   -8.8813813  
O    1.9341176    0.0025677   -9.7882625  
C    1.4913205    0.0018497   -7.4600497  
H    1.3316906    0.0008024   -4.4164760  
H   -2.3661196   -0.0004377   -8.5748361  
H    0.3072628    0.0018589  -10.9825260  
C    1.0672566   -0.0000698   -0.8321912  
C    0.0000000    0.0000000    0.0000000  
C   -1.1601226   -0.0000736   -0.8778472  
C   -0.5938732   -0.0000770   -2.2438435  
N    0.7113365   -0.0001555   -2.2234123  
C   -1.4286989   -0.0001880   -3.4135239  
C   -2.7683117   -0.0006800   -3.2270522  
O   -3.6653907   -0.0008306   -4.2276967  
C   -3.3702026   -0.0010611   -1.8610771  
O   -4.5974909   -0.0013781   -1.7662957  
C   -2.4926826   -0.0008944   -0.6770655  
H   -4.5324249   -0.0012263   -3.7833950  
H   -2.9677773   -0.0012975    0.2947963  
H    2.1134390   -0.0000546   -0.5705121  
C    0.8681109    0.7263879    2.2709268  
C    0.6127770    0.5096195    3.5869401  
C   -0.4920590   -0.4175482    3.6542670  
C   -0.8620974   -0.7254003    2.2596025  
N    0.0000000    0.0000000    1.4700000  
C   -1.8641242   -1.5660088    1.8976294  
C   -2.6293522   -2.2103885    2.9520183  
O   -3.5512764   -2.9839180    2.7283916  
C   -2.2549728   -1.8987399    4.4361073  
O   -2.8923672   -2.4351063    5.3323774  
C   -1.1543735   -0.9755647    4.7012123  
H    1.1382914    0.9492124    4.4159191  
H   -2.1192137   -1.7782617    0.8686553  
H   -0.9013378   -0.7652422    5.7314848  
H    1.6172880    1.3558399    1.8188057  
