62

C   -3.2634629    0.0038206   -7.2789358  
C   -4.0011515    0.0056909   -6.1177814  
C   -5.3759558    0.0072184   -6.4979264  
C   -5.4157319    0.0058928   -7.9157921  
N   -4.1160895    0.0057901   -8.3579969  
C   -6.6124168    0.0065367   -8.6387946  
C   -7.7904070    0.0082485   -7.9173289  
O   -8.9874847    0.0085927   -8.5730874  
C   -7.7712964    0.0099652   -6.5022500  
O   -9.0263640    0.0119747   -5.9294088  
C   -6.5911075    0.0096045   -5.7883315  
H   -3.5979687    0.0070304   -5.1195654  
H   -3.8305397   -0.0056001   -9.3204478  
H   -6.6494964    0.0056780   -9.7194558  
H   -9.6721545    0.0101498   -7.8915527  
H   -8.9240650    0.0130152   -4.9727802  
H   -6.6079160    0.0111338   -4.7047297  
C    0.0950448    0.0004350   -4.4015596  
C    1.1162028   -0.0007529   -5.3233526  
C    0.5111088   -0.0004520   -6.6150419  
C   -0.8933808    0.0012343   -6.4167185  
N   -1.1116072   -0.0002161   -5.0613621  
C   -1.8066469    0.0022678   -7.4753655  
C   -1.2927268    0.0018935   -8.7575763  
O   -2.1397637    0.0032123   -9.8278748  
C    0.1055538   -0.0001573   -8.9758068  
O    0.4600367   -0.0006989  -10.3091058  
C    1.0070995   -0.0014509   -7.9319005  
H    2.1678556   -0.0028227   -5.0931014  
H   -2.0126134    0.0110222   -4.6185943  
H   -1.5825645    0.0023753  -10.6170468  
H    1.4202827   -0.0020784  -10.3685178  
H    2.0725706   -0.0031960   -8.1300093  
C    3.3321173    0.0004714   -1.3379336  
C    2.6974184    0.0000115   -2.5332313  
C    1.2800437   -0.0002119   -2.2052840  
C    1.2395034    0.0000643   -0.7271298  
N    2.4394063    0.0005459   -0.2131037  
C    0.0000000    0.0000000    0.0000000  
C   -1.1468702    0.0000634   -0.7169544  
O   -2.3742202    0.0000072   -0.1695489  
C   -1.1388770    0.0001606   -2.2096356  
O   -2.2206231    0.0000903   -2.7970412  
C    0.1454523    0.0001814   -2.9324241  
H    3.1367986   -0.0000653   -3.5160949  
H   -2.9844345    0.0001025   -0.9290168  
H    4.3940040    0.0007618   -1.1498638  
C    2.5528530    2.1414826    2.8079335  
C    2.0663498    1.7338582    4.0032312  
C    0.9804344    0.8229586    3.6752840  
C    0.9495562    0.7966882    2.1971295  
N    1.8690446    1.5676019    1.6831036  
C    0.0000000    0.0000000    1.4700000  
C   -0.8785127   -0.7372425    2.1869543  
O   -1.8187535   -1.5261249    1.6395491  
C   -0.8723269   -0.7321790    3.6796354  
O   -1.7010379   -1.4274584    4.2670412  
C    0.1115397    0.0933559    4.4024240  
H    2.4028853    2.0163452    4.9860947  
H   -2.2861435   -1.9184361    2.3990168  
H    0.0832434    0.0693689    5.4835595  
H    3.3664920    2.8238276    2.6198634  
