62

C    4.5052605   -0.4687481   -7.5527673  
C    5.5504579   -0.3534775   -8.4397525  
C    5.6082153    1.0144884   -8.8396689  
C    4.5648514    1.6917880   -8.1580649  
N    3.9135217    0.7615409   -7.3866850  
C    4.3240508    3.0603201   -8.3127414  
C    5.1517867    3.7578879   -9.1708977  
O    4.9612602    5.0963500   -9.3585953  
C    6.1979663    3.0997529   -9.8602327  
O    6.9341614    3.9316585  -10.6783358  
C    6.4359317    1.7496330   -9.7083296  
H    6.1916200   -1.1567834   -8.7600728  
H    3.5304111    3.5823942   -7.7962378  
H    5.6369335    5.3828745   -9.9867952  
H    7.6192897    3.4090097  -11.1061692  
H    7.2447209    1.2729753  -10.2497505  
H    4.1341546   -1.3314963   -7.0265510  
C    2.8405929   -0.6921309   -3.3577780  
C    3.4605005   -0.4644322   -4.5443456  
C    2.6384065    0.4700281   -5.2763163  
C    1.4804515    0.7702476   -4.4127200  
N    1.6628945    0.0339172   -3.2649299  
C    0.4713983    1.6144625   -4.7456128  
C    0.5296143    2.2710575   -6.0410006  
O   -0.3306356    3.0486829   -6.4328798  
C    1.7466562    1.9676503   -6.9718918  
O    1.8063695    2.5143194   -8.0649830  
C    2.7724696    1.0395721   -6.5026050  
H    4.3877454   -0.9013727   -4.8697892  
H   -0.3689173    1.8209737   -4.0974365  
H    3.1449056   -1.3294175   -2.5434380  
C    1.1243410    0.0100105   -0.7919003  
C    0.7474072    0.0234665   -2.1148542  
C   -0.6787384    0.0234379   -2.1414698  
C   -1.1201748    0.0098411   -0.7935547  
N    0.0000000    0.0000000    0.0000000  
C   -2.4730818    0.0063307   -0.4408240  
C   -3.3971962    0.0170429   -1.4675058  
O   -4.7313520    0.0145490   -1.1793468  
C   -2.9763654    0.0303020   -2.8186325  
O   -4.0166484    0.0394464   -3.7247625  
C   -1.6418567    0.0334992   -3.1673480  
H   -2.8160166   -0.0041569    0.5845966  
H   -5.1938823    0.0230023   -2.0274386  
H   -3.6464680    0.0481700   -4.6127343  
H   -1.3497475    0.0435647   -4.2109234  
H    2.1062466    0.0053162   -0.3505405  
C    2.5128556    2.1077716    2.9199648  
C    1.9592212    1.6432552    4.0696553  
C    0.8915788    0.7479214    3.6910360  
C    0.8684491    0.7287414    2.2159470  
N    1.8754542    1.5738793    1.8102719  
C    0.0000000    0.0000000    1.4700000  
C   -0.9772830   -0.8200135    2.1664417  
O   -1.8021297   -1.5120829    1.5842315  
C   -0.9711318   -0.8147624    3.7284083  
O   -1.7894187   -1.5009653    4.3257297  
C    0.0140216    0.0115358    4.4216297  
H    2.2638494    1.8988021    5.0689105  
H    0.0117648    0.0094386    5.5031631  
H    3.3327358    2.7953732    2.7900019  
H    2.1123206    1.7707734    0.8551938  
