60

C   -8.3961130    2.9231248   -1.7062403  
C   -9.6132475    2.4544143   -1.2687935  
C   -9.6544974    1.0603455   -1.5679099  
C   -8.4240405    0.7320998   -2.1925344  
N   -7.6841586    1.8863444   -2.2626181  
C   -8.1165488   -0.5616593   -2.6243042  
C   -9.0684153   -1.5419756   -2.4215562  
O   -8.8197538   -2.8224231   -2.8235949  
C  -10.3022029   -1.2340126   -1.8004721  
O  -11.1450590   -2.3184714   -1.6705357  
C  -10.6063366    0.0421487   -1.3745128  
H  -10.3778161    3.0449015   -0.7936592  
H   -6.7598532    1.9607368   -2.6474639  
H   -9.6026680   -3.3384798   -2.5912268  
H  -11.9548128   -2.0247050   -1.2420447  
H  -11.5597371    0.2479038   -0.9021029  
H   -7.9800892    3.9152528   -1.6666877  
C   -3.9884051    0.7039232   -1.8242583  
C   -3.3460097   -0.0004262   -2.7913647  
C   -4.3537581   -0.7427567   -3.5112428  
C   -5.6451795   -0.4107427   -2.8797465  
N   -5.3546451    0.4703284   -1.8637777  
C   -6.8441771   -0.9105381   -3.2725754  
C   -6.8640254   -1.8374909   -4.3919057  
O   -7.8934846   -2.3421816   -4.8206281  
C   -5.5080969   -2.2034208   -5.0755417  
O   -5.5122777   -2.9830138   -6.0186631  
C   -4.2805270   -1.6000813   -4.5627984  
H   -3.3459156   -1.8584818   -5.0418127  
H   -3.5786585    1.3738261   -1.0858631  
H   -6.0311467    0.8819829   -1.2473904  
C    0.0000000    0.0000000    0.0000000  
C    1.0662919   -0.0000103   -0.8334272  
C    0.4961868    0.0000066   -2.1718889  
C   -0.9663860   -0.0000849   -1.9540248  
N   -1.2632775   -0.0000084   -0.6828659  
C   -1.8985364   -0.0000515   -3.0477258  
C   -1.3925778    0.0004567   -4.3020543  
O   -2.1456385    0.0005412   -5.4151314  
C    0.0786229    0.0009326   -4.5544999  
O    0.4683756    0.0012594   -5.7221104  
C    1.0143162    0.0008443   -3.4159034  
H    2.1107195    0.0000631   -0.5721869  
H   -1.5042277    0.0009692   -6.1484420  
H    2.0724151    0.0013151   -3.6409746  
C    3.2798086   -0.0005857    2.9199648  
C    2.5571146   -0.0005566    4.0696553  
C    1.1637436   -0.0001548    3.6910360  
C    1.1336965    0.0000200    2.2159470  
N    2.4483514    0.0001428    1.8102719  
C    0.0000000    0.0000000    1.4700000  
C   -1.2757367    0.0000186    2.1664417  
O   -2.3524596    0.0000640    1.5842315  
C   -1.2676493    0.0000873    3.7284083  
O   -2.3355761    0.0004100    4.3257297  
C    0.0181563   -0.0001760    4.4216297  
H    2.9547357   -0.0006076    5.0689105  
H    0.0150794   -0.0003319    5.5031631  
H    4.3498549   -0.0008612    2.7900019  
H    2.7563627   -0.0012824    0.8551938  
