60

C    7.4297589   -5.4748001   -1.4773700  
C    8.7220826   -5.0061070   -1.5292711  
C    8.6479584   -3.6121117   -1.8223297  
C    7.2729811   -3.2838910   -1.9390964  
N    6.5609526   -4.4380796   -1.7258329  
C    6.8258252   -1.9902023   -2.2240697  
C    7.7841479   -1.0099323   -2.3939682  
O    7.4026821    0.2704461   -2.6734835  
C    9.1608818   -1.3178716   -2.2817394  
O    9.9908272   -0.2334650   -2.4781960  
C    9.6027430   -2.5939636   -2.0008935  
H    9.6091352   -5.5965588   -1.3759790  
H    5.5597740   -4.5124708   -1.7352782  
H    8.2155496    0.7864798   -2.7523497  
H   10.9022354   -0.5272109   -2.3851790  
H   10.6637763   -2.7997016   -1.9211549  
H    7.0590560   -6.4668785   -1.2841921  
C    4.3939408   -2.1065673   -1.5664979  
C    5.4031210   -1.6413498   -2.3470119  
C    4.8103423   -0.7457937   -3.3121173  
C    3.3627144   -0.7272473   -3.0278283  
N    3.1757285   -1.5729269   -1.9588325  
C    2.4521483    0.0014840   -3.7217481  
C    2.9297306    0.8221548   -4.8221798  
O    2.1884027    1.5142699   -5.5075341  
C    4.4587975    0.8175815   -5.1411450  
O    4.8725560    1.5043408   -6.0654969  
C    5.3421068   -0.0087721   -4.3221483  
H    6.3995022   -0.0062035   -4.5493762  
H    4.4376453   -2.7945223   -0.7378260  
H    2.2909017   -1.7703225   -1.5285258  
C    0.0000000    0.0000000    0.0000000  
C    1.0662923   -0.0000101   -0.8334270  
C    0.4961873    0.0000065   -2.1718887  
C   -0.9663854   -0.0000848   -1.9540250  
N   -1.2632773   -0.0000083   -0.6828660  
C   -1.8985359   -0.0000514   -3.0477261  
C   -1.3925770    0.0004566   -4.3020547  
O   -2.1456378    0.0005414   -5.4151314  
C    0.0786240    0.0009326   -4.5545000  
O    0.4683767    0.0012591   -5.7221100  
C    1.0143171    0.0008444   -3.4159031  
H    2.1107200    0.0000633   -0.5721865  
H   -2.9622181   -0.0003268   -2.8593381  
H   -1.5042265    0.0009697   -6.1484419  
C    1.0672568    0.0000697    2.3021913  
C    0.0000000    0.0000000    1.4700000  
C   -1.1601224    0.0000736    2.3478473  
C   -0.5938729    0.0000769    3.7138435  
N    0.7113367    0.0001554    3.6934124  
C   -1.4286986    0.0001879    4.8835240  
C   -2.7683114    0.0006799    4.6970523  
O   -3.6653903    0.0008304    5.6976972  
C   -3.3702025    0.0010610    3.3310774  
O   -4.5974910    0.0013779    3.2362962  
C   -2.4926826    0.0008943    2.1470656  
H   -0.9878360   -0.0000190    5.8697035  
H   -4.5324246    0.0012261    5.2533954  
H   -2.9677772    0.0012974    1.1752040  
H    2.1134392    0.0000545    2.0405121  
