62

C    5.1761129   -0.7305366   -8.6461855  
C    6.0607077   -0.7199874   -9.6996797  
C    6.0923119    0.6141018  -10.2034727  
C    5.1992778    1.3796178   -9.4107535  
N    4.6584901    0.5321634   -8.4758813  
C    4.9778603    2.7435294   -9.6240815  
C    5.6708035    3.3456924  -10.6562682  
O    5.4924650    4.6752633  -10.9081579  
C    6.5659004    2.5986376  -11.4584692  
O    7.1794677    3.3413032  -12.4460563  
C    6.7846218    1.2530119  -11.2487600  
H    6.6141960   -1.5696001  -10.0613452  
H    4.2984510    3.3325509   -9.0235334  
H    6.0615971    4.8897058  -11.6587362  
H    7.7668142    2.7623114  -12.9414313  
H    7.4761648    0.7069333  -11.8796668  
H    4.8723735   -1.5391830   -8.0036972  
C    4.3834955   -0.6859722   -4.3011933  
C    3.2973506   -0.0000934   -3.8752374  
C    2.8440573    0.7452243   -5.0395080  
C    3.7976377    0.3812809   -6.1094678  
N    4.7022577   -0.4574405   -5.6826203  
C    3.6909720    0.9175298   -7.4384316  
C    2.6775117    1.7779344   -7.6873016  
O    2.4582900    2.3541659   -8.8814286  
C    1.6987829    2.1644848   -6.6286089  
O    0.8014172    2.9528433   -6.9260092  
C    1.8294973    1.6008465   -5.2731940  
H    1.6702335    2.9110075   -8.7470890  
H    1.1002949    1.9058792   -4.5346484  
H    5.0085212   -1.3581665   -3.7350919  
C    3.3321174    0.0004714   -1.3379332  
C    2.6974186    0.0000115   -2.5332308  
C    1.2800441   -0.0002119   -2.2052838  
C    1.2395035    0.0000643   -0.7271293  
N    2.4394063    0.0005458   -0.2131034  
C    0.0000000    0.0000000    0.0000000  
C   -1.1468701    0.0000634   -0.7169542  
O   -2.3742201    0.0000072   -0.1695492  
C   -1.1388767    0.0001606   -2.2096354  
O   -2.2206229    0.0000903   -2.7970413  
C    0.1454526    0.0001815   -2.9324239  
H   -2.9844344    0.0001023   -0.9290168  
H    0.1083580    0.0003680   -4.0135594  
H    4.3940040    0.0007617   -1.1498630  
C    0.0000000    0.0000000    1.4700000  
C    1.0521667    0.0011902    2.3562342  
C    0.4917218    0.0011957    3.6679131  
C   -0.9187428   -0.0003148    3.5178682  
N   -1.1833171    0.0009411    2.1707914  
C   -1.7951701   -0.0010350    4.6072090  
C   -1.2375837   -0.0005224    5.8710424  
O   -2.0474215   -0.0015360    6.9697579  
C    0.1673580    0.0013566    6.0411963  
O    0.5673524    0.0020687    7.3615553  
C    1.0325770    0.0023412    4.9669890  
H    2.0953057    0.0030649    2.0900562  
H   -2.0989778   -0.0102372    1.7591824  
H   -2.8710934   -0.0020419    4.4995513  
H   -1.4634884   -0.0006497    7.7393593  
H    1.5290710    0.0033153    7.3880045  
H    2.1042148    0.0039609    5.1284455  
