62

C    7.5156892   -0.7421714   -4.7084940  
C    8.8799839   -0.7335972   -4.5321546  
C    9.3231224    0.5998665   -4.7773139  
C    8.1749492    1.3670541   -5.1014284  
N    7.0948291    0.5211534   -5.0523488  
C    8.2370537    2.7308919   -5.4028883  
C    9.4808519    3.3312616   -5.3763824  
O    9.5986176    4.6606780   -5.6623812  
C   10.6381478    2.5825223   -5.0556466  
O   11.8017694    3.3235121   -5.0718985  
C   10.5776617    1.2369680   -4.7584081  
H    9.4819059   -1.5840915   -4.2613365  
H    7.3656882    3.3211820   -5.6508422  
H   10.5379550    4.8737630   -5.5881873  
H   12.5349255    2.7434520   -4.8447070  
H   11.4811963    0.6895749   -4.5166170  
H    6.8096988   -1.5498051   -4.6175945  
C    3.4298634   -0.6917985   -3.0313909  
C    2.4861704   -0.0045255   -3.7159919  
C    3.2229048    0.7397797   -4.7258094  
C    4.6377454    0.3737856   -4.5002906  
N    4.7652643   -0.4651681   -3.5083810  
C    5.6998705    0.9085432   -5.3071427  
C    5.3638096    1.7694808   -6.2946565  
O    6.2517355    2.3444731   -7.1235179  
C    3.9449184    2.1580891   -6.5474272  
O    3.7122547    2.9468277   -7.4633852  
C    2.8734597    1.5959541   -5.7060568  
H    5.7142197    2.9021184   -7.7145004  
H    1.8586325    1.9024603   -5.9214876  
H    3.2895179   -1.3638312   -2.1997369  
C    0.0000000    0.0000000    0.0000000  
C    1.0521669   -0.0011848   -0.8862341  
C    0.4917221   -0.0011931   -2.1979130  
C   -0.9187427    0.0003100   -2.0478683  
N   -1.1833170   -0.0009472   -0.7007915  
C   -1.7951698    0.0010259   -3.1372090  
C   -1.2375835    0.0005161   -4.4010425  
O   -2.0474208    0.0015256   -5.4997580  
C    0.1673584   -0.0013557   -4.5711962  
O    0.5673529   -0.0020659   -5.8915551  
C    1.0325773   -0.0023359   -3.4969890  
H    2.0953059   -0.0030542   -0.6200560  
H   -2.0989777    0.0102265   -0.2891825  
H   -2.8710930    0.0020274   -3.0295514  
H   -1.4634881    0.0006427   -6.2693593  
H    1.5290715   -0.0033076   -5.9180042  
C    0.0000000    0.0000000    1.4700000  
C    1.0662921    0.0000102    2.3034270  
C    0.4961870   -0.0000064    3.6418889  
C   -0.9663858    0.0000850    3.4240247  
N   -1.2632773    0.0000084    2.1528658  
C   -1.8985362    0.0000517    4.5177257  
C   -1.3925775   -0.0004564    5.7720543  
O   -2.1456383   -0.0005410    6.8851312  
C    0.0786232   -0.0009323    6.0245000  
O    0.4683759   -0.0012588    7.1921102  
C    1.0143166   -0.0008442    4.8859032  
H    2.1107198   -0.0000632    2.0421868  
H   -2.9622183    0.0003270    4.3293377  
H   -1.5042274   -0.0009692    7.6184419  
H    2.0724152   -0.0013148    5.1109744  
