62

C   -0.3225998   -0.6934926   -9.5604432  
C    0.0087092   -0.6477121  -10.8948366  
C   -0.1832972    0.6984707  -11.3255627  
C   -0.6361948    1.4347142  -10.2009477  
N   -0.7115684    0.5589648   -9.1464347  
C   -0.9277167    2.8008941  -10.2588791  
C   -0.7586765    3.4354644  -11.4741668  
O   -1.0284907    4.7687235  -11.5865684  
C   -0.3080802    2.7179286  -12.6077111  
O   -0.1906046    3.4910011  -13.7443291  
C   -0.0205554    1.3700859  -12.5513569  
H    0.3460984   -1.4821943  -11.4854305  
H   -1.2733880    3.3677046   -9.4053931  
H   -0.8471587    5.0075246  -12.5049138  
H    0.1186312    2.9306580  -14.4626563  
H    0.3227015    0.8470726  -13.4362918  
H   -0.3135908   -1.5207610   -8.8716001  
C    0.8071496   -0.7052396   -5.2248761  
C   -0.0307352   -0.0004646   -4.4215603  
C   -0.9176980    0.7416309   -5.2860992  
C   -0.5250709    0.4090153   -6.6688504  
N    0.5261926   -0.4721444   -6.5625869  
C   -1.1240786    0.9084415   -7.7794666  
C   -2.2290975    1.8356035   -7.6010306  
O   -2.8333889    2.3399948   -8.5384326  
C   -2.6616047    2.2021689   -6.1455678  
O   -3.5904454    2.9819428   -5.9828763  
C   -1.9395302    1.5991863   -5.0280379  
H   -2.2453231    1.8580266   -4.0234404  
H    1.6063821   -1.3751332   -4.9521863  
H    1.0129011   -0.8841695   -7.3374394  
C    3.2573670   -0.0002920   -1.5109380  
C    2.5379468   -0.0001709   -0.3591961  
C    1.1435043    0.0000332   -0.7338500  
C    1.1092609   -0.0000082   -2.2088477  
N    2.4227562    0.0001909   -2.6182613  
C   -0.0265532   -0.0002522   -2.9515663  
C   -1.3003035   -0.0002639   -2.2514981  
O   -2.3786784   -0.0004131   -2.8306429  
C   -1.2877725    0.0000312   -0.6895608  
O   -2.3539958    0.0003307   -0.0892036  
C    0.0000000    0.0000000    0.0000000  
H    2.9384091   -0.0000369    0.6389239  
H    4.3270394   -0.0004765   -1.6439446  
H    2.7280494   -0.0013406   -3.5742113  
C    0.8576279    0.7185626    2.2703808  
C    0.0000000    0.0000000    1.4700000  
C   -0.8668858   -0.7285659    2.3373528  
C   -0.4876752   -0.4117774    3.6669281  
N    0.5635254    0.4678311    3.5902241  
C   -1.1297612   -0.9515493    4.7854808  
C   -2.1738724   -1.8268314    4.5576857  
O   -2.8357962   -2.3827064    5.6140350  
C   -2.5667212   -2.1555554    3.2384331  
O   -3.6226318   -3.0413663    3.1773122  
C   -1.9335634   -1.6236449    2.1344818  
H    1.0363952    0.8769718    4.3757045  
H   -0.8454472   -0.7142436    5.8013813  
H   -3.5178062   -2.9546422    5.2385129  
H   -3.8247440   -3.2102924    2.2519915  
H   -2.2566033   -1.8942483    1.1360343  
H    1.6567807    1.3889844    2.0042067  
