60

C    5.7185267   -3.5872729   -1.3631950  
C    5.7092834   -2.9338498   -2.5737404  
C    6.8914466   -3.3272233   -3.2682532  
C    7.5887467   -4.2297522   -2.4249625  
N    6.8500683   -4.3639938   -1.2756359  
C    8.8024113   -4.8207665   -2.7889829  
C    9.3214601   -4.4949783   -4.0269764  
O   10.5035346   -5.0437217   -4.4326781  
C    8.6407315   -3.5962280   -4.8823548  
O    9.2862299   -3.3728802   -6.0810162  
C    7.4435178   -3.0125935   -4.5237810  
H    7.0903868   -4.9496539   -0.4963857  
H    9.3388796   -5.5092924   -2.1507538  
H   10.6817834   -4.6880448   -5.3130114  
H    8.7608351   -2.7553809   -6.5989530  
H    6.9452702   -2.3277300   -5.1999393  
H    5.0082120   -3.5596233   -0.5547102  
C    4.6658421   -2.0084115   -3.0381693  
C    3.5410041   -1.6272099   -2.3893213  
C    2.8760349   -0.7078757   -3.2998926  
C    3.7621637   -0.6481452   -4.4821752  
N    4.8129012   -1.4085091   -4.3345739  
C    3.4519840    0.1658071   -5.6251348  
C    2.3083475    0.8869943   -5.5888132  
O    1.8948251    1.6890059   -6.5847139  
C    1.3931661    0.8475793   -4.4102331  
O    0.3692897    1.5299496   -4.4458473  
C    1.7334695    0.0049281   -3.2500363  
H    3.2040799   -1.9322774   -1.4133643  
H    4.1177943    0.1905568   -6.4754254  
H    1.0533189    2.0640199   -6.2678781  
C    1.1319246    0.0015678   -0.8009268  
C    0.7969914    0.0034958   -2.1169401  
C   -0.6453340    0.0035696   -2.1842669  
C   -1.1266832    0.0015410   -0.7896025  
N    0.0000000    0.0000000    0.0000000  
C   -2.4346129    0.0013913   -0.4276292  
C   -3.4350111    0.0031335   -1.4820181  
O   -4.6384614    0.0030875   -1.2583914  
C   -2.9478961    0.0050442   -2.9661074  
O   -3.7809382    0.0062135   -3.8623773  
C   -1.5113825    0.0053055   -3.2312122  
H   -2.7664565    0.0000174    0.6013448  
H   -1.1823533    0.0068381   -4.2614848  
H    2.1104316    0.0009435   -0.3488059  
C    0.8175213    0.6860729    2.3021913  
C    0.0000000    0.0000000    1.4700000  
C   -0.8887526   -0.7456559    2.3478473  
C   -0.4549825   -0.3816753    3.7138435  
N    0.5448156    0.4573574    3.6934124  
C   -1.0945674   -0.9182058    4.8835240  
C   -2.1210866   -1.7789155    4.6970523  
O   -2.8083856   -2.3554314    5.6976972  
C   -2.5824069   -2.1655116    3.3310774  
O   -3.5227682   -2.9541547    3.2362962  
C   -1.9100805   -1.6015804    2.1470656  
H   -0.7567140   -0.6349833    5.8697035  
H   -3.4728268   -2.9124471    5.2533954  
H   -2.2742832   -1.9066565    1.1752040  
H    1.6189533    1.3585343    2.0405121  
