60

C    4.5486888   -0.0000134   -7.8109729  
C    5.6256671    0.0002409   -8.6668842  
C    6.8004471    0.0008686   -7.8578770  
C    6.3741624    0.0006848   -6.5050258  
N    5.0013690    0.0020982   -6.5123491  
C    7.2684536    0.0008709   -5.4303012  
C    8.6176540    0.0009426   -5.7266718  
O    9.5343158    0.0007729   -4.7153629  
C    9.0625562    0.0015017   -7.0701295  
O   10.4359671    0.0019261   -7.2008367  
C    8.1808803    0.0015915   -8.1308717  
H    5.5712512    0.0011082   -9.7420737  
H    4.4166447   -0.0082407   -5.6962781  
H   10.4042801    0.0011590   -5.1353945  
H   10.6522704    0.0022628   -8.1382900  
H    8.5512778    0.0022065   -9.1493427  
H    3.4934435   -0.0000881   -8.0240814  
C    6.8354437    0.0008786   -4.0255229  
C    5.5758874    0.0005992   -3.5179853  
C    5.7016159    0.0007905   -2.0795737  
C    7.1480382    0.0012363   -1.7886223  
N    7.7802454    0.0008701   -3.0105895  
C    7.6812948    0.0019202   -0.5406876  
C    6.7698185    0.0020122    0.5914547  
O    7.1520245    0.0025452    1.7543043  
C    5.2340022    0.0012939    0.3067212  
O    4.4569006    0.0010578    1.2519059  
C    4.7795901    0.0008674   -1.0815733  
H    4.6629022    0.0001117   -4.0863787  
H    8.7453470    0.0023682   -0.3491099  
H    8.7747876    0.0025946   -3.1444910  
C    3.3321168    0.0004716   -1.3379341  
C    2.6974177    0.0000118   -2.5332316  
C    1.2800432   -0.0002116   -2.2052842  
C    1.2395033    0.0000644   -0.7271298  
N    2.4394059    0.0005460   -0.2131041  
C    0.0000000    0.0000000    0.0000000  
C   -1.1468704    0.0000635   -0.7169542  
O   -2.3742206    0.0000074   -0.1695488  
C   -1.1388774    0.0001608   -2.2096352  
O   -2.2206238    0.0000906   -2.7970409  
C    0.1454514    0.0001818   -2.9324241  
H    3.1367978   -0.0000649   -3.5160956  
H   -2.9844350    0.0001027   -0.9290164  
H    0.1083567    0.0003684   -4.0135594  
C    0.0000000    0.0000000    1.4700000  
C    1.0541688    0.0001722    2.3260392  
C    0.5103138    0.0000454    3.6635956  
C   -0.9576371   -0.0002459    3.5155732  
N   -1.2018458    0.0001392    2.1615969  
C   -1.8348311   -0.0008317    4.5510609  
C   -1.2972847   -0.0009736    5.9014604  
O   -2.0050672   -0.0014265    6.9001319  
C    0.2542623   -0.0004184    6.0817573  
O    0.7184670   -0.0002256    7.2139121  
C    1.0974552   -0.0000873    4.8889129  
H    2.0940752    0.0005483    2.0517982  
H   -2.9081052   -0.0011668    4.4207061  
H    2.1707277    0.0000911    5.0223670  
H   -2.1128194   -0.0014912    1.7406791  
