62

C    3.3041268    0.0001186   -1.5420437  
C    2.5845371   -0.0004775   -0.3695863  
C    1.2040003   -0.0000004   -0.7283592  
C    1.1422368    0.0006048   -2.1454375  
N    2.4348632    0.0026121   -2.6077469  
C   -0.0655188    0.0008807   -2.8497919  
C   -1.2321774    0.0002332   -2.1101395  
O   -2.4392822    0.0001156   -2.7472514  
C   -1.1911212   -0.0000004   -0.6955259  
O   -2.4371526   -0.0002318   -0.1032858  
C    0.0000000    0.0000000    0.0000000  
H    3.0031536   -0.0000659    0.6222571  
H    2.7054619   -0.0071085   -3.5745269  
H   -3.1132992   -0.0000643   -2.0551780  
H   -2.3200279   -0.0004073    0.8516411  
H    4.3686614    0.0004080   -1.7024305  
C    0.6366692   -0.6835170   -5.1902309  
C   -0.1387092    0.0017031   -4.3179684  
C   -1.0703988    0.7474291   -5.1500426  
C   -0.7050169    0.3844183   -6.5361532  
N    0.2949319   -0.4541525   -6.5660152  
C   -1.4022849    0.9213000   -7.6722260  
C   -2.4186296    1.7814191   -7.4343750  
O   -3.1551543    2.3581693   -8.3992230  
C   -2.8115384    2.1670324   -6.0469005  
O   -3.7463652    2.9551774   -5.9049579  
C   -2.0808439    1.6027575   -4.8981605  
H   -3.7968976    2.9146218   -7.9220662  
H   -2.3963422    1.9071172   -3.9091933  
H    1.4504351   -1.3557451   -4.9691702  
C   -0.1219919   -2.8573562   -9.6589446  
C   -0.5283538   -1.9801452   -8.7118698  
C   -0.6514281   -0.7080540   -9.4069499  
C   -0.2704551   -1.0082324  -10.8038524  
N    0.0408401   -2.2665770  -10.9576520  
C   -0.2628576    0.0033085  -11.8245451  
C   -0.6200044    1.2576243  -11.4661148  
O   -0.6577017    2.2987875  -12.3149960  
C   -1.0099429    1.5919876  -10.0645760  
O   -1.3234136    2.7547526   -9.8097544  
C   -1.0097458    0.5368555   -9.0356829  
H   -0.7209033   -2.1725695   -7.6702492  
H    0.0201234   -0.2441796  -12.8372555  
H   -0.9468086    3.0527588  -11.7699292  
H    0.0837268   -3.9098012   -9.5448723  
C    2.5311839    2.1237619    3.0120429  
C    1.9795631    1.6616747    1.8395852  
C    0.9223175    0.7739173    2.1983588  
C    0.8753926    0.7337535    3.6154372  
N    1.8668922    1.5631002    4.0777464  
C   -0.0496243   -0.0427881    4.3197917  
C   -0.9437528   -0.7922060    3.5801400  
O   -1.8685244   -1.5680278    4.2172520  
C   -0.9124520   -0.7656372    2.1655264  
O   -1.8671164   -1.5663939    1.5732860  
C    0.0000000    0.0000000    1.4700000  
H    2.3005065    1.9304404    0.8477417  
H    2.0679347    1.7444845    5.0445261  
H   -0.0904770   -0.0778569    5.3997470  
H   -2.3849669   -2.0011402    3.5251786  
H   -1.7775064   -1.4909735    0.6183591  
H    3.3468514    2.8078103    3.1724291  
