60

C    4.0053890   -0.5516631   -9.0311674  
C    4.6669709   -0.4463988  -10.2327067  
C    4.5745682    0.9172380  -10.6408195  
C    3.8392335    1.6023329   -9.6398925  
N    3.5073455    0.6806746   -8.6781162  
C    3.5548594    2.9693065   -9.7127209  
C    4.0215598    3.6572741  -10.8159303  
O    3.7725460    4.9938005  -10.9371805  
C    4.7567197    2.9912598  -11.8252771  
O    5.1516519    3.8140367  -12.8598820  
C    5.0373998    1.6426696  -11.7542194  
H    5.1550727   -1.2534343  -10.7517871  
H    2.9948047    3.4972889   -8.9532630  
H    4.1800896    5.2732664  -11.7672844  
H    5.6417721    3.2864817  -13.4979039  
H    5.6026203    1.1598290  -12.5428055  
H    3.8481454   -1.4085849   -8.3987762  
C    3.9401659   -0.7297684   -4.5164159  
C    4.0974222   -0.5149780   -5.8480353  
C    3.0659753    0.4122204   -6.2496023  
C    2.2893659    0.7222461   -5.0340559  
N    2.8699641   -0.0020530   -4.0185824  
C    1.2252020    1.5635280   -4.9952719  
C    0.8173885    2.2063907   -6.2333959  
O   -0.1284207    2.9803730   -6.3019364  
C    1.6253360    1.8924315   -7.5328017  
O    1.2911306    2.4275068   -8.5812585  
C    2.7538829    0.9687189   -7.4492041  
H    4.8499670   -0.9558997   -6.4772237  
H    0.6692887    1.7773825   -4.0929762  
H    4.5159219   -1.3586207   -3.8569165  
C    3.2573670   -0.0002921   -1.5109382  
C    2.5379468   -0.0001711   -0.3591962  
C    1.1435043    0.0000330   -0.7338498  
C    1.1092608   -0.0000085   -2.2088474  
N    2.4227562    0.0001906   -2.6182610  
C   -0.0265533   -0.0002525   -2.9515663  
C   -1.3003033   -0.0002641   -2.2514979  
O   -2.3786785   -0.0004132   -2.8306425  
C   -1.2877724    0.0000310   -0.6895608  
O   -2.3539956    0.0003306   -0.0892035  
C    0.0000000    0.0000000    0.0000000  
H    2.9384091   -0.0000370    0.6389240  
H   -0.0296290   -0.0004088   -4.0327231  
H    4.3270394   -0.0004767   -1.6439445  
C    0.0000000    0.0000000    1.4700000  
C    1.0541688    0.0001722    2.3260392  
C    0.5103138    0.0000454    3.6635956  
C   -0.9576371   -0.0002459    3.5155732  
N   -1.2018458    0.0001392    2.1615969  
C   -1.8348311   -0.0008317    4.5510609  
C   -1.2972847   -0.0009736    5.9014604  
O   -2.0050672   -0.0014265    6.9001319  
C    0.2542623   -0.0004184    6.0817573  
O    0.7184670   -0.0002256    7.2139121  
C    1.0974552   -0.0000873    4.8889129  
H    2.0940752    0.0005483    2.0517982  
H   -2.9081052   -0.0011668    4.4207061  
H    2.1707277    0.0000911    5.0223670  
H   -2.1128194   -0.0014912    1.7406791  
