60

C    4.4168704   -2.1225326    3.1717745  
C    4.7231691   -1.6239990    4.4168099  
C    5.8378731   -0.7493543    4.2523981  
C    6.1706929   -0.7539418    2.8735816  
N    5.2895061   -1.5994249    2.2464564  
C    7.2245580   -0.0007151    2.3474575  
C    7.9555720    0.7714397    3.2292583  
O    8.9951377    1.5266273    2.7688139  
C    7.6391109    0.7889573    4.6085200  
O    8.4600291    1.6071855    5.3568110  
C    6.5997555    0.0459228    5.1282944  
H    4.2073969   -1.8623686    5.3312236  
H    5.2741861   -1.7955185    1.2619293  
H    9.3641900    1.9807545    3.5374709  
H    8.1789058    1.5616370    6.2757769  
H    6.3811680    0.0793942    6.1892261  
H    3.6458801   -2.8109747    2.8708108  
C    4.7390840    0.0009613   -1.2727298  
C    5.7159780    0.0017142   -2.2159966  
C    6.9782053    0.0017426   -1.5148412  
C    6.6542735    0.0009093   -0.0754461  
N    5.2807306    0.0008644    0.0037338  
C    7.5764447    0.0002870    0.9201961  
C    8.9818047    0.0006747    0.5493874  
O    9.8878536    0.0002340    1.3724151  
C    9.3478544    0.0018088   -0.9691024  
O   10.5277192    0.0024502   -1.2934180  
C    8.2653746    0.0021245   -1.9499644  
H    5.5691183    0.0023772   -3.2813817  
H    8.5272584    0.0027055   -2.9993165  
H    4.7530487   -0.0011863    0.8573115  
C    3.2798077    0.0005856   -1.4499661  
C    2.5571132    0.0005565   -2.5996564  
C    1.1637425    0.0001547   -2.2210366  
C    1.1336959   -0.0000200   -0.7459475  
N    2.4483509   -0.0001429   -0.3402730  
C    0.0000000    0.0000000    0.0000000  
C   -1.2757370   -0.0000187   -0.6964411  
O   -2.3524597   -0.0000640   -0.1142306  
C   -1.2676502   -0.0000874   -2.2584078  
O   -2.3355774   -0.0004102   -2.8557287  
C    0.0181551    0.0001758   -2.9516297  
H    2.9547342    0.0006074   -3.5989118  
H    0.0150776    0.0003317   -4.0331632  
H    2.7563626    0.0012823    0.6148051  
C    2.5128556    2.1077716    2.9199648  
C    1.9592212    1.6432552    4.0696553  
C    0.8915788    0.7479214    3.6910360  
C    0.8684491    0.7287414    2.2159470  
N    1.8754542    1.5738793    1.8102719  
C    0.0000000    0.0000000    1.4700000  
C   -0.9772830   -0.8200135    2.1664417  
O   -1.8021297   -1.5120829    1.5842315  
C   -0.9711318   -0.8147624    3.7284083  
O   -1.7894187   -1.5009653    4.3257297  
C    0.0140216    0.0115358    4.4216297  
H    2.2638494    1.8988021    5.0689105  
H    0.0117648    0.0094386    5.5031631  
H    3.3327358    2.7953732    2.7900019  
H    2.1123206    1.7707734    0.8551938  
