60

C    5.1845524   -3.2392512   -9.4702427  
C    5.3986119   -2.4737930  -10.5930599  
C    5.0438227   -1.1336682  -10.2572183  
C    4.6170314   -1.1426414   -8.9045564  
N    4.7131146   -2.4370704   -8.4575224  
C    4.1924027    0.0106017   -8.2378397  
C    4.1990216    1.1945229   -8.9495030  
O    3.7945766    2.3504978   -8.3468763  
C    4.6210036    1.2236771  -10.3000209  
O    4.5697232    2.4783516  -10.8714274  
C    5.0397833    0.0863133  -10.9584696  
H    5.7643236   -2.8368711  -11.5382696  
H    4.4879211   -2.7490237   -7.5301851  
H    3.8757655    3.0474602   -9.0108907  
H    4.8707395    2.4100956  -11.7826545  
H    5.3572163    0.1395529  -11.9933015  
H    5.3295022   -4.2942086   -9.3120890  
C    5.7052416   -2.0986835   -4.6958674  
C    4.8302129   -1.6343311   -3.7670098  
C    3.9272652   -0.7382853   -4.4501079  
C    4.3509923   -0.7185539   -5.8632095  
N    5.4336789   -1.5634481   -5.9458739  
C    3.7483772    0.0103194   -6.8365046  
C    2.6063701    0.8302494   -6.4676276  
O    1.9959442    1.5225184   -7.2716460  
C    2.1405133    0.8248035   -4.9767380  
O    1.1803934    1.5114044   -4.6542327  
C    2.8699641   -0.0020530   -4.0185824  
H    4.8187250   -1.8901547   -2.7224829  
H    6.5257690   -2.7867004   -4.5723455  
H    5.9462312   -1.7623475   -6.7853834  
C    3.2573670   -0.0002921   -1.5109382  
C    2.5379468   -0.0001711   -0.3591962  
C    1.1435043    0.0000330   -0.7338498  
C    1.1092608   -0.0000085   -2.2088474  
N    2.4227562    0.0001906   -2.6182610  
C   -0.0265533   -0.0002525   -2.9515663  
C   -1.3003033   -0.0002641   -2.2514979  
O   -2.3786785   -0.0004132   -2.8306425  
C   -1.2877724    0.0000310   -0.6895608  
O   -2.3539956    0.0003306   -0.0892035  
C    0.0000000    0.0000000    0.0000000  
H    2.9384091   -0.0000370    0.6389240  
H   -0.0296290   -0.0004088   -4.0327231  
H    4.3270394   -0.0004767   -1.6439445  
C    2.3971438    2.0127888    3.1728260  
C    1.9431056    1.6308205    1.9564670  
C    0.8496017    0.7127664    2.2356185  
C    0.7794028    0.6545384    3.7115134  
N    1.6840587    1.4146091    4.2663826  
C   -0.1885723   -0.1578550    4.3957118  
C   -1.0476298   -0.8789867    3.6398520  
O   -2.0015663   -1.6796266    4.1448486  
C   -1.0022026   -0.8410666    2.1483229  
O   -1.8147390   -1.5232959    1.5241687  
C    0.0000000    0.0000000    1.4700000  
H    2.3054237    1.9346118    0.9892483  
H   -0.2170646   -0.1815267    5.4753125  
H   -2.4487139   -2.0549881    3.3649027  
H    3.2048689    2.6911772    3.3971983  
