62

C   -3.5842425   -0.0024181   -7.0539080  
C   -4.2788940   -0.0007238   -5.8665058  
C   -5.6667048   -0.0005785   -6.1960255  
C   -5.7584006   -0.0025273   -7.6114805  
N   -4.4758328   -0.0016555   -8.1010067  
C   -6.9807718   -0.0032490   -8.2901549  
C   -8.1315393   -0.0022875   -7.5260128  
O   -9.3518382   -0.0032815   -8.1374714  
C   -8.0605972    0.0000327   -6.1125847  
O   -9.2938342    0.0011617   -5.4941450  
C   -6.8550439    0.0010192   -5.4423861  
H   -3.8394106    0.0013887   -4.8837328  
H   -4.2257272   -0.0131901   -9.0732692  
H   -7.0574199   -0.0045887   -9.3687295  
H  -10.0110794   -0.0020518   -7.4313098  
H   -9.1565562    0.0026896   -4.5419077  
H   -6.8321410    0.0029828   -4.3588968  
C   -0.1496416   -0.0015616   -4.3176961  
C    0.8605985   -0.0020608   -5.2251593  
C    0.2508220   -0.0027749   -6.5339791  
C   -1.2079385   -0.0026207   -6.3130522  
N   -1.3844309   -0.0022742   -4.9485963  
C   -2.1356004   -0.0027546   -7.3035806  
C   -1.6659559   -0.0032979   -8.6790695  
O   -2.4225836   -0.0035184   -9.6412627  
C   -0.1253100   -0.0037218   -8.9363926  
O    0.2819500   -0.0044871  -10.0902550  
C    0.7762280   -0.0032490   -7.7870095  
H    1.9128694   -0.0021247   -5.0030348  
H    1.8415248   -0.0033416   -7.9737355  
H   -2.2733176   -0.0005422   -4.4828447  
C    3.3003544    0.0005274   -1.4738988  
C    2.5232813    0.0003494   -2.6090747  
C    1.1623199   -0.0001321   -2.1820103  
C    1.1711883    0.0000582   -0.7636141  
N    2.4852299   -0.0014920   -0.3662360  
C    0.0000000    0.0000000    0.0000000  
C   -1.2020383    0.0000519   -0.6806477  
O   -2.3759250    0.0003494    0.0157744  
C   -1.2314656   -0.0005115   -2.0955510  
O   -2.5054391   -0.0008040   -2.6250180  
C   -0.0764517   -0.0007275   -2.8495195  
H    2.8919953   -0.0005622   -3.6205304  
H    2.8036267    0.0088182    0.5858661  
H   -3.0835639    0.0000346   -0.6418817  
H   -2.4360050   -0.0011531   -3.5845921  
H    4.3715546    0.0004893   -1.3667137  
C    2.5528530    2.1414826    2.8079335  
C    2.0663498    1.7338582    4.0032312  
C    0.9804344    0.8229586    3.6752840  
C    0.9495562    0.7966882    2.1971295  
N    1.8690446    1.5676019    1.6831036  
C    0.0000000    0.0000000    1.4700000  
C   -0.8785127   -0.7372425    2.1869543  
O   -1.8187535   -1.5261249    1.6395491  
C   -0.8723269   -0.7321790    3.6796354  
O   -1.7010379   -1.4274584    4.2670412  
C    0.1115397    0.0933559    4.4024240  
H    2.4028853    2.0163452    4.9860947  
H   -2.2861435   -1.9184361    2.3990168  
H    0.0832434    0.0693689    5.4835595  
H    3.3664920    2.8238276    2.6198634  
