64

C   -1.2000939    0.6277267   -9.0632832  
C   -0.2274829   -0.2033408   -9.5690726  
C   -0.3347484   -0.1529730  -10.9905352  
C   -1.3993293    0.7330320  -11.2964574  
N   -1.9040715    1.1877664  -10.1035333  
C   -1.7883481    1.0236406  -12.6075639  
C   -1.0897590    0.4088640  -13.6284469  
O   -1.4277559    0.6574199  -14.9272888  
C   -0.0248163   -0.4785044  -13.3433316  
O    0.5714861   -1.0106685  -14.4678623  
C    0.3593294   -0.7658708  -12.0501278  
H    0.4724182   -0.7763405   -8.9852888  
H   -2.6610718    1.8397830  -10.0045070  
H   -2.5989525    1.6978938  -12.8473690  
H   -0.8240869    0.1350074  -15.4712871  
H    1.2797386   -1.5982899  -14.1873572  
H    1.1788100   -1.4498222  -11.8626697  
C    0.5332456   -0.7193585   -5.2240418  
C   -0.2963293   -0.0005341   -4.3948471  
C   -1.1923433    0.7280154   -5.2320895  
C   -0.8589931    0.4109477   -6.5738313  
N    0.1940937   -0.4688043   -6.5330672  
C   -1.5389806    0.9506277   -7.6698017  
C   -2.5745410    1.8261032   -7.4064882  
O   -3.2722193    2.3819000   -8.4396147  
C   -2.9218736    2.1551067   -6.0745972  
O   -3.9749411    3.0410853   -5.9774569  
C   -2.2513089    1.6232869   -4.9929147  
H    0.6396921   -0.8781470   -7.3342302  
H   -3.9408696    2.9540002   -8.0410249  
H   -4.1451803    3.2101965   -5.0457791  
H   -2.5398825    1.8941057   -3.9840239  
H    1.3409601   -1.3898547   -4.9853124  
C    3.1301146   -0.0010313   -1.7028256  
C    2.5367765   -0.0002766   -0.4864669  
C    1.1089901    0.0001027   -0.7656184  
C    1.0177865   -0.0004150   -2.2415133  
N    2.1993571   -0.0011612   -2.7963824  
C   -0.2459219   -0.0002879   -2.9257116  
C   -1.3675326   -0.0000606   -2.1698520  
O   -2.6129318    0.0000865   -2.6748483  
C   -1.3083588    0.0000910   -0.6783229  
O   -2.3693264    0.0004206   -0.0541685  
C    0.0000000    0.0000000    0.0000000  
H    3.0096016   -0.0001007    0.4807518  
H   -3.1967444    0.0002093   -1.8949026  
H    4.1849275   -0.0015114   -1.9271979  
C    2.5285572    2.1210227    2.9438989  
C    1.9331703    1.6216660    4.0790748  
C    0.8903039    0.7472258    3.6520102  
C    0.8972198    0.7527806    2.2336141  
N    1.9028376    1.5986179    1.8362361  
C    0.0000000    0.0000000    1.4700000  
C   -0.9207814   -0.7726952    2.1506477  
O   -1.8198395   -1.5274828    1.4542253  
C   -0.9436862   -0.7911793    3.5655508  
O   -1.9197945   -1.6098497    4.0950179  
C   -0.0590329   -0.0485852    4.3195194  
H    2.2150357    1.8593692    5.0905303  
H    2.1533708    1.7953814    0.8841339  
H   -2.3621246   -1.9821033    2.1118817  
H   -1.8668290   -1.5649508    5.0545920  
H   -0.1007624   -0.0827977    5.4019087  
H    3.3491200    2.8096064    2.8367138  
