62

C    0.0000000    0.0000000    0.0000000  
C    0.8624650    0.6026707   -0.8862345  
C    0.4034335    0.2811304   -2.1979133  
C   -0.7526801   -0.5268382   -2.0478689  
N   -0.9686613   -0.6796581   -0.7007920  
C   -1.4709353   -1.0290684   -3.1372098  
C   -1.0139476   -0.7095916   -4.4010432  
O   -1.6778303   -1.1733780   -5.4997590  
C    0.1378540    0.0949066   -4.5711968  
O    0.4658805    0.3238071   -5.8915553  
C    0.8470805    0.5904897   -3.4969894  
H    1.7179281    1.1996001   -0.6200558  
H   -1.7250493   -1.1958309   -0.2891839  
H   -2.3527528   -1.6455178   -3.0295525  
H   -1.1990481   -0.8390917   -6.2693605  
H    1.2542954    0.8745389   -5.9180043  
C    3.2099370    1.3549230   -2.9764949  
C    4.1217029    2.2557326   -3.4251592  
C    3.5108361    2.9592740   -4.5282033  
C    2.1587405    2.3904423   -4.6865015  
N    2.0389128    1.4226397   -3.7159919  
C    1.2618946    2.7888095   -5.6238786  
C    1.6545931    3.8483840   -6.5380040  
O    0.9180799    4.2769392   -7.4167463  
C    3.0818939    4.4650974   -6.3887335  
O    3.4238119    5.3575664   -7.1528364  
C    3.9594852    3.9526520   -5.3394072  
H    5.1095280    2.4096566   -3.0287713  
H    0.2750297    2.3584678   -5.7229395  
H    3.2950368    0.6471481   -2.1679759  
C    8.0439839    2.3809479   -4.4961637  
C    6.7087245    2.4330538   -4.7105168  
C    6.4204286    3.8403255   -4.9406722  
C    7.7321183    4.5131966   -4.8253575  
N    8.6876349    3.6628045   -4.5649510  
C    7.8757255    5.9335186   -4.9901304  
C    6.7597457    6.6490631   -5.2583104  
O    6.7468451    7.9811142   -5.4358319  
C    5.4216715    5.9989570   -5.3811159  
O    4.4488743    6.7121529   -5.6265508  
C    5.3003964    4.5404731   -5.2077908  
H    6.0061939    1.6172575   -4.7123262  
H    8.8464638    6.3988165   -4.9002746  
H    5.8133938    8.1990079   -5.6100251  
H    8.6497888    1.5134533   -4.2877724  
C    1.1243417   -0.0099156    2.2619005  
C    0.7474090   -0.0234034    3.5848544  
C   -0.6787367   -0.0234952    3.6114698  
C   -1.1201739   -0.0099357    2.2635546  
N    0.0000000    0.0000000    1.4700000  
C   -2.4730812   -0.0065396    1.9108239  
C   -3.3971947   -0.0173298    2.9375057  
O   -4.7313508   -0.0149487    2.6493466  
C   -2.9763630   -0.0305536    4.2886322  
O   -4.0166453   -0.0397858    5.1947621  
C   -1.6418541   -0.0336380    4.6373480  
H    1.4178735   -0.0310004    4.4271209  
H   -2.8160170    0.0039190    0.8854031  
H   -5.1938803   -0.0234410    3.4974381  
H   -3.6464643   -0.0484781    6.0827341  
H   -1.3497443   -0.0436789    5.6809233  
H    2.1062470   -0.0051382    1.8205408  
