64

C    2.3813727   -3.2486906   -8.8391805  
C    2.0259344   -1.9960041   -8.3954374  
C    2.0648698   -1.1272183   -9.5260537  
C    2.4535557   -1.9127030  -10.6413402  
N    2.6395992   -3.1954079  -10.1889326  
C    2.5951724   -1.3824693  -11.9272588  
C    2.3394648   -0.0348048  -12.0903296  
O    2.4621873    0.5344096  -13.3248126  
C    1.9509080    0.7655019  -10.9897169  
O    1.7327775    2.0885862  -11.3140778  
C    1.8112636    0.2431409   -9.7207944  
H    2.9087424   -3.9779806  -10.7573712  
H    2.8912316   -1.9757646  -12.7813958  
H    2.2416282    1.4688399  -13.2177702  
H    1.4743835    2.5588914  -10.5155482  
H    1.5123846    0.8808930   -8.8971311  
H    2.4725099   -4.1756651   -8.2993927  
C    2.2882815   -2.1097767   -5.8897967  
C    1.6780090   -1.6459960   -7.0107556  
C    0.6303819   -0.7506083   -6.5799497  
C    0.6807208   -0.7305950   -5.1055500  
N    1.7068261   -1.5753509   -4.7500430  
C   -0.1496415   -0.0015615   -4.3176961  
C   -1.1605341    0.8179097   -4.9650744  
O   -1.9554937    1.5101852   -4.3429046  
C   -1.2321584    0.8117734   -6.5254071  
O   -2.0792930    1.4975141   -7.0816292  
C   -0.2825941   -0.0147696   -7.2663562  
H   -0.3386968   -0.0132862   -8.3464369  
H    3.1137385   -2.7971809   -5.8004321  
H    1.9909862   -1.7716675   -3.8078331  
C    3.3003543    0.0005276   -1.4738987  
C    2.5232814    0.0003497   -2.6090747  
C    1.1623200   -0.0001320   -2.1820103  
C    1.1711883    0.0000582   -0.7636140  
N    2.4852300   -0.0014919   -0.3662360  
C    0.0000000    0.0000000    0.0000000  
C   -1.2020384    0.0000519   -0.6806477  
O   -2.3759249    0.0003493    0.0157743  
C   -1.2314656   -0.0005115   -2.0955510  
O   -2.5054392   -0.0008039   -2.6250180  
C   -0.0764516   -0.0007274   -2.8495195  
H    2.8919955   -0.0005620   -3.6205304  
H    2.8036267    0.0088183    0.5858662  
H   -3.0835638    0.0000347   -0.6418818  
H   -2.4360047   -0.0011529   -3.5845921  
H    4.3715549    0.0004895   -1.3667136  
C    2.5311839    2.1237619    3.0120429  
C    1.9795631    1.6616747    1.8395852  
C    0.9223175    0.7739173    2.1983588  
C    0.8753926    0.7337535    3.6154372  
N    1.8668922    1.5631002    4.0777464  
C   -0.0496243   -0.0427881    4.3197917  
C   -0.9437528   -0.7922060    3.5801400  
O   -1.8685244   -1.5680278    4.2172520  
C   -0.9124520   -0.7656372    2.1655264  
O   -1.8671164   -1.5663939    1.5732860  
C    0.0000000    0.0000000    1.4700000  
H    2.3005065    1.9304404    0.8477417  
H    2.0679347    1.7444845    5.0445261  
H   -0.0904770   -0.0778569    5.3997470  
H   -2.3849669   -2.0011402    3.5251786  
H   -1.7775064   -1.4909735    0.6183591  
H    3.3468514    2.8078103    3.1724291  
