60

C    9.1301371    0.0017086   -0.7534922  
C   10.1394274    0.0021717   -1.6882642  
C   11.3719279    0.0027615   -0.9702510  
C   11.0489883    0.0023402    0.4109211  
N    9.6795601    0.0036547    0.5072533  
C   12.0218601    0.0024276    1.4150673  
C   13.3448379    0.0026425    1.0176895  
O   14.3352288    0.0023853    1.9569123  
C   13.6870492    0.0034389   -0.3555210  
O   15.0466748    0.0039832   -0.5895365  
C   12.7278139    0.0036265   -1.3466775  
H   10.0039999    0.0031991   -2.7562768  
H    9.1581117   -0.0068511    1.3651354  
H   11.7822646    0.0022523    2.4694850  
H   15.1710016    0.0028988    1.4724041  
H   15.1915919    0.0044788   -1.5406426  
H   13.0202681    0.0044238   -2.3902040  
C    6.5739137    0.0018721   -4.3537915  
C    7.6280829    0.0019471   -3.4977528  
C    7.0842286    0.0017737   -2.1601962  
C    5.6162776    0.0015611   -2.3082181  
N    5.3720679    0.0020315   -3.6621942  
C    4.7390840    0.0009613   -1.2727298  
C    5.2766310    0.0007201    0.0776694  
O    4.5688490    0.0002470    1.0763413  
C    6.8281783    0.0011907    0.2579656  
O    7.2923831    0.0012996    1.3901201  
C    7.6713704    0.0015461   -0.9348791  
H    8.6679892    0.0022880   -3.7719942  
H    6.5739132    0.0019307   -5.4317019  
H    4.4610944    0.0004679   -4.0831118  
C    3.2798077    0.0005856   -1.4499661  
C    2.5571132    0.0005565   -2.5996564  
C    1.1637425    0.0001547   -2.2210366  
C    1.1336959   -0.0000200   -0.7459475  
N    2.4483509   -0.0001429   -0.3402730  
C    0.0000000    0.0000000    0.0000000  
C   -1.2757370   -0.0000187   -0.6964411  
O   -2.3524597   -0.0000640   -0.1142306  
C   -1.2676502   -0.0000874   -2.2584078  
O   -2.3355774   -0.0004102   -2.8557287  
C    0.0181551    0.0001758   -2.9516297  
H    2.9547342    0.0006074   -3.5989118  
H    0.0150776    0.0003317   -4.0331632  
H    2.7563626    0.0012823    0.6148051  
C    0.8175213    0.6860729    2.3021913  
C    0.0000000    0.0000000    1.4700000  
C   -0.8887526   -0.7456559    2.3478473  
C   -0.4549825   -0.3816753    3.7138435  
N    0.5448156    0.4573574    3.6934124  
C   -1.0945674   -0.9182058    4.8835240  
C   -2.1210866   -1.7789155    4.6970523  
O   -2.8083856   -2.3554314    5.6976972  
C   -2.5824069   -2.1655116    3.3310774  
O   -3.5227682   -2.9541547    3.2362962  
C   -1.9100805   -1.6015804    2.1470656  
H   -0.7567140   -0.6349833    5.8697035  
H   -3.4728268   -2.9124471    5.2533954  
H   -2.2742832   -1.9066565    1.1752040  
H    1.6189533    1.3585343    2.0405121  
