60

C   -0.6344196    0.5338005   -9.1752518  
C    0.3769951   -0.3165382   -9.5579158  
C    0.3911389   -0.3314672  -10.9841620  
C   -0.6427823    0.5364011  -11.4197502  
N   -1.2468292    1.0436048  -10.2961451  
C   -0.9185555    0.7656445  -12.7711148  
C   -0.1361444    0.1070127  -13.6996708  
O   -0.3621603    0.2949624  -15.0325642  
C    0.8999072   -0.7631668  -13.2846989  
O    1.5892946   -1.3443171  -14.3288996  
C    1.1723513   -0.9900037  -11.9517162  
H    1.0241806   -0.8601482   -8.8911086  
H   -2.0089508    1.6971591  -10.2918094  
H   -1.7052306    1.4257745  -13.1096023  
H    0.2851680   -0.2499114  -15.4987654  
H    2.2705999   -1.9163589  -13.9625717  
H    1.9723170   -1.6621856  -11.6641327  
C    0.8291947   -0.6854810   -5.2562366  
C    0.0139741    0.0003876   -4.4216236  
C   -0.8773491    0.7460786   -5.2968311  
C   -0.4474296    0.3823395   -6.6641086  
N    0.5525087   -0.4565932   -6.6466432  
C   -1.0903947    0.9189728   -7.8318869  
C   -2.1164676    1.7795498   -7.6423715  
O   -2.8066699    2.3561391   -8.6409740  
C   -2.5739393    2.1659014   -6.2750339  
O   -3.5141077    2.9544335   -6.1774632  
C   -1.8981893    1.6018688   -5.0930209  
H   -3.4699012    2.9130222   -8.1947025  
H   -2.2596569    1.9067673   -4.1200828  
H    1.6314370   -1.3578977   -4.9969357  
C    3.2798085    0.0005853   -1.4499648  
C    2.5571144    0.0005562   -2.5996554  
C    1.1637436    0.0001546   -2.2210360  
C    1.1336965   -0.0000201   -0.7459470  
N    2.4483513   -0.0001430   -0.3402717  
C    0.0000000    0.0000000    0.0000000  
C   -1.2757367   -0.0000188   -0.6964414  
O   -2.3524597   -0.0000640   -0.1142313  
C   -1.2676494   -0.0000875   -2.2584081  
O   -2.3355762   -0.0004102   -2.8557294  
C    0.0181562    0.0001757   -2.9516296  
H    2.9547357    0.0006072   -3.5989105  
H    4.3498550    0.0008609   -1.3200021  
H    2.7563627    0.0012824    0.6148063  
C    2.5128556    2.1077716    2.9199648  
C    1.9592212    1.6432552    4.0696553  
C    0.8915788    0.7479214    3.6910360  
C    0.8684491    0.7287414    2.2159470  
N    1.8754542    1.5738793    1.8102719  
C    0.0000000    0.0000000    1.4700000  
C   -0.9772830   -0.8200135    2.1664417  
O   -1.8021297   -1.5120829    1.5842315  
C   -0.9711318   -0.8147624    3.7284083  
O   -1.7894187   -1.5009653    4.3257297  
C    0.0140216    0.0115358    4.4216297  
H    2.2638494    1.8988021    5.0689105  
H    0.0117648    0.0094386    5.5031631  
H    3.3327358    2.7953732    2.7900019  
H    2.1123206    1.7707734    0.8551938  
