64

C   -3.7294910   -2.1195666   -7.3892983  
C   -4.3677516   -1.6572934   -6.2617371  
C   -5.3943259   -0.7687902   -6.6991235  
C   -5.3341142   -0.7283842   -8.1156920  
N   -4.3110763   -1.5583110   -8.5019977  
C   -6.2028205    0.0488683   -8.8877137  
C   -7.1497538    0.7987611   -8.2175230  
O   -8.0232927    1.5752836   -8.9224749  
C   -7.2253498    0.7719608   -6.8045876  
O   -8.2214846    1.5732538   -6.2859475  
C   -6.3684997    0.0056222   -6.0423165  
H   -4.1227719   -1.9264172   -5.2485485  
H   -4.0377408   -1.7396824   -9.4508779  
H   -6.1620078    0.0841251   -9.9676645  
H   -8.5902281    2.0086309   -8.2712765  
H   -8.2042676    1.4976323   -5.3269958  
H   -2.9044827   -2.8041250   -7.4877864  
C   -3.2578655    0.0024039   -2.9908504  
C   -3.9809873    0.0031289   -1.8468775  
C   -5.3695593    0.0043912   -2.2808881  
C   -5.2983968    0.0043641   -3.7578851  
N   -4.0631144    0.0031210   -4.1798626  
C   -6.4794715    0.0054029   -4.5765110  
C   -7.6771926    0.0060336   -3.9481810  
O   -8.8597161    0.0070290   -4.5866776  
C   -7.7819059    0.0057080   -2.4591560  
O   -8.9049090    0.0064460   -1.9550883  
C   -6.5558062    0.0046821   -1.6414745  
H   -3.6170584    0.0027521   -0.8336497  
H   -9.5255212    0.0072469   -3.8754433  
H   -6.6744111    0.0043600   -0.5662243  
C    0.0000000    0.0000000    0.0000000  
C    1.0521667   -0.0011902   -0.8862342  
C    0.4917216   -0.0011957   -2.1979129  
C   -0.9187429    0.0003148   -2.0478680  
N   -1.1833171   -0.0009412   -0.7007912  
C   -1.7951702    0.0010350   -3.1372088  
C   -1.2375841    0.0005225   -4.4010424  
O   -2.0474217    0.0015360   -5.4997576  
C    0.1673577   -0.0013567   -4.5711964  
O    0.5673522   -0.0020688   -5.8915554  
C    1.0325769   -0.0023413   -3.4969890  
H    2.0953057   -0.0030649   -0.6200562  
H   -2.0989779    0.0102372   -0.2891821  
H   -1.4634887    0.0006498   -6.2693588  
H    1.5290708   -0.0033153   -5.9180049  
H    2.1042148   -0.0039610   -3.6584453  
C    1.1243417   -0.0099156    2.2619005  
C    0.7474090   -0.0234034    3.5848544  
C   -0.6787367   -0.0234952    3.6114698  
C   -1.1201739   -0.0099357    2.2635546  
N    0.0000000    0.0000000    1.4700000  
C   -2.4730812   -0.0065396    1.9108239  
C   -3.3971947   -0.0173298    2.9375057  
O   -4.7313508   -0.0149487    2.6493466  
C   -2.9763630   -0.0305536    4.2886322  
O   -4.0166453   -0.0397858    5.1947621  
C   -1.6418541   -0.0336380    4.6373480  
H    1.4178735   -0.0310004    4.4271209  
H   -2.8160170    0.0039190    0.8854031  
H   -5.1938803   -0.0234410    3.4974381  
H   -3.6464643   -0.0484781    6.0827341  
H   -1.3497443   -0.0436789    5.6809233  
H    2.1062470   -0.0051382    1.8205408  
