62

C    8.0455783   -5.4764321   -6.5710821  
C    8.7647940   -5.0082378   -7.6462521  
C    8.4837546   -3.6144404   -7.7600330  
C    7.5792308   -3.2858202   -6.7180296  
N    7.3325498   -4.4395925   -6.0161922  
C    7.0850020   -1.9921905   -6.5255490  
C    7.5118933   -1.0123911   -7.4007256  
O    7.0607802    0.2679091   -7.2580999  
C    8.4137771   -1.3207343   -8.4468368  
O    8.7435349   -0.2367729   -9.2340015  
C    8.9015442   -2.5967682   -8.6374836  
H    9.4114881   -5.5988877   -8.2722810  
H    6.7351253   -4.5136352   -5.2127106  
H    7.4757264    0.7835933   -7.9617713  
H    9.3557522   -0.5307714   -9.9154399  
H    9.5911447   -2.8028226   -9.4477125  
H    7.9836863   -6.4682306   -6.1570019  
C    6.1837012   -2.1071894   -4.1730104  
C    6.1473624   -1.6429265   -5.4486332  
C    5.0179318   -0.7478965   -5.5388751  
C    4.3948024   -0.7286185   -4.2016663  
N    5.1487785   -1.5734154   -3.4201754  
C    3.2973506   -0.0000934   -3.8752374  
C    2.6891816    0.8195677   -4.9100425  
O    1.6983690    1.5114229   -4.7152918  
C    3.3322638    0.8142072   -6.3334969  
O    2.8288283    1.5001138   -7.2128972  
C    4.5147645   -0.0118351   -6.5641428  
H    4.9540960   -0.0098155   -7.5524281  
H    6.8793285   -2.7945271   -3.7196252  
H    4.9752873   -1.7701683   -2.4515493  
C    3.3321174    0.0004714   -1.3379332  
C    2.6974186    0.0000115   -2.5332308  
C    1.2800441   -0.0002119   -2.2052838  
C    1.2395035    0.0000643   -0.7271293  
N    2.4394063    0.0005458   -0.2131034  
C    0.0000000    0.0000000    0.0000000  
C   -1.1468701    0.0000634   -0.7169542  
O   -2.3742201    0.0000072   -0.1695492  
C   -1.1388767    0.0001606   -2.2096354  
O   -2.2206229    0.0000903   -2.7970413  
C    0.1454526    0.0001815   -2.9324239  
H   -2.9844344    0.0001023   -0.9290168  
H    0.1083580    0.0003680   -4.0135594  
H    4.3940040    0.0007617   -1.1498630  
C    0.8576279    0.7185626    2.2703808  
C    0.0000000    0.0000000    1.4700000  
C   -0.8668858   -0.7285659    2.3373528  
C   -0.4876752   -0.4117774    3.6669281  
N    0.5635254    0.4678311    3.5902241  
C   -1.1297612   -0.9515493    4.7854808  
C   -2.1738724   -1.8268314    4.5576857  
O   -2.8357962   -2.3827064    5.6140350  
C   -2.5667212   -2.1555554    3.2384331  
O   -3.6226318   -3.0413663    3.1773122  
C   -1.9335634   -1.6236449    2.1344818  
H    1.0363952    0.8769718    4.3757045  
H   -0.8454472   -0.7142436    5.8013813  
H   -3.5178062   -2.9546422    5.2385129  
H   -3.8247440   -3.2102924    2.2519915  
H   -2.2566033   -1.8942483    1.1360343  
H    1.6567807    1.3889844    2.0042067  
