62

C    5.0573374   -1.0133795   -7.2391543  
C    5.8356446   -0.6282037   -8.3060867  
C    5.6492769    0.7762120   -8.4718679  
C    4.7389441    1.1965592   -7.4686084  
N    4.3979093    0.0848989   -6.7388667  
C    4.3247370    2.5249024   -7.3317655  
C    4.8391060    3.4457345   -8.2237693  
O    4.4684491    4.7563628   -8.1350064  
C    5.7482417    3.0456449   -9.2318458  
O    6.1700137    4.0795171  -10.0421292  
C    6.1570968    1.7353268   -9.3676035  
H    6.4599679   -1.2795605   -8.8934095  
H    3.6310829    2.8516591   -6.5693518  
H    4.9358338    5.2207454   -8.8415227  
H    6.7808288    3.7244111  -10.6951297  
H    6.8544698    1.4586999  -10.1496689  
H    4.9193135   -1.9848872   -6.7963441  
C    4.5551378   -2.0647522   -2.9129526  
C    3.4069297   -1.6070138   -2.3506641  
C    2.8049835   -0.7012746   -3.3004706  
C    3.7030482   -0.6686469   -4.4706017  
N    4.7450057   -1.5160903   -4.1721830  
C    3.4850377    0.0719022   -5.5867391  
C    2.2859710    0.8916866   -5.6389643  
O    2.0005484    1.5939524   -6.6000356  
C    1.3208825    0.8726932   -4.4109379  
O    0.3083946    1.5590471   -4.4433027  
C    1.6628945    0.0339172   -3.2649299  
H    3.0252946   -1.8733124   -1.3811006  
H    5.2786930   -2.7565743   -2.5132781  
H    5.5224754   -1.7081427   -4.7769168  
C    1.1243410    0.0100105   -0.7919003  
C    0.7474072    0.0234665   -2.1148542  
C   -0.6787384    0.0234379   -2.1414698  
C   -1.1201748    0.0098411   -0.7935547  
N    0.0000000    0.0000000    0.0000000  
C   -2.4730818    0.0063307   -0.4408240  
C   -3.3971962    0.0170429   -1.4675058  
O   -4.7313520    0.0145490   -1.1793468  
C   -2.9763654    0.0303020   -2.8186325  
O   -4.0166484    0.0394464   -3.7247625  
C   -1.6418567    0.0334992   -3.1673480  
H   -2.8160166   -0.0041569    0.5845966  
H   -5.1938823    0.0230023   -2.0274386  
H   -3.6464680    0.0481700   -4.6127343  
H   -1.3497475    0.0435647   -4.2109234  
H    2.1062466    0.0053162   -0.3505405  
C    2.5528530    2.1414826    2.8079335  
C    2.0663498    1.7338582    4.0032312  
C    0.9804344    0.8229586    3.6752840  
C    0.9495562    0.7966882    2.1971295  
N    1.8690446    1.5676019    1.6831036  
C    0.0000000    0.0000000    1.4700000  
C   -0.8785127   -0.7372425    2.1869543  
O   -1.8187535   -1.5261249    1.6395491  
C   -0.8723269   -0.7321790    3.6796354  
O   -1.7010379   -1.4274584    4.2670412  
C    0.1115397    0.0933559    4.4024240  
H    2.4028853    2.0163452    4.9860947  
H   -2.2861435   -1.9184361    2.3990168  
H    0.0832434    0.0693689    5.4835595  
H    3.3664920    2.8238276    2.6198634  
