64

C   -5.9507879    0.7207566    0.7096279  
C   -6.7169757    0.0042454   -0.1803357  
C   -7.6752362   -0.7227457    0.5863596  
C   -7.4434316   -0.4071545    1.9496623  
N   -6.3883421    0.4702542    1.9891371  
C   -8.2053980   -0.9459016    2.9907901  
C   -9.2200467   -1.8189082    2.6494314  
O   -9.9949458   -2.3736981    3.6265469  
C   -9.4665645   -2.1464089    1.2948875  
O  -10.5112362   -3.0299692    1.1178996  
C   -8.7150882   -1.6155088    0.2672909  
H   -6.0035985    0.8781612    2.8219427  
H   -8.0336913   -0.7094991    4.0318632  
H  -10.6328527   -2.9440798    3.1782128  
H  -10.6110277   -3.1981926    0.1759088  
H   -8.9272701   -1.8851322   -0.7606978  
H   -5.1258858    1.3895676    0.5330303  
C   -3.2578655    0.0024039   -2.9908504  
C   -3.9809871    0.0031291   -1.8468773  
C   -5.3695593    0.0043918   -2.2808874  
C   -5.2983972    0.0043646   -3.7578841  
N   -4.0631144    0.0031212   -4.1798622  
C   -6.4794714    0.0054037   -4.5765100  
C   -7.6771925    0.0060344   -3.9481800  
O   -8.8597160    0.0070297   -4.5866766  
C   -7.7819057    0.0057089   -2.4591546  
O   -8.9049089    0.0064474   -1.9550871  
C   -6.5558061    0.0046828   -1.6414735  
H   -3.6170577    0.0027522   -0.8336493  
H   -6.3979234    0.0055647   -5.6536639  
H   -9.5255220    0.0072479   -3.8754418  
C    0.0000000    0.0000000    0.0000000  
C    1.0521667   -0.0011902   -0.8862342  
C    0.4917216   -0.0011957   -2.1979129  
C   -0.9187429    0.0003148   -2.0478680  
N   -1.1833171   -0.0009412   -0.7007912  
C   -1.7951702    0.0010350   -3.1372088  
C   -1.2375841    0.0005225   -4.4010424  
O   -2.0474217    0.0015360   -5.4997576  
C    0.1673577   -0.0013567   -4.5711964  
O    0.5673522   -0.0020688   -5.8915554  
C    1.0325769   -0.0023413   -3.4969890  
H    2.0953057   -0.0030649   -0.6200562  
H   -2.0989779    0.0102372   -0.2891821  
H   -1.4634887    0.0006498   -6.2693588  
H    1.5290708   -0.0033153   -5.9180049  
H    2.1042148   -0.0039610   -3.6584453  
C    3.3003543   -0.0005276    2.9438989  
C    2.5232812   -0.0003497    4.0790748  
C    1.1623199    0.0001319    3.6520102  
C    1.1711883   -0.0000583    2.2336141  
N    2.4852299    0.0014920    1.8362361  
C    0.0000000    0.0000000    1.4700000  
C   -1.2020384   -0.0000520    2.1506477  
O   -2.3759250   -0.0003494    1.4542253  
C   -1.2314658    0.0005113    3.5655508  
O   -2.5054393    0.0008037    4.0950179  
C   -0.0764518    0.0007272    4.3195194  
H    2.8919952    0.0005619    5.0905303  
H    2.8036267   -0.0088181    0.8841339  
H   -3.0835639   -0.0000348    2.1118817  
H   -2.4360050    0.0011527    5.0545920  
H   -0.1304098    0.0013421    5.4019087  
H    4.3715549   -0.0004895    2.8367138  
