62

C    5.6808439   -3.5740956   -1.4808088  
C    5.6495499   -2.9108931   -2.6856534  
C    6.8186205   -3.2988259   -3.4049456  
C    7.5310247   -4.2082663   -2.5819489  
N    6.8135608   -4.3516859   -1.4203581  
C    8.7376061   -4.7965142   -2.9729941  
C    9.2339076   -4.4608003   -4.2176461  
O   10.4081517   -5.0064360   -4.6494421  
C    8.5378488   -3.5550433   -5.0530633  
O    9.1612703   -3.3221057   -6.2615459  
C    7.3476130   -2.9741336   -4.6678259  
H    7.0679822   -4.9436744   -0.6504224  
H    9.2855027   -5.4902721   -2.3503293  
H   10.5702956   -4.6436737   -5.5299970  
H    8.6266343   -2.7003474   -6.7647206  
H    6.8372330   -2.2837370   -5.3291459  
H    4.9855227   -3.5528749   -0.6592024  
C    4.5980359   -1.9815538   -3.1233146  
C    3.4854371   -1.6054321   -2.4508302  
C    2.8041271   -0.6786476   -3.3415528  
C    3.6683875   -0.6094941   -4.5394075  
N    4.7214229   -1.3712007   -4.4173085  
C    3.3375007    0.2137348   -5.6698471  
C    2.1949513    0.9347924   -5.6066691  
O    1.7634392    1.7449076   -6.5882759  
C    1.3015815    0.8859885   -4.4118175  
O    0.2774371    1.5687932   -4.4230769  
C    1.6628945    0.0339172   -3.2649299  
H    3.1664182   -1.9183346   -1.4713430  
H    3.9875725    0.2452574   -6.5320083  
H    0.9280184    2.1174829   -6.2529968  
C    1.1243410    0.0100105   -0.7919003  
C    0.7474072    0.0234665   -2.1148542  
C   -0.6787384    0.0234379   -2.1414698  
C   -1.1201748    0.0098411   -0.7935547  
N    0.0000000    0.0000000    0.0000000  
C   -2.4730818    0.0063307   -0.4408240  
C   -3.3971962    0.0170429   -1.4675058  
O   -4.7313520    0.0145490   -1.1793468  
C   -2.9763654    0.0303020   -2.8186325  
O   -4.0166484    0.0394464   -3.7247625  
C   -1.6418567    0.0334992   -3.1673480  
H   -2.8160166   -0.0041569    0.5845966  
H   -5.1938823    0.0230023   -2.0274386  
H   -3.6464680    0.0481700   -4.6127343  
H   -1.3497475    0.0435647   -4.2109234  
H    2.1062466    0.0053162   -0.3505405  
C    0.0000000    0.0000000    1.4700000  
C    1.0662921    0.0000102    2.3034270  
C    0.4961870   -0.0000064    3.6418889  
C   -0.9663858    0.0000850    3.4240247  
N   -1.2632773    0.0000084    2.1528658  
C   -1.8985362    0.0000517    4.5177257  
C   -1.3925775   -0.0004564    5.7720543  
O   -2.1456383   -0.0005410    6.8851312  
C    0.0786232   -0.0009323    6.0245000  
O    0.4683759   -0.0012588    7.1921102  
C    1.0143166   -0.0008442    4.8859032  
H    2.1107198   -0.0000632    2.0421868  
H   -2.9622183    0.0003270    4.3293377  
H   -1.5042274   -0.0009692    7.6184419  
H    2.0724152   -0.0013148    5.1109744  
