60

C   10.8806803   -2.1234620    0.0537945  
C   11.9317914   -1.6244118   -0.6800859  
C   11.3767993   -0.7497481   -1.6606707  
C    9.9706178   -0.7548567   -1.4747864  
N    9.7030685   -1.6006548   -0.4270931  
C    9.1001095   -0.0017590   -2.2684169  
C    9.6593467    0.7708005   -3.2677082  
O    8.8552631    1.5258840   -4.0716431  
C   11.0600496    0.7888408   -3.4690123  
O   11.4623467    1.6074274   -4.5041046  
C   11.9194066    0.0459337   -2.6866299  
H   12.9706565   -1.8624578   -0.5281467  
H    8.7901380   -1.7971396   -0.0584020  
H    9.4393613    1.9803436   -4.6925772  
H   12.4209179    1.5622218   -4.5726781  
H   12.9878825    0.0798088   -2.8646386  
H   10.8776972   -2.8120816    0.8812922  
C    6.6174604   -0.0017048    1.3537077  
C    5.3857487   -0.0012517    0.7819026  
C    5.5854749   -0.0008503   -0.6481130  
C    7.0449748   -0.0011377   -0.8640992  
N    7.6133361   -0.0012549    0.3888394  
C    7.6418659   -0.0012958   -2.0828796  
C    6.7899755   -0.0009489   -3.2605120  
O    7.2316310   -0.0009950   -4.4021083  
C    5.2415215   -0.0003889   -3.0553446  
O    4.5141879    0.0002133   -4.0393396  
C    4.7161325   -0.0005435   -1.6923264  
H    4.4446705   -0.0010220    1.3024658  
H    6.8814406   -0.0021126    2.3987936  
H    8.5996517   -0.0030072    0.5738417  
C    3.2573665   -0.0002920   -1.5109385  
C    2.5379463   -0.0001709   -0.3591964  
C    1.1435038    0.0000331   -0.7338500  
C    1.1092599   -0.0000083   -2.2088477  
N    2.4227553    0.0001909   -2.6182613  
C   -0.0265539   -0.0002524   -2.9515660  
C   -1.3003040   -0.0002640   -2.2514977  
O   -2.3786790   -0.0004133   -2.8306421  
C   -1.2877727    0.0000311   -0.6895603  
O   -2.3539959    0.0003306   -0.0892030  
C    0.0000000    0.0000000    0.0000000  
H    2.9384091   -0.0000367    0.6389234  
H   -0.0296303   -0.0004086   -4.0327229  
H    2.7280482   -0.0013407   -3.5742119  
C    0.8175213    0.6860729    2.3021913  
C    0.0000000    0.0000000    1.4700000  
C   -0.8887526   -0.7456559    2.3478473  
C   -0.4549825   -0.3816753    3.7138435  
N    0.5448156    0.4573574    3.6934124  
C   -1.0945674   -0.9182058    4.8835240  
C   -2.1210866   -1.7789155    4.6970523  
O   -2.8083856   -2.3554314    5.6976972  
C   -2.5824069   -2.1655116    3.3310774  
O   -3.5227682   -2.9541547    3.2362962  
C   -1.9100805   -1.6015804    2.1470656  
H   -0.7567140   -0.6349833    5.8697035  
H   -3.4728268   -2.9124471    5.2533954  
H   -2.2742832   -1.9066565    1.1752040  
H    1.6189533    1.3585343    2.0405121  
