64

C   -7.3506449    3.2514412    0.1851178  
C   -6.9652586    1.9985620   -0.2323018  
C   -8.0777699    1.1302038   -0.0252478  
C   -9.1224195    1.9161357    0.5251566  
N   -8.6468807    3.1986843    0.6415577  
C  -10.3730799    1.3863954    0.8568396  
C  -10.5729120    0.0387733    0.6284540  
O  -11.7755397   -0.5299686    0.9337956  
C   -9.5427586   -0.7619753    0.0803653  
O   -9.8964727   -2.0849538   -0.0868365  
C   -8.3086137   -0.2401010   -0.2468344  
H   -9.1685970    3.9814901    0.9922836  
H  -11.1733633    1.9800331    1.2767692  
H  -11.7028878   -1.4644554    0.6998710  
H   -9.1455203   -2.5555779   -0.4612527  
H   -7.5388989   -0.8781843   -0.6650067  
H   -6.8029694    4.1782196    0.1946999  
C   -4.4484553    2.1114134   -0.3461921  
C   -5.6479912    1.6480085   -0.7825916  
C   -5.3783932    0.7523818   -1.8825941  
C   -3.9129551    0.7318186   -2.0524732  
N   -3.4082407    1.5765169   -1.0908921  
C   -3.2578655    0.0024282   -2.9908505  
C   -4.0489188   -0.8168743   -3.8939083  
O   -3.5523765   -1.5094419   -4.7725986  
C   -5.6025063   -0.8101577   -3.7322729  
O   -6.2789756   -1.4957519   -4.4869982  
C   -6.1934212    0.0167334   -2.6830243  
H   -7.2698069    0.0156516   -2.5775884  
H   -4.2368622    2.7988446    0.4566503  
H   -2.4341403    1.7725007   -0.9503007  
C    0.0000000    0.0000000    0.0000000  
C    1.0521666   -0.0011982   -0.8862343  
C    0.4917215   -0.0011996   -2.1979132  
C   -0.9187429    0.0003215   -2.0478682  
N   -1.1833171   -0.0009323   -0.7007913  
C   -1.7951703    0.0010483   -3.1372089  
C   -1.2375841    0.0005313   -4.4010422  
O   -2.0474218    0.0015510   -5.4997578  
C    0.1673576   -0.0013585   -4.5711963  
O    0.5673520   -0.0020735   -5.8915554  
C    1.0325768   -0.0023493   -3.4969892  
H    2.0953056   -0.0030808   -0.6200564  
H   -2.0989778    0.0102529   -0.2891822  
H   -1.4634888    0.0006601   -6.2693595  
H    1.5290707   -0.0033271   -5.9180047  
H    2.1042146   -0.0039770   -3.6584456  
C    1.1243417   -0.0099156    2.2619005  
C    0.7474090   -0.0234034    3.5848544  
C   -0.6787367   -0.0234952    3.6114698  
C   -1.1201739   -0.0099357    2.2635546  
N    0.0000000    0.0000000    1.4700000  
C   -2.4730812   -0.0065396    1.9108239  
C   -3.3971947   -0.0173298    2.9375057  
O   -4.7313508   -0.0149487    2.6493466  
C   -2.9763630   -0.0305536    4.2886322  
O   -4.0166453   -0.0397858    5.1947621  
C   -1.6418541   -0.0336380    4.6373480  
H    1.4178735   -0.0310004    4.4271209  
H   -2.8160170    0.0039190    0.8854031  
H   -5.1938803   -0.0234410    3.4974381  
H   -3.6464643   -0.0484781    6.0827341  
H   -1.3497443   -0.0436789    5.6809233  
H    2.1062470   -0.0051382    1.8205408  
