62

C    3.5209454   -0.7049038   -6.1328116  
C    4.8734477   -0.4534997   -6.1318088  
C    5.1288919    0.4548269   -7.2015235  
C    3.8836454    0.7245254   -7.8248615  
N    2.9287796    0.0029119   -7.1524612  
C    3.7568256    1.5832470   -8.9209015  
C    4.9080022    2.1808276   -9.3961559  
O    4.8411723    3.0284360  -10.4639137  
C    6.1597493    1.9239945   -8.7878925  
O    7.2119403    2.5942689   -9.3769359  
C    6.2856445    1.0767471   -7.7067598  
H    5.5881924   -0.8740163   -5.4452958  
H    2.8106733    1.7928393   -9.4005561  
H    5.7437629    3.3301576  -10.6299247  
H    8.0195392    2.3658639   -8.9065969  
H    7.2577823    0.8992142   -7.2618907  
H    2.9320317   -1.3342295   -5.4877621  
C   -0.8287671    0.0000935   -4.7555305  
C    0.4848184    0.0005134   -5.0812188  
C    0.5106014    0.0006415   -6.5358093  
C   -0.9135384    0.0001370   -6.9338159  
N   -1.7033612   -0.0001050   -5.8945040  
C   -1.3181679    0.0001429   -8.3127146  
C   -0.3443510    0.0010199   -9.2513378  
O   -0.5775765    0.0011265  -10.5748356  
C    1.1017796    0.0019175   -8.8813812  
O    1.9341176    0.0025664   -9.7882625  
C    1.4913207    0.0018489   -7.4600497  
H    1.3316906    0.0008020   -4.4164760  
H   -2.3661194   -0.0004384   -8.5748366  
H    0.3072628    0.0018575  -10.9825260  
C    1.0672566   -0.0000698   -0.8321912  
C    0.0000000    0.0000000    0.0000000  
C   -1.1601226   -0.0000736   -0.8778472  
C   -0.5938732   -0.0000770   -2.2438435  
N    0.7113365   -0.0001555   -2.2234123  
C   -1.4286989   -0.0001880   -3.4135239  
C   -2.7683117   -0.0006800   -3.2270522  
O   -3.6653907   -0.0008306   -4.2276967  
C   -3.3702026   -0.0010611   -1.8610771  
O   -4.5974909   -0.0013781   -1.7662957  
C   -2.4926826   -0.0008944   -0.6770655  
H   -4.5324249   -0.0012263   -3.7833950  
H   -2.9677773   -0.0012975    0.2947963  
H    2.1134390   -0.0000546   -0.5705121  
C    0.8576279    0.7185626    2.2703808  
C    0.0000000    0.0000000    1.4700000  
C   -0.8668858   -0.7285659    2.3373528  
C   -0.4876752   -0.4117774    3.6669281  
N    0.5635254    0.4678311    3.5902241  
C   -1.1297612   -0.9515493    4.7854808  
C   -2.1738724   -1.8268314    4.5576857  
O   -2.8357962   -2.3827064    5.6140350  
C   -2.5667212   -2.1555554    3.2384331  
O   -3.6226318   -3.0413663    3.1773122  
C   -1.9335634   -1.6236449    2.1344818  
H    1.0363952    0.8769718    4.3757045  
H   -0.8454472   -0.7142436    5.8013813  
H   -3.5178062   -2.9546422    5.2385129  
H   -3.8247440   -3.2102924    2.2519915  
H   -2.2566033   -1.8942483    1.1360343  
H    1.6567807    1.3889844    2.0042067  
