64

C   -0.6823938   -0.6967766   -9.4369178  
C   -0.4140997   -0.6515440  -10.7854131  
C   -0.6262089    0.6944472  -11.2072154  
C   -1.0258601    1.4311437  -10.0628893  
N   -1.0515834    0.5558366   -9.0056318  
C   -1.3198746    2.7972847  -10.1076435  
C   -1.2081194    3.4313494  -11.3297937  
O   -1.4830051    4.7645476  -11.4299642  
C   -0.8111873    2.7133566  -12.4829409  
O   -0.7472560    3.4859543  -13.6241454  
C   -0.5212408    1.3655520  -12.4395813  
H   -0.1047519   -1.4862593  -11.3908458  
H   -1.6251349    3.3644391   -9.2391074  
H   -1.3450035    5.0029693  -12.3559103  
H   -0.4720461    2.9253226  -14.3559630  
H   -0.2198718    0.8421815  -13.3394357  
H   -0.6409983   -1.5237533   -8.7489107  
C    0.6496545   -0.7066349   -5.1591666  
C   -0.1496415   -0.0015615   -4.3176961  
C   -1.0762654    0.7401246   -5.1399526  
C   -0.7489650    0.4069439   -6.5394722  
N    0.3061891   -0.4741191   -6.4823099  
C   -1.3994872    0.9058709   -7.6209515  
C   -2.4949747    1.8330539   -7.3912239  
O   -3.1426431    2.3370191   -8.2994341  
C   -2.8587000    2.2002134   -5.9172149  
O   -3.7789323    2.9800102   -5.7114236  
C   -2.0849149    1.5977389   -4.8345636  
H   -2.3432251    1.8569888   -3.8168265  
H    1.4608540   -1.3763737   -4.9240181  
H    0.7560120   -0.8864478   -7.2789846  
C    3.3003543    0.0005276   -1.4738987  
C    2.5232814    0.0003497   -2.6090747  
C    1.1623200   -0.0001320   -2.1820103  
C    1.1711883    0.0000582   -0.7636140  
N    2.4852300   -0.0014919   -0.3662360  
C    0.0000000    0.0000000    0.0000000  
C   -1.2020384    0.0000519   -0.6806477  
O   -2.3759249    0.0003493    0.0157743  
C   -1.2314656   -0.0005115   -2.0955510  
O   -2.5054392   -0.0008039   -2.6250180  
C   -0.0764516   -0.0007274   -2.8495195  
H    2.8919955   -0.0005620   -3.6205304  
H    2.8036267    0.0088183    0.5858662  
H   -3.0835638    0.0000347   -0.6418818  
H   -2.4360047   -0.0011529   -3.5845921  
H    4.3715549    0.0004895   -1.3667136  
C    2.5311839    2.1237619    3.0120429  
C    1.9795631    1.6616747    1.8395852  
C    0.9223175    0.7739173    2.1983588  
C    0.8753926    0.7337535    3.6154372  
N    1.8668922    1.5631002    4.0777464  
C   -0.0496243   -0.0427881    4.3197917  
C   -0.9437528   -0.7922060    3.5801400  
O   -1.8685244   -1.5680278    4.2172520  
C   -0.9124520   -0.7656372    2.1655264  
O   -1.8671164   -1.5663939    1.5732860  
C    0.0000000    0.0000000    1.4700000  
H    2.3005065    1.9304404    0.8477417  
H    2.0679347    1.7444845    5.0445261  
H   -0.0904770   -0.0778569    5.3997470  
H   -2.3849669   -2.0011402    3.5251786  
H   -1.7775064   -1.4909735    0.6183591  
H    3.3468514    2.8078103    3.1724291  
