60

C    5.9711285   -2.4120565   -6.3976099  
C    5.5391904   -1.1094507   -6.4930844  
C    6.3429076   -0.4760624   -7.4867933  
C    7.2555562   -1.4499922   -7.9668547  
N    7.0039103   -2.6135190   -7.2831168  
C    8.2028290   -1.1753014   -8.9578179  
C    8.2290681    0.1058230   -9.4737740  
O    9.1337499    0.4281000  -10.4436717  
C    7.3268898    1.0914382   -9.0074533  
O    7.4788940    2.3183702   -9.6197249  
C    6.3922976    0.8212289   -8.0296750  
H    7.4887218   -3.4823004   -7.4178679  
H    8.9012916   -1.9131325   -9.3278973  
H    8.9834410    1.3577274  -10.6592252  
H    6.8323735    2.9260618   -9.2478036  
H    5.7144492    1.5966311   -7.6924060  
H    5.6251687   -3.2129835   -5.7669065  
C    4.2034632   -0.7255611   -4.3886927  
C    4.4527392   -0.5087782   -5.7058645  
C    3.4509038    0.4181860   -6.1769258  
C    2.5913884    0.7259028   -5.0179026  
N    3.1006054    0.0006263   -3.9654951  
C    1.5263726    1.5663063   -5.0520706  
C    1.2050739    2.2105929   -6.3146855  
O    0.2656473    2.9839394   -6.4477796  
C    2.1016856    1.8990847   -7.5551920  
O    1.8407233    2.4353745   -8.6236264  
C    3.2224910    0.9761281   -7.3945737  
H    0.9088831    1.7784629   -4.1903242  
H    3.8385514    0.7659019   -8.2582846  
H    4.7325171   -1.3548943   -3.6916046  
C    3.2798083    0.0005857   -1.4499652  
C    2.5571142    0.0005565   -2.5996556  
C    1.1637432    0.0001548   -2.2210361  
C    1.1336964   -0.0000200   -0.7459473  
N    2.4483512   -0.0001428   -0.3402723  
C    0.0000000    0.0000000    0.0000000  
C   -1.2757368   -0.0000186   -0.6964415  
O   -2.3524598   -0.0000639   -0.1142311  
C   -1.2676497   -0.0000872   -2.2584083  
O   -2.3355766   -0.0004101   -2.8557295  
C    0.0181558    0.0001758   -2.9516296  
H    0.0150788    0.0003319   -4.0331631  
H    4.3498547    0.0008612   -1.3200026  
H    2.7563626    0.0012823    0.6148059  
C    0.0000000    0.0000000    1.4700000  
C    1.0541688    0.0001722    2.3260392  
C    0.5103138    0.0000454    3.6635956  
C   -0.9576371   -0.0002459    3.5155732  
N   -1.2018458    0.0001392    2.1615969  
C   -1.8348311   -0.0008317    4.5510609  
C   -1.2972847   -0.0009736    5.9014604  
O   -2.0050672   -0.0014265    6.9001319  
C    0.2542623   -0.0004184    6.0817573  
O    0.7184670   -0.0002256    7.2139121  
C    1.0974552   -0.0000873    4.8889129  
H    2.0940752    0.0005483    2.0517982  
H   -2.9081052   -0.0011668    4.4207061  
H    2.1707277    0.0000911    5.0223670  
H   -2.1128194   -0.0014912    1.7406791  
