62

C    1.1188645    0.0008219   -0.8003801  
C    0.0000000    0.0000000    0.0000000  
C   -1.1323858    0.0008903   -0.8673532  
C   -0.6382657    0.0019682   -2.1969279  
N    0.7324024    0.0038480   -2.1202239  
C   -1.4770905    0.0027327   -3.3154810  
C   -2.8395466    0.0020957   -3.0876862  
O   -3.7039187    0.0024444   -4.1440358  
C   -3.3517864    0.0013947   -1.7684340  
O   -4.7300491    0.0012386   -1.7073135  
C   -2.5248541    0.0009133   -0.6644822  
H    1.3576322   -0.0056170   -2.9057038  
H   -4.5940022    0.0021850   -3.7685142  
H   -4.9934602    0.0007281   -0.7819926  
H   -2.9462578    0.0005613    0.3339650  
H    2.1619892    0.0009347   -0.5342060  
C    1.8836773   -2.1362888   -5.0810760  
C    1.8358587   -1.7275861   -6.3703605  
C    0.7030375   -0.8169587   -6.4333925  
C    0.1677643   -0.7920094   -5.0551895  
N    0.8558152   -1.5634005   -4.2579875  
C   -0.9736285    0.0040472   -4.6965764  
C   -1.5536710    0.7419478   -5.6704285  
O   -2.6247557    1.5303591   -5.4774864  
C   -1.0366279    0.7382189   -7.0707186  
O   -1.6142376    1.4340398   -7.9058361  
C    0.1355216   -0.0866888   -7.4135265  
H    2.4887441   -2.0092009   -7.1787595  
H   -2.8038801    1.9233579   -6.3507666  
H    0.4792093   -0.0617345   -8.4389466  
C    3.8655120   -3.6958688   -5.0878071  
C    2.8381505   -3.0666541   -4.4611556  
C    2.8667586   -3.4868523   -3.0800511  
C    4.0031664   -4.4191104   -2.9525296  
N    4.5666162   -4.5030972   -4.2048715  
C    4.3657250   -5.0362768   -1.7995499  
C    3.5844222   -4.7643588   -0.6044928  
O    3.8309624   -5.2711159    0.4821149  
C    2.3764288   -3.7804816   -0.7164885  
O    1.7111171   -3.5440781    0.2828782  
C    2.0837243   -3.1764471   -2.0139160  
H    5.2029066   -5.7166031   -1.7274869  
H    1.2457652   -2.4961683   -2.0829753  
H    4.1693049   -3.6379442   -6.1203979  
H    5.3654581   -5.0628400   -4.4406390  
C    2.5285572    2.1210227    2.9438989  
C    1.9331703    1.6216660    4.0790748  
C    0.8903039    0.7472258    3.6520102  
C    0.8972198    0.7527806    2.2336141  
N    1.9028376    1.5986179    1.8362361  
C    0.0000000    0.0000000    1.4700000  
C   -0.9207814   -0.7726952    2.1506477  
O   -1.8198395   -1.5274828    1.4542253  
C   -0.9436862   -0.7911793    3.5655508  
O   -1.9197945   -1.6098497    4.0950179  
C   -0.0590329   -0.0485852    4.3195194  
H    2.2150357    1.8593692    5.0905303  
H    2.1533708    1.7953814    0.8841339  
H   -2.3621246   -1.9821033    2.1118817  
H   -1.8668290   -1.5649508    5.0545920  
H   -0.1007624   -0.0827977    5.4019087  
H    3.3491200    2.8096064    2.8367138  
