64

C    9.8062022    0.6680607   -0.4518023  
C    9.1383572   -0.0454680    0.5163545  
C   10.1202451   -0.7839402    1.2410309  
C   11.3799106   -0.4781047    0.6651567  
N   11.1529944    0.4047949   -0.3613004  
C   12.5777829   -1.0294732    1.1297908  
C   12.5026924   -1.9053052    2.1953695  
O   13.6419374   -2.4722689    2.6890158  
C   11.2551846   -2.2232015    2.7831467  
O   11.3465286   -3.1110825    3.8351297  
C   10.0730253   -1.6798481    2.3251180  
H   11.8615330    0.8080806   -0.9472314  
H   13.5410472   -0.8005497    0.6951419  
H   13.3687861   -3.0425356    3.4193913  
H   10.4609770   -3.2722327    4.1748815  
H    9.1325701   -1.9423208    2.7953639  
H    9.4282548    1.3428434   -1.2006566  
C    5.6607710   -0.0084428   -2.2933928  
C    6.9286313   -0.0216963   -1.7597063  
C    6.7831040   -0.0221735   -0.3407554  
C    5.3917941   -0.0090797   -0.0650520  
N    4.7390840    0.0009613   -1.2727298  
C    4.8785171   -0.0061458    1.2354581  
C    5.7862931   -0.0169277    2.2766136  
O    5.3393781   -0.0149873    3.5662943  
C    7.1783061   -0.0296907    2.0217529  
O    7.9524028   -0.0389772    3.1636948  
C    7.6853791   -0.0323190    0.7390227  
H    7.8455927   -0.0288938   -2.3237303  
H    3.8192266    0.0039564    1.4522609  
H    6.1255180   -0.0233901    4.1277015  
H    8.8785315   -0.0473412    2.9032746  
H    5.3410171   -0.0035083   -3.3213484  
C    3.2798077    0.0005856   -1.4499661  
C    2.5571132    0.0005565   -2.5996564  
C    1.1637425    0.0001547   -2.2210366  
C    1.1336959   -0.0000200   -0.7459475  
N    2.4483509   -0.0001429   -0.3402730  
C    0.0000000    0.0000000    0.0000000  
C   -1.2757370   -0.0000187   -0.6964411  
O   -2.3524597   -0.0000640   -0.1142306  
C   -1.2676502   -0.0000874   -2.2584078  
O   -2.3355774   -0.0004102   -2.8557287  
C    0.0181551    0.0001758   -2.9516297  
H    2.9547342    0.0006074   -3.5989118  
H    0.0150776    0.0003317   -4.0331632  
H    2.7563626    0.0012823    0.6148051  
C    2.5285572    2.1210227    2.9438989  
C    1.9331703    1.6216660    4.0790748  
C    0.8903039    0.7472258    3.6520102  
C    0.8972198    0.7527806    2.2336141  
N    1.9028376    1.5986179    1.8362361  
C    0.0000000    0.0000000    1.4700000  
C   -0.9207814   -0.7726952    2.1506477  
O   -1.8198395   -1.5274828    1.4542253  
C   -0.9436862   -0.7911793    3.5655508  
O   -1.9197945   -1.6098497    4.0950179  
C   -0.0590329   -0.0485852    4.3195194  
H    2.2150357    1.8593692    5.0905303  
H    2.1533708    1.7953814    0.8841339  
H   -2.3621246   -1.9821033    2.1118817  
H   -1.8668290   -1.5649508    5.0545920  
H   -0.1007624   -0.0827977    5.4019087  
H    3.3491200    2.8096064    2.8367138  
