60

C   -5.7159936   -0.7163828   -6.6241302  
C   -6.5739163    0.0018719   -5.8237888  
C   -7.4411004    0.7300350   -6.6911810  
C   -7.0617598    0.4133293   -8.0207389  
N   -6.0101988   -0.4658440   -7.9439868  
C   -7.7040672    0.9527772   -9.1393219  
C   -8.7485375    1.8276436   -8.9115738  
O   -9.4106888    2.3831896   -9.9679528  
C   -9.1415210    2.1562782   -7.5923394  
O  -10.1977944    3.0416594   -7.5312664  
C   -8.5081452    1.6246878   -6.4883592  
H   -5.5371615   -0.8748335   -8.7294456  
H   -7.4196559    0.7155322  -10.1552086  
H  -10.0929334    2.9548661   -9.5924629  
H  -10.3999755    3.2105532   -6.6059555  
H   -8.8312963    1.8952131   -5.4899261  
H   -4.9165662   -1.3864623   -6.3579196  
C   -3.2941076    0.0012874   -2.9038237  
C   -4.0168015    0.0014139   -1.7541332  
C   -5.4101727    0.0018623   -2.1327525  
C   -5.4402198    0.0019580   -3.6078415  
N   -4.1255647    0.0019953   -4.0135168  
C   -6.5739158    0.0019521   -4.3537883  
C   -7.8496529    0.0020700   -3.6573468  
O   -8.9263750    0.0021356   -4.2395567  
C   -7.8415654    0.0022235   -2.0953801  
O   -8.9094927    0.0026302   -1.4980586  
C   -6.5557597    0.0019360   -1.4021586  
H   -3.6191803    0.0013981   -0.7548779  
H   -6.5588367    0.0018392   -0.3206253  
H   -3.8175535    0.0005033   -4.9685944  
C    0.0000000    0.0000000    0.0000000  
C    1.0541688   -0.0001722   -0.8560393  
C    0.5103135   -0.0000454   -2.1935957  
C   -0.9576374    0.0002459   -2.0455730  
N   -1.2018460   -0.0001391   -0.6915968  
C   -1.8348314    0.0008317   -3.0810607  
C   -1.2972851    0.0009737   -4.4314604  
O   -2.0050676    0.0014265   -5.4301315  
C    0.2542619    0.0004184   -4.6117571  
O    0.7184666    0.0002257   -5.7439121  
C    1.0974550    0.0000874   -3.4189130  
H    2.0940752   -0.0005483   -0.5817984  
H    2.1707276   -0.0000911   -3.5523671  
H   -2.1128194    0.0014912   -0.2706789  
C    0.0000000    0.0000000    1.4700000  
C    1.0662921    0.0000102    2.3034270  
C    0.4961870   -0.0000064    3.6418889  
C   -0.9663858    0.0000850    3.4240247  
N   -1.2632773    0.0000084    2.1528658  
C   -1.8985362    0.0000517    4.5177257  
C   -1.3925775   -0.0004564    5.7720543  
O   -2.1456383   -0.0005410    6.8851312  
C    0.0786232   -0.0009323    6.0245000  
O    0.4683759   -0.0012588    7.1921102  
C    1.0143166   -0.0008442    4.8859032  
H    2.1107198   -0.0000632    2.0421868  
H   -2.9622183    0.0003270    4.3293377  
H   -1.5042274   -0.0009692    7.6184419  
H    2.0724152   -0.0013148    5.1109744  
