62

C    6.4376312   -3.6849018   -2.3446636  
C    6.8546218   -4.5033979   -1.3206270  
C    5.8892292   -4.3890771   -0.2768129  
C    4.8975663   -3.4792506   -0.7248610  
N    5.2621883   -3.0692204   -1.9832500  
C    3.7884895   -3.1273145    0.0503025  
C    3.6783279   -3.7045878    1.3004220  
O    2.6149249   -3.3962955    2.0986340  
C    4.6576741   -4.6143056    1.7653011  
O    4.4063503   -5.1028795    3.0307944  
C    5.7522075   -4.9617505    1.0012302  
H    7.7456462   -5.1075924   -1.3249406  
H    3.0292759   -2.4344035   -0.2853608  
H    2.7306710   -3.9005370    2.9144822  
H    5.1142478   -5.7093770    3.2688031  
H    6.4861107   -5.6612280    1.3841092  
H    6.8864265   -3.4904775   -3.3036947  
C    4.5036376   -2.1326436   -2.8248693  
C    4.7893583   -1.6787020   -4.0724173  
C    3.7238696   -0.7792919   -4.4474240  
C    2.7872823   -0.7461952   -3.3079068  
N    3.3172248   -1.5879873   -2.3574138  
C    1.6478437   -0.0100096   -3.2702997  
C    1.3220725    0.8039029   -4.4295903  
O    0.3184853    1.5018524   -4.4926721  
C    2.2995662    0.7839243   -5.6477500  
O    2.0356267    1.4648852   -6.6295288  
C    3.4968671   -0.0493769   -5.5707362  
H    5.6483814   -1.9438137   -4.6626794  
H    4.1686387   -0.0574740   -6.4183100  
H    2.9065392   -1.7759907   -1.4612892  
C    1.1188642    0.0008224   -0.8003808  
C    0.0000000    0.0000000    0.0000000  
C   -1.1323861    0.0008899   -0.8673529  
C   -0.6382661    0.0019681   -2.1969282  
N    0.7324017    0.0038483   -2.1202240  
C   -1.4770912    0.0027320   -3.3154810  
C   -2.8395474    0.0020946   -3.0876860  
O   -3.7039199    0.0024426   -4.1440353  
C   -3.3517867    0.0013927   -1.7684331  
O   -4.7300496    0.0012363   -1.7073125  
C   -2.5248543    0.0009121   -0.6644818  
H   -1.1067568    0.0036992   -4.3313814  
H   -4.5940031    0.0021828   -3.7685133  
H   -4.9934602    0.0007260   -0.7819919  
H   -2.9462579    0.0005600    0.3339656  
H    2.1619896    0.0009357   -0.5342065  
C    2.5528530    2.1414826    2.8079335  
C    2.0663498    1.7338582    4.0032312  
C    0.9804344    0.8229586    3.6752840  
C    0.9495562    0.7966882    2.1971295  
N    1.8690446    1.5676019    1.6831036  
C    0.0000000    0.0000000    1.4700000  
C   -0.8785127   -0.7372425    2.1869543  
O   -1.8187535   -1.5261249    1.6395491  
C   -0.8723269   -0.7321790    3.6796354  
O   -1.7010379   -1.4274584    4.2670412  
C    0.1115397    0.0933559    4.4024240  
H    2.4028853    2.0163452    4.9860947  
H   -2.2861435   -1.9184361    2.3990168  
H    0.0832434    0.0693689    5.4835595  
H    3.3664920    2.8238276    2.6198634  
