62

C    2.1802779   -2.1248212   -6.0224158  
C    1.6692314   -1.6624795   -4.8318113  
C    0.6003932   -0.7746711   -5.1542722  
C    0.5049074   -0.7347398   -6.5689143  
N    1.4798886   -1.5642682   -7.0648091  
C   -0.4436411    0.0417810   -7.2412687  
C   -1.3118062    0.7914168   -6.4715197  
O   -2.2578042    1.5672293   -7.0766785  
C   -1.2320183    0.7650820   -5.0588064  
O   -2.1657332    1.5660380   -4.4343158  
C   -0.2963289   -0.0005348   -4.3948470  
H    2.0239704   -1.9311126   -3.8515102  
H    1.6476432   -1.7458354   -8.0378832  
H   -0.5214990    0.0766732   -8.3191936  
H   -2.7501680    2.0005119   -6.3673767  
H   -2.0434380    1.4907683   -3.4830101  
H    2.9898978   -2.8089821   -6.2105600  
C    3.1301148   -0.0010315   -1.7028253  
C    2.5367766   -0.0002767   -0.4864666  
C    1.1089903    0.0001025   -0.7656183  
C    1.0177867   -0.0004153   -2.2415131  
N    2.1993574   -0.0011616   -2.7963821  
C   -0.2459218   -0.0002884   -2.9257117  
C   -1.3675324   -0.0000610   -2.1698519  
O   -2.6129318    0.0000862   -2.6748483  
C   -1.3083588    0.0000908   -0.6783229  
O   -2.3693264    0.0004202   -0.0541688  
C    0.0000000    0.0000000    0.0000000  
H    3.0096015   -0.0001006    0.4807520  
H   -3.1967441    0.0002093   -1.8949029  
C    6.5698747   -0.0006428    0.9721603  
C    7.6069602   -0.0018571    0.1026602  
C    6.9912939   -0.0024309   -1.2154652  
C    5.5370519   -0.0015110   -0.9475768  
N    5.2839241   -0.0003803    0.3330149  
C    4.5679459   -0.0016858   -2.0086704  
C    5.0305951   -0.0023432   -3.2796108  
O    4.2398089   -0.0025856   -4.3662103  
C    6.4922740   -0.0029076   -3.5823567  
O    6.8417591   -0.0036182   -4.7626446  
C    7.4664602   -0.0027586   -2.4765150  
H    8.6597315   -0.0022174    0.3279326  
H    4.8556972   -0.0030421   -5.1210842  
H    8.5162190   -0.0030663   -2.7377369  
H    6.6068542    0.0001033    2.0499385  
C    2.5285572    2.1210227    2.9438989  
C    1.9331703    1.6216660    4.0790748  
C    0.8903039    0.7472258    3.6520102  
C    0.8972198    0.7527806    2.2336141  
N    1.9028376    1.5986179    1.8362361  
C    0.0000000    0.0000000    1.4700000  
C   -0.9207814   -0.7726952    2.1506477  
O   -1.8198395   -1.5274828    1.4542253  
C   -0.9436862   -0.7911793    3.5655508  
O   -1.9197945   -1.6098497    4.0950179  
C   -0.0590329   -0.0485852    4.3195194  
H    2.2150357    1.8593692    5.0905303  
H    2.1533708    1.7953814    0.8841339  
H   -2.3621246   -1.9821033    2.1118817  
H   -1.8668290   -1.5649508    5.0545920  
H   -0.1007624   -0.0827977    5.4019087  
H    3.3491200    2.8096064    2.8367138  
