60

C   -8.3554846    2.9864576   -2.0327701  
C   -7.5716591    2.0012690   -2.5872867  
C   -8.3323733    0.7951538   -2.5526412  
C   -9.5829393    1.1086677   -1.9612704  
N   -9.5629937    2.4469024   -1.6557419  
C  -10.5876225    0.1559873   -1.7668455  
C  -10.3251985   -1.1366686   -2.1771525  
O  -11.2714177   -2.1062964   -2.0113116  
C   -9.0833727   -1.4691156   -2.7689015  
O   -8.9746478   -2.7979323   -3.1235380  
C   -8.0916674   -0.5298430   -2.9607692  
H   -6.5738763    2.1351864   -2.9687155  
H  -10.3181798    2.9574489   -1.2350077  
H  -11.5428265    0.3885128   -1.3166041  
H  -10.8898047   -2.9226119   -2.3595428  
H   -8.1072686   -2.9381422   -3.5154535  
H   -8.1482048    4.0310264   -1.8750666  
C   -4.0214240    0.6873775   -1.9917542  
C   -3.2941076    0.0012878   -2.9038237  
C   -4.2729631   -0.7438335   -3.6804419  
C   -5.5765699   -0.3795575   -3.0850458  
N   -5.4354549    0.4591737   -2.0947902  
C   -6.8150156   -0.9155366   -3.5790742  
C   -6.7539672   -1.7760010   -4.6208077  
O   -7.8303767   -2.3520035   -5.1825928  
C   -5.4537106   -2.1628842   -5.2435559  
O   -5.4732706   -2.9512792   -6.1886864  
C   -4.1970811   -1.5995187   -4.7187458  
H   -7.4696188   -2.9089611   -5.8958983  
H   -3.2763256   -1.9047888   -5.1975465  
H   -3.6647949    1.3595210   -1.2275476  
C    0.0000000    0.0000000    0.0000000  
C    1.0541688   -0.0001723   -0.8560392  
C    0.5103136   -0.0000455   -2.1935956  
C   -0.9576373    0.0002461   -2.0455730  
N   -1.2018460   -0.0001389   -0.6915968  
C   -1.8348314    0.0008319   -3.0810607  
C   -1.2972851    0.0009739   -4.4314603  
O   -2.0050676    0.0014268   -5.4301316  
C    0.2542619    0.0004184   -4.6117572  
O    0.7184666    0.0002257   -5.7439122  
C    1.0974551    0.0000873   -3.4189129  
H    2.0940752   -0.0005484   -0.5817983  
H    2.1707276   -0.0000912   -3.5523673  
H   -2.1128194    0.0014915   -0.2706789  
C    3.2573670    0.0002920    2.9809380  
C    2.5379467    0.0001709    1.8291961  
C    1.1435042   -0.0000331    2.2038498  
C    1.1092607    0.0000083    3.6788474  
N    2.4227561   -0.0001909    4.0882609  
C   -0.0265533    0.0002524    4.4215661  
C   -1.3003036    0.0002640    3.7214979  
O   -2.3786784    0.0004133    4.3006425  
C   -1.2877726   -0.0000311    2.1595606  
O   -2.3539958   -0.0003306    1.5592035  
C    0.0000000    0.0000000    1.4700000  
H    2.9384090    0.0000368    0.8310761  
H   -0.0296291    0.0004086    5.5027230  
H    4.3270393    0.0004765    3.1139444  
H    2.7280493    0.0013407    5.0442112  
