62

C   -8.4986542    0.3774937   -2.4718904  
C   -8.0196018   -0.8381979   -2.9020884  
C   -9.0625719   -1.7907056   -2.7032375  
C  -10.1632883   -1.0920702   -2.1444370  
N   -9.7865467    0.2217119   -2.0153669  
C  -11.3696094   -1.7187150   -1.8174876  
C  -11.4666351   -3.0752836   -2.0593270  
O  -12.6221289   -3.7368967   -1.7591337  
C  -10.3792418   -3.7898170   -2.6159537  
O  -10.6315014   -5.1341344   -2.7962886  
C   -9.1887848   -3.1723173   -2.9384911  
H  -10.3658594    0.9590110   -1.6565236  
H  -12.2122057   -1.1919108   -1.3912103  
H  -12.4788943   -4.6607618   -2.0024871  
H   -9.8473949   -5.5424949   -3.1757915  
H   -8.3732867   -3.7457789   -3.3634433  
H   -8.0230551    1.3431110   -2.4532503  
C   -3.9745997    0.7142314   -1.7986476  
C   -5.3260739    0.4613572   -1.8438008  
C   -5.5426145   -0.4551047   -2.9151590  
C   -4.2757939   -0.7280210   -3.4918819  
N   -3.3460097   -0.0004262   -2.7913647  
C   -4.1094176   -1.5946532   -4.5763429  
C   -5.2424929   -2.1969818   -5.0877318  
O   -5.1370822   -3.0523593   -6.1461412  
C   -6.5152631   -1.9370492   -4.5262085  
O   -7.5453136   -2.6127981   -5.1472581  
C   -6.6801770   -1.0819989   -3.4565265  
H   -6.0650964    0.8861350   -1.1862269  
H   -3.1466552   -1.8067350   -5.0205410  
H   -6.0329559   -3.3562863   -6.3418539  
H   -8.3692960   -2.3818220   -4.7075912  
H   -3.4094885    1.3489378   -1.1377722  
C    0.0000000    0.0000000    0.0000000  
C    1.0662919   -0.0000103   -0.8334272  
C    0.4961868    0.0000066   -2.1718889  
C   -0.9663860   -0.0000849   -1.9540248  
N   -1.2632775   -0.0000084   -0.6828659  
C   -1.8985364   -0.0000515   -3.0477258  
C   -1.3925778    0.0004567   -4.3020543  
O   -2.1456385    0.0005412   -5.4151314  
C    0.0786229    0.0009326   -4.5544999  
O    0.4683756    0.0012594   -5.7221104  
C    1.0143162    0.0008443   -3.4159034  
H    2.1107195    0.0000631   -0.5721869  
H   -1.5042277    0.0009692   -6.1484420  
H    2.0724151    0.0013151   -3.6409746  
C    0.0000000    0.0000000    1.4700000  
C    1.0662921    0.0000102    2.3034270  
C    0.4961870   -0.0000064    3.6418889  
C   -0.9663858    0.0000850    3.4240247  
N   -1.2632773    0.0000084    2.1528658  
C   -1.8985362    0.0000517    4.5177257  
C   -1.3925775   -0.0004564    5.7720543  
O   -2.1456383   -0.0005410    6.8851312  
C    0.0786232   -0.0009323    6.0245000  
O    0.4683759   -0.0012588    7.1921102  
C    1.0143166   -0.0008442    4.8859032  
H    2.1107198   -0.0000632    2.0421868  
H   -2.9622183    0.0003270    4.3293377  
H   -1.5042274   -0.0009692    7.6184419  
H    2.0724152   -0.0013148    5.1109744  
