60

C    2.4843057   -2.1203328   -8.3036623  
C    3.4958086   -2.9706773   -8.6860802  
C    3.5096051   -2.9864331  -10.1123200  
C    2.4753905   -2.1190396  -10.5481598  
N    1.8715113   -1.6113118   -9.4247016  
C    2.1992359   -1.8906413  -11.8995893  
C    2.9815599   -2.5496458  -12.8279539  
O    2.7551757   -2.3625195  -14.1609004  
C    4.0179003   -3.4193620  -12.4127317  
O    4.7071554   -4.0009719  -13.4567633  
C    4.2907207   -3.6453651  -11.0796838  
H    4.1432747   -3.5137611   -8.0191160  
H    1.1092508   -0.9579185   -9.4205570  
H    1.4123363   -1.2308769  -12.2382667  
H    3.4025063   -2.9075260  -14.6269443  
H    5.3886732   -4.5726544  -13.0902709  
H    5.0909011   -4.3172082  -10.7919069  
C    2.5185221   -2.1418787   -5.7664414  
C    2.0285783   -1.7344769   -6.9604095  
C    0.9435064   -0.8236414   -6.6295056  
C    0.9168307   -0.7971605   -5.1512729  
N    1.8378570   -1.5679056   -4.6397540  
C   -0.0307352   -0.0004646   -4.4215603  
C   -0.9113598    0.7365841   -5.1361187  
O   -1.8501209    1.5254492   -4.5861549  
C   -0.9094199    0.7313056   -6.6288110  
O   -1.7398701    1.4264148   -7.2139569  
C    0.0724716   -0.0942330   -7.3542759  
H   -2.3197100    1.9176027   -5.3443463  
H    0.0410973   -0.0704051   -8.4353302  
H    3.3327629   -2.8241130   -5.5805887  
C    3.2573670   -0.0002920   -1.5109380  
C    2.5379468   -0.0001709   -0.3591961  
C    1.1435043    0.0000332   -0.7338500  
C    1.1092609   -0.0000082   -2.2088477  
N    2.4227562    0.0001909   -2.6182613  
C   -0.0265532   -0.0002522   -2.9515663  
C   -1.3003035   -0.0002639   -2.2514981  
O   -2.3786784   -0.0004131   -2.8306429  
C   -1.2877725    0.0000312   -0.6895608  
O   -2.3539958    0.0003307   -0.0892036  
C    0.0000000    0.0000000    0.0000000  
H    2.9384091   -0.0000369    0.6389239  
H    4.3270394   -0.0004765   -1.6439446  
H    2.7280494   -0.0013406   -3.5742113  
C    0.8400945    0.7047457    2.2710304  
C    0.0000000    0.0000000    1.4700000  
C   -0.8844236   -0.7423113    2.3369512  
C   -0.4878984   -0.4098547    3.7186280  
N    0.5629682    0.4714286    3.6095011  
C   -1.0836927   -0.9095027    4.8308716  
C   -2.1891196   -1.8367527    4.6554461  
O   -2.7906899   -2.3413415    5.5944904  
C   -2.6257283   -2.2031529    3.2011665  
O   -3.5549479   -2.9829990    3.0410059  
C   -1.9068976   -1.5999348    2.0816745  
H   -0.7774656   -0.6525820    5.8354244  
H   -2.2155208   -1.8586617    1.0779135  
H    1.6384792    1.3747609    1.9961646  
H    1.0518368    0.8833920    4.3830260  
