66

C    4.1072309   -0.7191034   -4.4475461  
C    3.0267439   -0.0008958   -3.9901693  
C    2.5087349    0.7258910   -5.1028450  
C    3.3206458    0.4084330   -6.2217500  
N    4.2827396   -0.4698441   -5.7885964  
C    3.1000334    0.9464840   -7.4932137  
C    2.0403153    1.8207013   -7.6378508  
O    1.7797478    2.3748838   -8.8576868  
C    1.2191171    2.1500691   -6.5333300  
O    0.2053889    3.0346599   -6.8386149  
C    1.4363353    1.6198567   -5.2786521  
H    4.9963749   -0.8790804   -6.3641242  
H    1.0098914    2.9463160   -8.7391489  
H   -0.3015560    3.2041262   -6.0386827  
H    0.7906454    1.8909166   -4.4515550  
H    4.7674530   -1.3883367   -3.9229585  
C    3.3003550    0.0005271   -1.4738980  
C    2.5232818    0.0003492   -2.6090740  
C    1.1623204   -0.0001324   -2.1820096  
C    1.1711884    0.0000582   -0.7636136  
N    2.4852300   -0.0014919   -0.3662355  
C    0.0000000    0.0000000    0.0000000  
C   -1.2020384    0.0000519   -0.6806474  
O   -2.3759249    0.0003495    0.0157742  
C   -1.2314655   -0.0005117   -2.0955509  
O   -2.5054387   -0.0008042   -2.6250186  
C   -0.0764509   -0.0007278   -2.8495195  
H    2.8036264    0.0088184    0.5858664  
H   -3.0835635    0.0000345   -0.6418820  
H   -2.4360043   -0.0011535   -3.5845924  
H   -0.1304089   -0.0013428   -3.9319088  
H    4.3715554    0.0004891   -1.3667124  
C    4.9496390   -2.8706482   -8.9067637  
C    4.2524778   -1.9258510   -8.1899695  
C    4.4003291   -0.6865725   -8.8805700  
C    5.2046045   -0.9391586  -10.0213007  
N    5.5223790   -2.2745980  -10.0058724  
C    5.5560196    0.0591053  -10.9349560  
C    5.0867259    1.3355466  -10.6927985  
O    5.3995828    2.3479005  -11.5531901  
C    4.2833075    1.6074360   -9.5599205  
O    3.8949745    2.9273207   -9.4577235  
C    3.9364605    0.6231674   -8.6580122  
H    3.7056470   -2.1073010   -7.2805495  
H    6.0756013   -2.7475394  -10.6974306  
H    6.1687976   -0.1269006  -11.8062221  
H    4.9779732    3.1436115  -11.2034003  
H    3.3562877    3.0254887   -8.6666583  
H    5.0848435   -3.9222509   -8.7201879  
C    2.5285572    2.1210227    2.9438989  
C    1.9331703    1.6216660    4.0790748  
C    0.8903039    0.7472258    3.6520102  
C    0.8972198    0.7527806    2.2336141  
N    1.9028376    1.5986179    1.8362361  
C    0.0000000    0.0000000    1.4700000  
C   -0.9207814   -0.7726952    2.1506477  
O   -1.8198395   -1.5274828    1.4542253  
C   -0.9436862   -0.7911793    3.5655508  
O   -1.9197945   -1.6098497    4.0950179  
C   -0.0590329   -0.0485852    4.3195194  
H    2.2150357    1.8593692    5.0905303  
H    2.1533708    1.7953814    0.8841339  
H   -2.3621246   -1.9821033    2.1118817  
H   -1.8668290   -1.5649508    5.0545920  
H   -0.1007624   -0.0827977    5.4019087  
H    3.3491200    2.8096064    2.8367138  
