66

C   -1.0600880    0.3578720   -0.8003809  
C    0.0000000    0.0000000    0.0000000  
C    1.0723465   -0.3638283   -0.8673532  
C    0.6039544   -0.2064601   -2.1969283  
N   -0.6949886    0.2311254   -2.1202243  
C    1.3982713   -0.4760683   -3.3154816  
C    2.6890373   -0.9121986   -3.0876864  
O    3.5076868   -1.1896025   -4.1440359  
C    3.1744724   -1.0757325   -1.7684340  
O    4.4800566   -1.5173848   -1.7073138  
C    2.3913294   -0.8102044   -0.6644828  
H    1.0471682   -0.3582738   -4.3313815  
H    4.3508854   -1.4746720   -3.7685146  
H    4.7297315   -1.6013374   -0.7819926  
H    2.7906098   -0.9449513    0.3339647  
H   -2.0482056    0.6921376   -0.5342067  
C   -3.6619622    3.4892605   -2.8760568  
C   -2.7122822    2.6722983   -2.3075956  
C   -2.4221189    1.6479635   -3.2568813  
C   -3.2317754    1.8939913   -4.3952368  
N   -3.9736962    3.0181772   -4.1299509  
C   -3.2069868    1.0793735   -5.5312701  
C   -2.3490069   -0.0031571   -5.5180174  
O   -2.2847068   -0.8310567   -6.6012813  
C   -1.5335498   -0.2653645   -4.3914763  
O   -0.7335736   -1.3805686   -4.5318412  
C   -1.5576823    0.5376962   -3.2702998  
H   -2.2824358    2.7984258   -1.3286589  
H   -4.6322440    3.4407172   -4.7590424  
H   -3.8216741    1.2614028   -6.4020326  
H   -1.6337897   -1.5117954   -6.3864163  
H   -0.2155420   -1.4863912   -3.7280697  
C   -3.2365688    5.6106444    0.9810991  
C   -4.1530765    6.6067940    0.7358112  
C   -4.6796756    6.3758569   -0.5695475  
C   -4.0417906    5.2147035   -1.0762539  
N   -3.1703311    4.7764585   -0.1102743  
C   -4.3183509    4.6917492   -2.3430693  
C   -5.2561536    5.3528437   -3.1122617  
O   -5.5643965    4.8848854   -4.3568562  
C   -5.9030502    6.5131366   -2.6243454  
O   -6.8110303    7.0570028   -3.5092892  
C   -5.6305138    7.0297610   -1.3748057  
H   -4.4096307    7.4026969    1.4138317  
H   -2.5847566    3.9641201   -0.1823178  
H   -6.2309689    5.4844654   -4.7166470  
H   -7.2026368    7.8361244   -3.1028193  
H   -6.1418331    7.9202099   -1.0282051  
H   -2.6238313    5.4300022    1.8476328  
C    0.0000000    0.0000000    1.4700000  
C    1.0521667    0.0011902    2.3562342  
C    0.4917218    0.0011957    3.6679131  
C   -0.9187428   -0.0003148    3.5178682  
N   -1.1833171    0.0009411    2.1707914  
C   -1.7951701   -0.0010350    4.6072090  
C   -1.2375837   -0.0005224    5.8710424  
O   -2.0474215   -0.0015360    6.9697579  
C    0.1673580    0.0013566    6.0411963  
O    0.5673524    0.0020687    7.3615553  
C    1.0325770    0.0023412    4.9669890  
H    2.0953057    0.0030649    2.0900562  
H   -2.0989778   -0.0102372    1.7591824  
H   -2.8710934   -0.0020419    4.4995513  
H   -1.4634884   -0.0006497    7.7393593  
H    1.5290710    0.0033153    7.3880045  
H    2.1042148    0.0039609    5.1284455  
