60

C    5.4805152   -4.3738248   -6.5843576  
C    5.8240660   -5.0045953   -5.4110851  
C    4.8882030   -4.5813531   -4.4213245  
C    3.9893858   -3.6852275   -5.0545802  
N    4.3786740   -3.5801117   -6.3668386  
C    2.9316273   -3.0707055   -4.3776028  
C    2.7782455   -3.3664352   -3.0370072  
O    1.7617361   -2.7943882   -2.3281462  
C    3.6650273   -4.2577584   -2.3874087  
O    3.3804909   -4.4495163   -1.0511413  
C    4.7089142   -4.8641535   -3.0545750  
H    6.6485229   -5.6851100   -5.2839441  
H    3.9217589   -3.0214480   -7.0647671  
H    1.8352415   -3.1307699   -1.4255340  
H    4.0255089   -5.0640597   -0.6879706  
H    5.3720563   -5.5423388   -2.5303750  
H    5.9351282   -4.4261923   -7.5588020  
C    1.9957411   -2.1407949   -5.0258948  
C    1.9855627   -1.7332335   -6.3163870  
C    0.8551746   -0.8225476   -6.4132070  
C    0.2799735   -0.7963194   -5.0512088  
N    0.9444052   -1.5670713   -4.2336140  
C   -0.8712826    0.0001710   -4.7267111  
C   -1.4226087    0.7372646   -5.7177042  
O   -2.4987601    1.5259556   -5.5567519  
C   -0.8649837    0.7322389   -7.1023303  
O   -1.4179258    1.4273754   -7.9545395  
C    0.3165522   -0.0930917   -7.4101078  
H    2.6616908   -2.0156327   -7.1051695  
H   -2.6523130    1.9181970   -6.4352286  
H    0.6899760   -0.0690838   -8.4250993  
C    1.0965514    0.0001359   -0.8010305  
C    0.0000000    0.0000000    0.0000000  
C   -1.1546563    0.0001470   -0.8669513  
C   -0.6372014    0.0003519   -2.2486282  
N    0.7342871    0.0007337   -2.1395014  
C   -1.4147739    0.0001352   -3.3608717  
C   -2.8576049   -0.0001048   -3.1854462  
O   -3.6427779   -0.0002494   -4.1244907  
C   -3.4275840   -0.0000725   -1.7311666  
O   -4.6406831    0.0000333   -1.5710060  
C   -2.4891867   -0.0001091   -0.6116744  
H   -2.8919122   -0.0002918    0.3920866  
H    2.1388272    0.0000663   -0.5261648  
H    1.3735872   -0.0006099   -2.9130262  
C    0.0000000    0.0000000    1.4700000  
C    1.0662921    0.0000102    2.3034270  
C    0.4961870   -0.0000064    3.6418889  
C   -0.9663858    0.0000850    3.4240247  
N   -1.2632773    0.0000084    2.1528658  
C   -1.8985362    0.0000517    4.5177257  
C   -1.3925775   -0.0004564    5.7720543  
O   -2.1456383   -0.0005410    6.8851312  
C    0.0786232   -0.0009323    6.0245000  
O    0.4683759   -0.0012588    7.1921102  
C    1.0143166   -0.0008442    4.8859032  
H    2.1107198   -0.0000632    2.0421868  
H   -2.9622183    0.0003270    4.3293377  
H   -1.5042274   -0.0009692    7.6184419  
H    2.0724152   -0.0013148    5.1109744  
