62

C    3.3041277    0.0001176   -1.5420422  
C    2.5845371   -0.0004780   -0.3695846  
C    1.2040006   -0.0000008   -0.7283586  
C    1.1422384    0.0006037   -2.1454371  
N    2.4348644    0.0026109   -2.6077459  
C   -0.0655172    0.0008798   -2.8497916  
C   -1.2321763    0.0002325   -2.1101401  
O   -2.4392807    0.0001147   -2.7472523  
C   -1.1911213   -0.0000008   -0.6955266  
O   -2.4371520   -0.0002319   -0.1032867  
C    0.0000000    0.0000000    0.0000000  
H    3.0031534   -0.0000661    0.6222589  
H    2.7054633   -0.0071100   -3.5745256  
H   -0.1193541    0.0014843   -3.9297470  
H   -3.1132989   -0.0000648   -2.0551790  
H   -2.3200289   -0.0004070    0.8516405  
C    6.6801369   -0.0033359    1.2661402  
C    7.7093287   -0.0019930    0.3802296  
C    7.1273480   -0.0004471   -0.9411831  
C    5.6642442   -0.0009742   -0.7511341  
N    5.4589562   -0.0031398    0.6092857  
C    4.7577224    0.0005128   -1.7610450  
C    5.2563301    0.0025578   -3.1262999  
O    4.5202056    0.0039396   -4.1042669  
C    6.8020700    0.0028971   -3.3510072  
O    7.2336242    0.0043058   -4.4960050  
C    7.6791169    0.0014555   -2.1828292  
H    8.7566703   -0.0022582    0.6245425  
H    6.7110416   -0.0046692    2.3436059  
H    4.5604253   -0.0024244    1.0561502  
C   11.0046827   -2.0947285   -0.1720943  
C    9.7825491   -1.6319290   -0.5412571  
C    9.9905504   -0.7338270   -1.6525551  
C   11.4444654   -0.7111962   -1.9023739  
N   12.0020615   -1.5565463   -0.9710527  
C   12.0463304    0.0202028   -2.8742374  
C   11.2060933    0.8399859   -3.7312622  
O   11.6529746    1.5344078   -4.6347969  
C    9.6637430    0.8314922   -3.4845053  
O    8.9462491    1.5179418   -4.1995234  
C    9.1320829    0.0020687   -2.4059662  
H    8.8426269   -1.8900742   -0.0868104  
H   13.1145865    0.0225146   -3.0407761  
H   11.2606531   -2.7835059    0.6165465  
H   12.9823256   -1.7538777   -0.8862546  
C    2.5311839    2.1237619    3.0120429  
C    1.9795631    1.6616747    1.8395852  
C    0.9223175    0.7739173    2.1983588  
C    0.8753926    0.7337535    3.6154372  
N    1.8668922    1.5631002    4.0777464  
C   -0.0496243   -0.0427881    4.3197917  
C   -0.9437528   -0.7922060    3.5801400  
O   -1.8685244   -1.5680278    4.2172520  
C   -0.9124520   -0.7656372    2.1655264  
O   -1.8671164   -1.5663939    1.5732860  
C    0.0000000    0.0000000    1.4700000  
H    2.3005065    1.9304404    0.8477417  
H    2.0679347    1.7444845    5.0445261  
H   -0.0904770   -0.0778569    5.3997470  
H   -2.3849669   -2.0011402    3.5251786  
H   -1.7775064   -1.4909735    0.6183591  
H    3.3468514    2.8078103    3.1724291  
