60

C    6.8140259    2.1199237   -5.4735783  
C    7.7459535    1.6210565   -6.3539815  
C    8.5945659    0.7475857   -5.6113481  
C    8.1277917    0.7531996   -4.2719387  
N    7.0469291    1.5981398   -4.2226403  
C    8.7293340    0.0012712   -3.2582632  
C    9.8218008   -0.7706171   -3.6030571  
O   10.4468862   -1.5245537   -2.6523403  
C   10.3025768   -0.7891453   -4.9339702  
O   11.3983614   -1.6069513   -5.1177951  
C    9.7097995   -0.0473916   -5.9344411  
H    7.8073244    1.8584568   -7.4022512  
H    6.5008559    1.7947189   -3.4034080  
H   11.1736062   -1.9787111   -3.0983054  
H   11.6595775   -1.5621449   -6.0426528  
H   10.1005032   -0.0816162   -6.9447164  
H    6.0024989    2.8077650   -5.6386742  
C    4.7390840    0.0009613   -1.2727298  
C    5.6949926    0.0015508   -2.2307581  
C    6.9549530    0.0016807   -1.5034352  
C    6.5623381    0.0012144   -0.0777997  
N    5.2646567    0.0007108    0.0636641  
C    7.5356726    0.0011408    0.9794169  
C    8.8418534    0.0011269    0.6283818  
O    9.8560150    0.0010683    1.5101514  
C    9.2698381    0.0012206   -0.8016498  
O   10.4759226    0.0013265   -1.0477817  
C    8.2523631    0.0013389   -1.8677960  
H    5.5615833    0.0017691   -3.2990638  
H    7.2204120    0.0010027    2.0126260  
H   10.6613105    0.0010481    0.9618336  
C    3.2798077    0.0005856   -1.4499661  
C    2.5571132    0.0005565   -2.5996564  
C    1.1637425    0.0001547   -2.2210366  
C    1.1336959   -0.0000200   -0.7459475  
N    2.4483509   -0.0001429   -0.3402730  
C    0.0000000    0.0000000    0.0000000  
C   -1.2757370   -0.0000187   -0.6964411  
O   -2.3524597   -0.0000640   -0.1142306  
C   -1.2676502   -0.0000874   -2.2584078  
O   -2.3355774   -0.0004102   -2.8557287  
C    0.0181551    0.0001758   -2.9516297  
H    2.9547342    0.0006074   -3.5989118  
H    0.0150776    0.0003317   -4.0331632  
H    2.7563626    0.0012823    0.6148051  
C    0.0000000    0.0000000    1.4700000  
C    1.0541688    0.0001722    2.3260392  
C    0.5103138    0.0000454    3.6635956  
C   -0.9576371   -0.0002459    3.5155732  
N   -1.2018458    0.0001392    2.1615969  
C   -1.8348311   -0.0008317    4.5510609  
C   -1.2972847   -0.0009736    5.9014604  
O   -2.0050672   -0.0014265    6.9001319  
C    0.2542623   -0.0004184    6.0817573  
O    0.7184670   -0.0002256    7.2139121  
C    1.0974552   -0.0000873    4.8889129  
H    2.0940752    0.0005483    2.0517982  
H   -2.9081052   -0.0011668    4.4207061  
H    2.1707277    0.0000911    5.0223670  
H   -2.1128194   -0.0014912    1.7406791  
