60

C    3.9928411    0.7104773   -7.7841663  
C    3.9459904    0.4605950   -9.1361393  
C    5.0058075   -0.4481847   -9.4285553  
C    5.6706358   -0.7197156   -8.2053622  
N    5.0313853    0.0012894   -7.2275447  
C    6.7697048   -1.5793388   -8.1165669  
C    7.2053846   -2.1759532   -9.2837901  
O    8.2741696   -3.0243767   -9.2539834  
C    6.5553930   -1.9172914  -10.5140028  
O    7.1080846   -2.5867898  -11.5862183  
C    5.4712449   -1.0691536  -10.6023905  
H    3.2360449    0.8823912   -9.8268340  
H    7.2808768   -1.7903270   -7.1873797  
H    8.4093920   -3.3251977  -10.1619949  
H    6.6109149   -2.3571510  -12.3772263  
H    4.9939366   -0.8902194  -11.5587572  
H    3.3685030    1.3395872   -7.1731167  
C    2.5562217   -0.0001551   -3.6003001  
C    3.5357958   -0.0006720   -2.6598164  
C    4.7960229   -0.0006609   -3.3645605  
C    4.4679970   -0.0000616   -4.8030278  
N    3.0942340   -0.0001761   -4.8782995  
C    5.3873315    0.0005227   -5.8012902  
C    6.7937409    0.0003382   -5.4344817  
O    7.6974453    0.0007629   -6.2600838  
C    7.1641096   -0.0005465   -3.9170389  
O    8.3448915   -0.0010156   -3.5960816  
C    6.0844249   -0.0008436   -2.9331010  
H    3.3919675   -0.0012036   -1.5940179  
H    6.3492934   -0.0012512   -1.8844982  
H    2.5641257    0.0016995   -5.7303728  
C    0.0000000    0.0000000    0.0000000  
C    1.0541688   -0.0001722   -0.8560390  
C    0.5103141   -0.0000453   -2.1935955  
C   -0.9576367    0.0002460   -2.0455731  
N   -1.2018459   -0.0001392   -0.6915969  
C   -1.8348307    0.0008318   -3.0810611  
C   -1.2972843    0.0009738   -4.4314606  
O   -2.0050665    0.0014267   -5.4301321  
C    0.2542628    0.0004186   -4.6117570  
O    0.7184676    0.0002258   -5.7439117  
C    1.0974555    0.0000874   -3.4189127  
H    2.0940752   -0.0005483   -0.5817978  
H   -2.9081051    0.0011670   -2.9507061  
H   -2.1128194    0.0014912   -0.2706792  
C    1.0965515   -0.0001358    2.2710304  
C    0.0000000    0.0000000    1.4700000  
C   -1.1546562   -0.0001469    2.3369512  
C   -0.6372014   -0.0003519    3.7186280  
N    0.7342871   -0.0007337    3.6095011  
C   -1.4147739   -0.0001353    4.8308716  
C   -2.8576048    0.0001048    4.6554461  
O   -3.6427778    0.0002493    5.5944904  
C   -3.4275839    0.0000726    3.2011665  
O   -4.6406829   -0.0000333    3.0410059  
C   -2.4891866    0.0001091    2.0816745  
H   -1.0150448   -0.0001615    5.8354244  
H   -2.8919121    0.0002919    1.0779135  
H    2.1388271   -0.0000662    1.9961646  
H    1.3735872    0.0006099    4.3830260  
