60

C    6.0813944    0.0153287    3.8220631  
C    6.7709251    0.0256425    5.0124025  
C    8.1601255    0.0156101    4.6889491  
C    8.2579096   -0.0005699    3.2739923  
N    6.9774641   -0.0022609    2.7789435  
C    9.4831779   -0.0134271    2.6006846  
C   10.6306370   -0.0095793    3.3697752  
O   11.8535446   -0.0213130    2.7636640  
C   10.5536132    0.0061176    4.7827997  
O   11.7841677    0.0076292    5.4065618  
C    9.3451986    0.0185342    5.4477098  
H    6.3272183    0.0376756    5.9932053  
H    9.5644621   -0.0259296    1.5225207  
H   12.5097348   -0.0164220    3.4726463  
H   11.6427937    0.0186105    6.3581375  
H    9.3176334    0.0302516    6.5310294  
H    5.0212921    0.0176819    3.6346159  
C    6.6174608   -0.0017048    1.3537072  
C    5.3857487   -0.0012517    0.7819021  
C    5.5854748   -0.0008504   -0.6481134  
C    7.0449747   -0.0011378   -0.8641002  
N    7.6133360   -0.0012549    0.3888384  
C    7.6418658   -0.0012960   -2.0828803  
C    6.7899754   -0.0009490   -3.2605127  
O    7.2316300   -0.0009952   -4.4021091  
C    5.2415210   -0.0003890   -3.0553446  
O    4.5141870    0.0002132   -4.0393394  
C    4.7161325   -0.0005435   -1.6923264  
H    4.4446715   -0.0010218    1.3024657  
H    8.7143806   -0.0016366   -2.2193405  
H    8.5996515   -0.0030073    0.5738403  
C    3.2573665   -0.0002920   -1.5109385  
C    2.5379463   -0.0001709   -0.3591964  
C    1.1435038    0.0000331   -0.7338500  
C    1.1092599   -0.0000083   -2.2088477  
N    2.4227553    0.0001909   -2.6182613  
C   -0.0265539   -0.0002524   -2.9515660  
C   -1.3003040   -0.0002640   -2.2514977  
O   -2.3786790   -0.0004133   -2.8306421  
C   -1.2877727    0.0000311   -0.6895603  
O   -2.3539959    0.0003306   -0.0892030  
C    0.0000000    0.0000000    0.0000000  
H    2.9384091   -0.0000367    0.6389234  
H   -0.0296303   -0.0004086   -4.0327229  
H    2.7280482   -0.0013407   -3.5742119  
C    2.5128556    2.1077716    2.9199648  
C    1.9592212    1.6432552    4.0696553  
C    0.8915788    0.7479214    3.6910360  
C    0.8684491    0.7287414    2.2159470  
N    1.8754542    1.5738793    1.8102719  
C    0.0000000    0.0000000    1.4700000  
C   -0.9772830   -0.8200135    2.1664417  
O   -1.8021297   -1.5120829    1.5842315  
C   -0.9711318   -0.8147624    3.7284083  
O   -1.7894187   -1.5009653    4.3257297  
C    0.0140216    0.0115358    4.4216297  
H    2.2638494    1.8988021    5.0689105  
H    0.0117648    0.0094386    5.5031631  
H    3.3327358    2.7953732    2.7900019  
H    2.1123206    1.7707734    0.8551938  
