62

C   -0.5494834    0.0892217   -8.7066855  
C    0.1887020   -0.5585563   -9.6699784  
C   -0.3333430   -0.1564399  -10.9350358  
C   -1.3976971    0.7453592  -10.6784533  
N   -1.5033706    0.8707765   -9.3154714  
C   -2.1443488    1.3437094  -11.6979033  
C   -1.8102614    1.0261445  -13.0000997  
O   -2.5065943    1.5822732  -14.0339537  
C   -0.7518056    0.1282576  -13.2763009  
O   -0.5421526   -0.0864659  -14.6228834  
C   -0.0149648   -0.4626114  -12.2710820  
H    1.0025365   -1.2382520   -9.4837520  
H   -2.1651651    1.4538887   -8.8358999  
H   -2.9568370    2.0317234  -11.5089519  
H   -2.1170595    1.2315589  -14.8454506  
H    0.1888950   -0.7039672  -14.7222064  
H    0.7899862   -1.1466074  -12.5133252  
C    2.1801846   -2.1249309   -6.0224128  
C    1.6691588   -1.6625653   -4.8318088  
C    0.6003592   -0.7747106   -5.1542709  
C    0.5048750   -0.7347773   -6.5689139  
N    1.4798201   -1.5643490   -7.0648071  
C   -0.4436396    0.0417841   -7.2412683  
C   -1.3117719    0.7914588   -6.4715206  
O   -2.2577359    1.5673117   -7.0766812  
C   -1.2319854    0.7651224   -5.0588080  
O   -2.1656653    1.5661201   -4.4343180  
C   -0.2963293   -0.0005341   -4.3948471  
H    2.0238859   -1.9312126   -3.8515077  
H    1.6475668   -1.7459252   -8.0378808  
H   -2.7500809    2.0006166   -6.3673799  
H   -2.0433737    1.4908465   -3.4830122  
H    2.9897747   -2.8091277   -6.2105564  
C    3.1301146   -0.0010313   -1.7028256  
C    2.5367765   -0.0002766   -0.4864669  
C    1.1089901    0.0001027   -0.7656184  
C    1.0177865   -0.0004150   -2.2415133  
N    2.1993571   -0.0011612   -2.7963824  
C   -0.2459219   -0.0002879   -2.9257116  
C   -1.3675326   -0.0000606   -2.1698520  
O   -2.6129318    0.0000865   -2.6748483  
C   -1.3083588    0.0000910   -0.6783229  
O   -2.3693264    0.0004206   -0.0541685  
C    0.0000000    0.0000000    0.0000000  
H    3.0096016   -0.0001007    0.4807518  
H   -3.1967444    0.0002093   -1.8949026  
H    4.1849275   -0.0015114   -1.9271979  
C    0.8175213    0.6860729    2.3021913  
C    0.0000000    0.0000000    1.4700000  
C   -0.8887526   -0.7456559    2.3478473  
C   -0.4549825   -0.3816753    3.7138435  
N    0.5448156    0.4573574    3.6934124  
C   -1.0945674   -0.9182058    4.8835240  
C   -2.1210866   -1.7789155    4.6970523  
O   -2.8083856   -2.3554314    5.6976972  
C   -2.5824069   -2.1655116    3.3310774  
O   -3.5227682   -2.9541547    3.2362962  
C   -1.9100805   -1.6015804    2.1470656  
H   -0.7567140   -0.6349833    5.8697035  
H   -3.4728268   -2.9124471    5.2533954  
H   -2.2742832   -1.9066565    1.1752040  
H    1.6189533    1.3585343    2.0405121  
