62

C    1.3570374   -2.3368627   -7.3095182  
C    2.2974893   -2.5364962   -8.2934714  
C    2.4416186   -1.2994340   -8.9888156  
C    1.5564926   -0.3737550   -8.3792278  
N    0.9120321   -1.0367474   -7.3644723  
C    1.4343110    0.9511384   -8.8087838  
C    2.2201924    1.3488924   -9.8729072  
O    2.1408901    2.6316352  -10.3325747  
C    3.1090719    0.4398574  -10.4944904  
O    3.8223157    0.9874038  -11.5408273  
C    3.2299288   -0.8674048  -10.0714241  
H    2.8150676   -3.4604224   -8.4870361  
H    0.7614793    1.6615306   -8.3485199  
H    2.7631807    2.6968807  -11.0686210  
H    4.3982253    0.3080803  -11.9047665  
H    3.9192600   -1.5407555  -10.5673069  
H    0.9674368   -3.0194013   -6.5737800  
C   -0.1938774   -0.6741350   -5.1271795  
C   -0.0850113   -0.4444570   -6.4611477  
C   -1.1306720    0.4863330   -6.8147846  
C   -1.8628869    0.7822419   -5.5685541  
N   -1.2456329    0.0471727   -4.5828766  
C   -2.9252694    1.6222082   -5.4819278  
C   -3.3778809    2.2784522   -6.6972554  
O   -4.3258457    3.0524069   -6.7229086  
C   -2.6173830    1.9795653   -8.0284637  
O   -2.9895272    2.5259814   -9.0581230  
C   -1.4861981    1.0558654   -7.9960429  
H   -3.4482361    1.8256011   -4.5577809  
H   -0.9648590    0.8544208   -8.9219753  
H    0.4056143   -1.3098165   -4.4959835  
C    1.1243410    0.0099923   -0.7919003  
C    0.7474076    0.0234544   -2.1148543  
C   -0.6787381    0.0234490   -2.1414700  
C   -1.1201745    0.0098592   -0.7935546  
N    0.0000000    0.0000000    0.0000000  
C   -2.4730816    0.0063709   -0.4408240  
C   -3.3971958    0.0170982   -1.4675058  
O   -4.7313517    0.0146259   -1.1793471  
C   -2.9763648    0.0303504   -2.8186324  
O   -4.0166480    0.0395118   -3.7247624  
C   -1.6418562    0.0335260   -3.1673481  
H    1.4178717    0.0310972   -2.9571209  
H   -2.8160166   -0.0041111    0.5845966  
H   -5.1938818    0.0230867   -2.0274384  
H   -3.6464675    0.0482293   -4.6127343  
H    2.1062467    0.0052819   -0.3505407  
C    2.3971438    2.0127888    3.1728260  
C    1.9431056    1.6308205    1.9564670  
C    0.8496017    0.7127664    2.2356185  
C    0.7794028    0.6545384    3.7115134  
N    1.6840587    1.4146091    4.2663826  
C   -0.1885723   -0.1578550    4.3957118  
C   -1.0476298   -0.8789867    3.6398520  
O   -2.0015663   -1.6796266    4.1448486  
C   -1.0022026   -0.8410666    2.1483229  
O   -1.8147390   -1.5232959    1.5241687  
C    0.0000000    0.0000000    1.4700000  
H    2.3054237    1.9346118    0.9892483  
H   -0.2170646   -0.1815267    5.4753125  
H   -2.4487139   -2.0549881    3.3649027  
H    3.2048689    2.6911772    3.3971983  
