62

C    4.5679461   -0.0016852   -2.0086700  
C    5.6536973   -0.0029014   -1.1639159  
C    6.8200667   -0.0036869   -1.9850012  
C    6.3798480   -0.0026034   -3.3333826  
N    5.0072030   -0.0033524   -3.3118967  
C    7.2630035   -0.0026748   -4.4172766  
C    8.6151888   -0.0035546   -4.1348421  
O    9.5213679   -0.0033135   -5.1555544  
C    9.0739280   -0.0050175   -2.7960467  
O   10.4486148   -0.0061771   -2.6795160  
C    8.2032430   -0.0052211   -1.7262640  
H    5.6103768   -0.0042925   -0.0882232  
H    4.4140950    0.0076885   -4.1218859  
H    6.9338469   -0.0019967   -5.4472563  
H   10.3956196   -0.0043378   -4.7445211  
H   10.6745780   -0.0070988   -1.7443458  
H    8.5841289   -0.0065375   -0.7116693  
C    3.1301152   -0.0010311   -1.7028251  
C    2.5367770   -0.0002766   -0.4864665  
C    1.1089905    0.0001028   -0.7656183  
C    1.0177873   -0.0004148   -2.2415130  
N    2.1993580   -0.0011610   -2.7963820  
C   -0.2459208   -0.0002877   -2.9257119  
C   -1.3675318   -0.0000605   -2.1698523  
O   -2.6129310    0.0000866   -2.6748492  
C   -1.3083584    0.0000911   -0.6783232  
O   -2.3693259    0.0004206   -0.0541692  
C    0.0000000    0.0000000    0.0000000  
H    3.0096019   -0.0001007    0.4807529  
H   -3.1967440    0.0002093   -1.8949035  
C    2.1650280   -2.1089222   -5.9297634  
C    1.5723618   -1.6445161   -7.0598735  
C    0.5184584   -0.7489600   -6.6450207  
C    0.5459270   -0.7295295   -5.1700093  
N    1.5661299   -1.5747492   -4.7989581  
C   -0.2963281   -0.0005339   -4.3948471  
C   -1.2968006    0.8195084   -5.0575089  
O   -2.1010989    1.5117980   -4.4474761  
C   -1.3442148    0.8139947   -6.6187672  
O   -2.1824049    1.5002194   -7.1877962  
C   -0.3835299   -0.0125662   -7.3452202  
H    1.8425093   -1.9002756   -8.0689433  
H   -0.4228717   -0.0106498   -8.4260400  
H    2.9887842   -2.7966240   -5.8278725  
H    1.8355792   -1.7715186   -3.8525303  
C    0.8576279    0.7185626    2.2703808  
C    0.0000000    0.0000000    1.4700000  
C   -0.8668858   -0.7285659    2.3373528  
C   -0.4876752   -0.4117774    3.6669281  
N    0.5635254    0.4678311    3.5902241  
C   -1.1297612   -0.9515493    4.7854808  
C   -2.1738724   -1.8268314    4.5576857  
O   -2.8357962   -2.3827064    5.6140350  
C   -2.5667212   -2.1555554    3.2384331  
O   -3.6226318   -3.0413663    3.1773122  
C   -1.9335634   -1.6236449    2.1344818  
H    1.0363952    0.8769718    4.3757045  
H   -0.8454472   -0.7142436    5.8013813  
H   -3.5178062   -2.9546422    5.2385129  
H   -3.8247440   -3.2102924    2.2519915  
H   -2.2566033   -1.8942483    1.1360343  
H    1.6567807    1.3889844    2.0042067  
