64

C    2.6170209   -1.9850034   -7.6103051  
C    3.7054689   -2.8236556   -7.6767162  
C    4.1677554   -2.7998041   -9.0259094  
C    3.3152145   -1.9214124   -9.7425182  
N    2.3835645   -1.4455135   -8.8536058  
C    3.4764493   -1.6557922  -11.1056902  
C    4.5174653   -2.2881928  -11.7572534  
O    4.7205079   -2.0643052  -13.0882903  
C    5.3785367   -3.1683323  -11.0595950  
O    6.3669072   -3.7202266  -11.8481888  
C    5.2199023   -3.4310504   -9.7148508  
H    4.1151168   -3.3845647   -6.8541818  
H    1.6526293   -0.7930514   -9.0727130  
H    2.8300043   -0.9874633  -11.6576394  
H    5.4867661   -2.5956852  -13.3407761  
H    6.9037455   -4.3013577  -11.3007445  
H    5.8950920   -4.1100308   -9.2073239  
C    1.8844583   -2.1024763   -5.2000027  
C    1.7579316   -1.6369210   -6.4693819  
C    0.6249274   -0.7419055   -6.4785612  
C    0.0979867   -0.7240443   -5.1005903  
N    0.9053926   -1.5695642   -4.3752752  
C   -0.9736297    0.0040464   -4.6965763  
C   -1.6535190    0.8247014   -5.6849139  
O   -2.6280813    1.5162659   -5.4198317  
C   -1.1127789    0.8208472   -7.1503119  
O   -1.6771969    1.5075996   -7.9911826  
C    0.0504536   -0.0048497   -7.4649009  
H    0.4187481   -0.0017853   -8.4817951  
H    2.6104398   -2.7902093   -4.7976810  
H    0.8008847   -1.7673169   -3.3970017  
C    1.1188642    0.0008222   -0.8003808  
C    0.0000000    0.0000000    0.0000000  
C   -1.1323862    0.0008899   -0.8673528  
C   -0.6382663    0.0019679   -2.1969280  
N    0.7324016    0.0038481   -2.1202242  
C   -1.4770914    0.0027318   -3.3154808  
C   -2.8395473    0.0020945   -3.0876857  
O   -3.7039201    0.0024425   -4.1440349  
C   -3.3517868    0.0013931   -1.7684331  
O   -4.7300497    0.0012366   -1.7073121  
C   -2.5248543    0.0009123   -0.6644817  
H    1.3576314   -0.0056167   -2.9057046  
H   -4.5940032    0.0021826   -3.7685128  
H   -4.9934602    0.0007259   -0.7819913  
H   -2.9462577    0.0005603    0.3339659  
H    2.1619895    0.0009355   -0.5342068  
C    2.5311839    2.1237619    3.0120429  
C    1.9795631    1.6616747    1.8395852  
C    0.9223175    0.7739173    2.1983588  
C    0.8753926    0.7337535    3.6154372  
N    1.8668922    1.5631002    4.0777464  
C   -0.0496243   -0.0427881    4.3197917  
C   -0.9437528   -0.7922060    3.5801400  
O   -1.8685244   -1.5680278    4.2172520  
C   -0.9124520   -0.7656372    2.1655264  
O   -1.8671164   -1.5663939    1.5732860  
C    0.0000000    0.0000000    1.4700000  
H    2.3005065    1.9304404    0.8477417  
H    2.0679347    1.7444845    5.0445261  
H   -0.0904770   -0.0778569    5.3997470  
H   -2.3849669   -2.0011402    3.5251786  
H   -1.7775064   -1.4909735    0.6183591  
H    3.3468514    2.8078103    3.1724291  
