64

C    5.9104922   -2.1310636   -1.6259822  
C    7.1912874   -1.6345632   -1.5516981  
C    7.3644004   -0.7608261   -2.6657968  
C    6.1450902   -0.7638457   -3.3905028  
N    5.2845822   -1.6075647   -2.7330207  
C    5.9544420   -0.0109645   -4.5530911  
C    7.0138816    0.7592266   -4.9919211  
O    6.8817766    1.5139926   -6.1214748  
C    8.2384632    0.7751593   -4.2827217  
O    9.1969248    1.5915169   -4.8468616  
C    8.4273398    0.0324642   -3.1358756  
H    7.9124991   -1.8736720   -0.7890226  
H    4.3390216   -1.8022812   -3.0086686  
H    7.7258257    1.9666812   -6.2476395  
H    9.9920110    1.5449838   -4.3071608  
H    9.3766494    0.0646910   -2.6140992  
H    5.3943921   -2.8183045   -0.9776779  
C    1.6707638   -0.0012342   -3.2725973  
C    3.0463717   -0.0037028   -3.2854242  
C    3.4499898   -0.0054153   -4.6535212  
C    2.2671975   -0.0035803   -5.4364169  
N    1.2050910   -0.0030098   -4.5666199  
C    2.2856097   -0.0042417   -6.8344325  
C    3.5205419   -0.0064951   -7.4533967  
O    3.5962550   -0.0068815   -8.8162170  
C    4.7118875   -0.0087248   -6.6895196  
O    5.8613553   -0.0112397   -7.4524495  
C    4.6944760   -0.0083472   -5.3103087  
H    3.6808651   -0.0053125   -2.4157067  
H    0.2370775    0.0087997   -4.8326878  
H    1.3876895   -0.0029966   -7.4368771  
H    4.5366398   -0.0088488   -9.0374357  
H    6.6195103   -0.0126057   -6.8601634  
C    1.0965515    0.0001359   -0.8010305  
C    0.0000000    0.0000000    0.0000000  
C   -1.1546564    0.0001470   -0.8669509  
C   -0.6372018    0.0003521   -2.2486279  
N    0.7342868    0.0007339   -2.1395011  
C   -1.4147743    0.0001355   -3.3608714  
C   -2.8576049   -0.0001046   -3.1854455  
O   -3.6427782   -0.0002491   -4.1244898  
C   -3.4275842   -0.0000725   -1.7311664  
O   -4.6406831    0.0000334   -1.5710053  
C   -2.4891868   -0.0001091   -0.6116742  
H   -1.0150456    0.0001619   -4.3654242  
H   -2.8919123   -0.0002920    0.3920869  
H    2.1388270    0.0000663   -0.5261648  
C    2.5311839    2.1237619    3.0120429  
C    1.9795631    1.6616747    1.8395852  
C    0.9223175    0.7739173    2.1983588  
C    0.8753926    0.7337535    3.6154372  
N    1.8668922    1.5631002    4.0777464  
C   -0.0496243   -0.0427881    4.3197917  
C   -0.9437528   -0.7922060    3.5801400  
O   -1.8685244   -1.5680278    4.2172520  
C   -0.9124520   -0.7656372    2.1655264  
O   -1.8671164   -1.5663939    1.5732860  
C    0.0000000    0.0000000    1.4700000  
H    2.3005065    1.9304404    0.8477417  
H    2.0679347    1.7444845    5.0445261  
H   -0.0904770   -0.0778569    5.3997470  
H   -2.3849669   -2.0011402    3.5251786  
H   -1.7775064   -1.4909735    0.6183591  
H    3.3468514    2.8078103    3.1724291  
