64

C    3.3377416   -4.2753630   -1.6428366  
C    2.6310621   -3.4701024   -2.5057542  
C    3.2494765   -3.5877245   -3.7857264  
C    4.3374512   -4.4862699   -3.6413240  
N    4.3638096   -4.8834623   -2.3274893  
C    5.1738057   -4.8383733   -4.7049616  
C    4.9068089   -4.2733371   -5.9368803  
O    5.6918886   -4.5828991   -7.0096503  
C    3.8261231   -3.3744161   -6.1008212  
O    3.6908358   -2.8967219   -7.3880070  
C    3.0007931   -3.0263969   -5.0518987  
H    1.7757988   -2.8707006   -2.2445362  
H    5.0214072   -5.5293586   -1.9295424  
H    6.0047376   -5.5225012   -4.6014080  
H    5.3374533   -4.0874218   -7.7594115  
H    2.9388606   -2.2971048   -7.4124325  
H    3.1919212   -4.4629515   -0.5928337  
C    1.8886553   -2.0886683   -5.2633582  
C    0.9763563   -1.6271607   -4.3696036  
C    0.1009358   -0.7303187   -5.0866451  
C    0.5814320   -0.7070193   -6.4814111  
N    1.6673581   -1.5508183   -6.5221213  
C    0.0179864    0.0235615   -7.4766414  
C   -1.1387604    0.8416958   -7.1524076  
O   -1.7168214    1.5352814   -7.9788976  
C   -1.6645103    0.8324700   -5.6815891  
O   -2.6375207    1.5175330   -5.3966322  
C   -0.9736297    0.0040464   -4.6965763  
H    0.9228836   -1.8853689   -3.3269711  
H    0.3859637    0.0263862   -8.4932505  
H    2.2136183   -1.7473796   -7.3406635  
C    1.1188642    0.0008222   -0.8003808  
C    0.0000000    0.0000000    0.0000000  
C   -1.1323862    0.0008899   -0.8673528  
C   -0.6382663    0.0019679   -2.1969280  
N    0.7324016    0.0038481   -2.1202242  
C   -1.4770914    0.0027318   -3.3154808  
C   -2.8395473    0.0020945   -3.0876857  
O   -3.7039201    0.0024425   -4.1440349  
C   -3.3517868    0.0013931   -1.7684331  
O   -4.7300497    0.0012366   -1.7073121  
C   -2.5248543    0.0009123   -0.6644817  
H    1.3576314   -0.0056167   -2.9057046  
H   -4.5940032    0.0021826   -3.7685128  
H   -4.9934602    0.0007259   -0.7819913  
H   -2.9462577    0.0005603    0.3339659  
H    2.1619895    0.0009355   -0.5342068  
C    0.8576279    0.7185626    2.2703808  
C    0.0000000    0.0000000    1.4700000  
C   -0.8668858   -0.7285659    2.3373528  
C   -0.4876752   -0.4117774    3.6669281  
N    0.5635254    0.4678311    3.5902241  
C   -1.1297612   -0.9515493    4.7854808  
C   -2.1738724   -1.8268314    4.5576857  
O   -2.8357962   -2.3827064    5.6140350  
C   -2.5667212   -2.1555554    3.2384331  
O   -3.6226318   -3.0413663    3.1773122  
C   -1.9335634   -1.6236449    2.1344818  
H    1.0363952    0.8769718    4.3757045  
H   -0.8454472   -0.7142436    5.8013813  
H   -3.5178062   -2.9546422    5.2385129  
H   -3.8247440   -3.2102924    2.2519915  
H   -2.2566033   -1.8942483    1.1360343  
H    1.6567807    1.3889844    2.0042067  
