64

C   -1.1036577    0.2149000   -0.7919005  
C   -0.7370180    0.1263823   -2.1148551  
C    0.6603606   -0.1586160   -2.1414705  
C    1.0956081   -0.2335182   -0.7935553  
N    0.0000000    0.0000000    0.0000000  
C    2.4219217   -0.5004679   -0.4408238  
C    3.3252509   -0.6956555   -1.4675061  
O    4.6329886   -0.9598538   -1.1793472  
C    2.9102609   -0.6245410   -2.8186325  
O    3.9277282   -0.8414095   -3.7247626  
C    1.6020371   -0.3609613   -3.1673484  
H   -1.3954850    0.2528809   -2.9571209  
H    2.7600341   -0.5587304    0.5845971  
H    5.0844978   -1.0605767   -2.0274390  
H    3.5632731   -0.7759735   -4.6127346  
H   -2.0648150    0.4157414   -0.3505407  
C    1.2110792   -0.2951505   -4.5828766  
C   -0.0161122   -0.0497932   -5.0980274  
C    0.1655320   -0.1011160   -6.5405501  
C    1.6027315   -0.3961304   -6.7249610  
N    2.2207661   -0.5110384   -5.5809250  
C    2.1908854   -0.5290631   -8.0293729  
C    1.3800550   -0.3746921   -9.1008482  
O    1.7941598   -0.4718668  -10.3756484  
C   -0.0745550   -0.0768228   -8.9474073  
O   -0.7527009    0.0511718   -9.9667000  
C   -0.6540986    0.0548447   -7.5988094  
H   -0.9315671    0.1422090   -4.5649662  
H    0.9941798   -0.3143162  -10.9089048  
H   -1.7118625    0.2708967   -7.5303509  
C    4.8841548   -3.2199457   -5.7789659  
C    6.0326291   -2.9514739   -6.4870594  
C    5.6891894   -1.9991571   -7.4919186  
C    4.3058128   -1.7214570   -7.3467369  
N    3.8474980   -2.4807657   -6.2988745  
C    3.6241413   -0.8225776   -8.1726470  
C    4.3523097   -0.1923292   -9.1629674  
O    3.7363717    0.6951184   -9.9972760  
C    5.7333038   -0.4565063   -9.3238491  
O    6.3178579    0.2495194  -10.3549498  
C    6.4063805   -1.3433554   -8.5096051  
H    6.9988136   -3.3891079   -6.3027852  
H    2.9043267   -2.4859153   -5.9548069  
H    4.4155061    1.0145812  -10.6055397  
H    7.2496441    0.0134080  -10.3953204  
H    7.4644781   -1.5255435   -8.6569671  
H    4.7221403   -3.8812978   -4.9451049  
C    2.5311839    2.1237619    3.0120429  
C    1.9795631    1.6616747    1.8395852  
C    0.9223175    0.7739173    2.1983588  
C    0.8753926    0.7337535    3.6154372  
N    1.8668922    1.5631002    4.0777464  
C   -0.0496243   -0.0427881    4.3197917  
C   -0.9437528   -0.7922060    3.5801400  
O   -1.8685244   -1.5680278    4.2172520  
C   -0.9124520   -0.7656372    2.1655264  
O   -1.8671164   -1.5663939    1.5732860  
C    0.0000000    0.0000000    1.4700000  
H    2.3005065    1.9304404    0.8477417  
H    2.0679347    1.7444845    5.0445261  
H   -0.0904770   -0.0778569    5.3997470  
H   -2.3849669   -2.0011402    3.5251786  
H   -1.7775064   -1.4909735    0.6183591  
H    3.3468514    2.8078103    3.1724291  
