64

C    6.1521454   -0.7542624   -3.4731113  
C    7.4410234   -0.5107901   -3.0584032  
C    8.0196319    0.3877774   -4.0030667  
C    7.0279577    0.6599733   -4.9800099  
N    5.9071179   -0.0508430   -4.6291871  
C    7.2504466    1.5109769   -6.0667853  
C    8.4966295    2.0981296   -6.1690411  
O    8.7674440    2.9378867   -7.2104261  
C    9.4992188    1.8386453   -5.2045204  
O   10.6866930    2.4981945   -5.4458545  
C    9.2805153    0.9990060   -4.1322793  
H    7.9072282   -0.9302023   -2.1833378  
H    6.4988508    1.7224197   -6.8148475  
H    9.6797909    3.2330279   -7.0930419  
H   11.3091370    2.2686803   -4.7490822  
H   10.0677719    0.8192015   -3.4095232  
H    5.3887128   -1.3751506   -3.0365020  
C    1.6478440   -0.0100107   -3.2702995  
C    3.0229497   -0.0200898   -3.3083794  
C    3.4013075   -0.0321766   -4.6836245  
C    2.2043347   -0.0285354   -5.4446566  
N    1.1584333   -0.0169575   -4.5555146  
C    2.1970126   -0.0376398   -6.8427446  
C    3.4203148   -0.0503503   -7.4842655  
O    3.4709320   -0.0592836   -8.8482193  
C    4.6254871   -0.0545466   -6.7424032  
O    5.7606900   -0.0679095   -7.5262912  
C    4.6334625   -0.0458435   -5.3631329  
H    3.6733234   -0.0199847   -2.4504707  
H    0.1857646   -0.0014344   -4.8038216  
H    1.2881770   -0.0350719   -7.4285891  
H    4.4070625   -0.0677213   -9.0866598  
H    6.5295982   -0.0698935   -6.9480352  
C    1.1188644    0.0008217   -0.8003806  
C    0.0000000    0.0000000    0.0000000  
C   -1.1323859    0.0008905   -0.8673530  
C   -0.6382659    0.0019682   -2.1969281  
N    0.7324019    0.0038478   -2.1202239  
C   -1.4770907    0.0027326   -3.3154809  
C   -2.8395470    0.0020959   -3.0876861  
O   -3.7039194    0.0024444   -4.1440354  
C   -3.3517867    0.0013946   -1.7684335  
O   -4.7300493    0.0012389   -1.7073127  
C   -2.5248543    0.0009135   -0.6644820  
H   -1.1067564    0.0036994   -4.3313814  
H   -4.5940025    0.0021851   -3.7685133  
H   -4.9934599    0.0007285   -0.7819921  
H   -2.9462578    0.0005616    0.3339655  
H    2.1619897    0.0009344   -0.5342063  
C    0.8681109    0.7263879    2.2709268  
C    0.6127770    0.5096195    3.5869401  
C   -0.4920590   -0.4175482    3.6542670  
C   -0.8620974   -0.7254003    2.2596025  
N    0.0000000    0.0000000    1.4700000  
C   -1.8641242   -1.5660088    1.8976294  
C   -2.6293522   -2.2103885    2.9520183  
O   -3.5512764   -2.9839180    2.7283916  
C   -2.2549728   -1.8987399    4.4361073  
O   -2.8923672   -2.4351063    5.3323774  
C   -1.1543735   -0.9755647    4.7012123  
H    1.1382914    0.9492124    4.4159191  
H   -2.1192137   -1.7782617    0.8686553  
H   -0.9013378   -0.7652422    5.7314848  
H    1.6172880    1.3558399    1.8188057  
