62

C    2.8126089   -0.0038053   -7.2602046  
C    3.4366491   -0.0060513   -6.0342210  
C    4.8413495   -0.0078196   -6.2820382  
C    5.0156448   -0.0062468   -7.6897115  
N    3.7638911   -0.0057718   -8.2533851  
C    6.2756039   -0.0070294   -8.2957582  
C    7.3797256   -0.0091367   -7.4656450  
O    8.6336868   -0.0096319   -8.0047140  
C    7.2262664   -0.0111048   -6.0587818  
O    8.4212360   -0.0135001   -5.3692991  
C    5.9835924   -0.0106073   -5.4602124  
H    2.9404578   -0.0074804   -5.0788231  
H    3.5710696    0.0058565   -9.2386087  
H    6.4151806   -0.0059839   -9.3680079  
H    9.2505132   -0.0114662   -7.2612163  
H    8.2285186   -0.0146903   -4.4267160  
H    5.8973806   -0.0123362   -4.3799150  
C   -0.8712823    0.0001712   -4.7267111  
C    0.4339912   -0.0007979   -5.1611396  
C    0.3982147   -0.0008777   -6.5870849  
C   -0.9677829    0.0003618   -6.9691522  
N   -1.7116540   -0.0009770   -5.8153444  
C   -1.3793555    0.0009425   -8.3053389  
C   -0.3940115    0.0005664   -9.2734678  
O   -0.7402461    0.0014533  -10.5937469  
C    0.9742899   -0.0010423   -8.9121275  
O    1.8341073   -0.0016465   -9.9910416  
C    1.3810434   -0.0018892   -7.5941454  
H    1.3048042   -0.0024816   -4.5281506  
H   -2.7146164    0.0100177   -5.7714419  
H   -2.4188447    0.0017430   -8.6031023  
H    0.0868493    0.0006963  -11.0929228  
H    2.7374599   -0.0027101   -9.6600480  
C    1.0965515    0.0001358   -0.8010304  
C    0.0000000    0.0000000    0.0000000  
C   -1.1546562    0.0001470   -0.8669514  
C   -0.6372012    0.0003520   -2.2486282  
N    0.7342873    0.0007338   -2.1395014  
C   -1.4147737    0.0001354   -3.3608717  
C   -2.8576047   -0.0001047   -3.1854463  
O   -3.6427778   -0.0002491   -4.1244908  
C   -3.4275837   -0.0000725   -1.7311667  
O   -4.6406828    0.0000333   -1.5710061  
C   -2.4891866   -0.0001090   -0.6116745  
H   -2.8919121   -0.0002919    0.3920865  
H    2.1388272    0.0000662   -0.5261647  
H    1.3735873   -0.0006098   -2.9130261  
C    0.8175213    0.6860729    2.3021913  
C    0.0000000    0.0000000    1.4700000  
C   -0.8887526   -0.7456559    2.3478473  
C   -0.4549825   -0.3816753    3.7138435  
N    0.5448156    0.4573574    3.6934124  
C   -1.0945674   -0.9182058    4.8835240  
C   -2.1210866   -1.7789155    4.6970523  
O   -2.8083856   -2.3554314    5.6976972  
C   -2.5824069   -2.1655116    3.3310774  
O   -3.5227682   -2.9541547    3.2362962  
C   -1.9100805   -1.6015804    2.1470656  
H   -0.7567140   -0.6349833    5.8697035  
H   -3.4728268   -2.9124471    5.2533954  
H   -2.2742832   -1.9066565    1.1752040  
H    1.6189533    1.3585343    2.0405121  
