60

C    4.3580266    0.1994876   -6.7822219  
C    5.5474349   -0.4578678   -6.9959041  
C    6.0129884   -0.0673435   -8.2863883  
C    5.0582717    0.8375799   -8.8170065  
N    4.0654917    0.9759282   -7.8789956  
C    5.1938141    1.4268039  -10.0776541  
C    6.3136877    1.0967306  -10.8159718  
O    6.4958955    1.6435639  -12.0532215  
C    7.2772365    0.1955382  -10.3038754  
O    8.3354293   -0.0320301  -11.1593197  
C    7.1440334   -0.3863323   -9.0604090  
H    6.0206833   -1.1363438   -6.3069195  
H    3.2570938    1.5640024   -7.9719643  
H    4.4696603    2.1171375  -10.4878290  
H    7.3270808    1.2849350  -12.3905362  
H    8.9395356   -0.6509517  -10.7378990  
H    7.8984199   -1.0731459   -8.6948051  
C    4.6658420   -2.0084114   -3.0381699  
C    3.5410042   -1.6272097   -2.3893218  
C    2.8760349   -0.7078755   -3.2998933  
C    3.7621631   -0.6481448   -4.4821757  
N    4.8129012   -1.4085088   -4.3345751  
C    3.4519829    0.1658077   -5.6251350  
C    2.3083466    0.8869948   -5.5888134  
O    1.8948240    1.6890063   -6.5847136  
C    1.3931660    0.8475795   -4.4102332  
O    0.3692891    1.5299498   -4.4458469  
C    1.7334695    0.0049281   -3.2500363  
H    3.2040802   -1.9322773   -1.4133650  
H    1.0533181    2.0640200   -6.2678775  
H    5.4313251   -2.6873256   -2.6974589  
C    1.1319246    0.0015678   -0.8009268  
C    0.7969914    0.0034958   -2.1169401  
C   -0.6453340    0.0035696   -2.1842669  
C   -1.1266832    0.0015410   -0.7896025  
N    0.0000000    0.0000000    0.0000000  
C   -2.4346129    0.0013913   -0.4276292  
C   -3.4350111    0.0031335   -1.4820181  
O   -4.6384614    0.0030875   -1.2583914  
C   -2.9478961    0.0050442   -2.9661074  
O   -3.7809382    0.0062135   -3.8623773  
C   -1.5113825    0.0053055   -3.2312122  
H   -2.7664565    0.0000174    0.6013448  
H   -1.1823533    0.0068381   -4.2614848  
H    2.1104316    0.0009435   -0.3488059  
C    0.0000000    0.0000000    1.4700000  
C    1.0662921    0.0000102    2.3034270  
C    0.4961870   -0.0000064    3.6418889  
C   -0.9663858    0.0000850    3.4240247  
N   -1.2632773    0.0000084    2.1528658  
C   -1.8985362    0.0000517    4.5177257  
C   -1.3925775   -0.0004564    5.7720543  
O   -2.1456383   -0.0005410    6.8851312  
C    0.0786232   -0.0009323    6.0245000  
O    0.4683759   -0.0012588    7.1921102  
C    1.0143166   -0.0008442    4.8859032  
H    2.1107198   -0.0000632    2.0421868  
H   -2.9622183    0.0003270    4.3293377  
H   -1.5042274   -0.0009692    7.6184419  
H    2.0724152   -0.0013148    5.1109744  
