62

C    3.6725646    0.5509951   -8.7250565  
C    4.7561486   -0.2895463   -8.8337013  
C    5.1638111   -0.2687837  -10.2004420  
C    4.2844996    0.6097573  -10.8837453  
N    3.3901144    1.0887137   -9.9589244  
C    4.3911700    0.8727548  -12.2527750  
C    5.4041373    0.2375296  -12.9445564  
O    5.5538095    0.4587822  -14.2830854  
C    6.2912083   -0.6428064  -12.2805307  
O    7.2461856   -1.1976766  -13.1072596  
C    6.1863986   -0.9029378  -10.9300219  
H    5.1976834   -0.8496993   -8.0273081  
H    2.6519748    1.7419879  -10.1496171  
H    3.7240842    1.5411823  -12.7794674  
H    6.3084579   -0.0742840  -14.5652426  
H    7.8037076   -1.7787349  -12.5808144  
H    6.8804014   -1.5821402  -10.4488540  
C    3.9135205   -0.7081243   -4.5250692  
C    2.8699641   -0.0020530   -4.0185824  
C    2.2916403    0.7390434   -5.1145539  
C    3.0895150    0.4044294   -6.3096353  
N    4.0568594   -0.4768162   -5.8847343  
C    2.8606219    0.9024529   -7.5511206  
C    1.7547625    1.8301060   -7.7216206  
O    1.4676787    2.3333354   -8.7998801  
C    0.8966369    2.1987791   -6.4696201  
O   -0.0368091    2.9789835   -6.6008463  
C    1.2404687    1.5971817   -5.1836524  
H    0.6412575    1.8574784   -4.3217272  
H    4.5900516   -1.3778176   -4.0193954  
H    4.7576403   -0.8900200   -6.4722854  
C    3.2573670   -0.0002921   -1.5109382  
C    2.5379468   -0.0001711   -0.3591962  
C    1.1435043    0.0000330   -0.7338498  
C    1.1092608   -0.0000085   -2.2088474  
N    2.4227562    0.0001906   -2.6182610  
C   -0.0265533   -0.0002525   -2.9515663  
C   -1.3003033   -0.0002641   -2.2514979  
O   -2.3786785   -0.0004132   -2.8306425  
C   -1.2877724    0.0000310   -0.6895608  
O   -2.3539956    0.0003306   -0.0892035  
C    0.0000000    0.0000000    0.0000000  
H    2.9384091   -0.0000370    0.6389240  
H   -0.0296290   -0.0004088   -4.0327231  
H    4.3270394   -0.0004767   -1.6439445  
C    2.5285572    2.1210227    2.9438989  
C    1.9331703    1.6216660    4.0790748  
C    0.8903039    0.7472258    3.6520102  
C    0.8972198    0.7527806    2.2336141  
N    1.9028376    1.5986179    1.8362361  
C    0.0000000    0.0000000    1.4700000  
C   -0.9207814   -0.7726952    2.1506477  
O   -1.8198395   -1.5274828    1.4542253  
C   -0.9436862   -0.7911793    3.5655508  
O   -1.9197945   -1.6098497    4.0950179  
C   -0.0590329   -0.0485852    4.3195194  
H    2.2150357    1.8593692    5.0905303  
H    2.1533708    1.7953814    0.8841339  
H   -2.3621246   -1.9821033    2.1118817  
H   -1.8668290   -1.5649508    5.0545920  
H   -0.1007624   -0.0827977    5.4019087  
H    3.3491200    2.8096064    2.8367138  
