60

C    8.5021035   -3.0280894   -4.0320767  
C    9.5875950   -2.2383317   -4.3328384  
C    9.1012071   -0.9077245   -4.4987055  
C    7.6995339   -0.9472789   -4.2849892  
N    7.3684377   -2.2499772   -4.0057583  
C    6.8894657    0.1892330   -4.3681673  
C    7.5056461    1.3875567   -4.6723386  
O    6.7619224    2.5282482   -4.7656694  
C    8.9028437    1.4472122   -4.8893593  
O    9.3661374    2.7130127   -5.1833822  
C    9.7025755    0.3263678   -4.8077305  
H   10.6046929   -2.5795173   -4.4228238  
H    6.4437506   -2.5823879   -3.7997519  
H    7.3786277    3.2392302   -4.9834839  
H   10.3179223    2.6654629   -5.3154745  
H   10.7699106    0.4029333   -4.9792256  
H    8.4466386   -4.0851138   -3.8356580  
C    4.5414472   -2.0136866   -1.4319366  
C    3.2784306   -1.6314299   -1.7323495  
C    3.4206903   -0.7132108   -2.8517850  
C    4.8766551   -0.6552127   -3.1035522  
N    5.5387696   -1.4155491   -2.2744067  
C    5.4363359    0.1572548   -4.1484160  
C    4.5803865    0.8786769   -4.9075173  
O    4.9639647    1.6794178   -5.9163398  
C    3.1058537    0.8409940   -4.6783999  
O    2.3863360    1.5234829   -5.4075938  
C    2.5562217   -0.0001543   -3.6003001  
H    2.3632541   -1.9351317   -1.2535045  
H    4.1348748    2.0549943   -6.2637662  
H    4.8636452   -2.6922678   -0.6581863  
C    0.0000000    0.0000000    0.0000000  
C    1.0541688   -0.0001719   -0.8560391  
C    0.5103141   -0.0000449   -2.1935955  
C   -0.9576367    0.0002461   -2.0455733  
N   -1.2018459   -0.0001392   -0.6915970  
C   -1.8348306    0.0008319   -3.0810611  
C   -1.2972842    0.0009739   -4.4314605  
O   -2.0050664    0.0014267   -5.4301321  
C    0.2542628    0.0004190   -4.6117571  
O    0.7184677    0.0002263   -5.7439119  
C    1.0974556    0.0000880   -3.4189127  
H    2.0940752   -0.0005479   -0.5817978  
H   -2.9081050    0.0011669   -2.9507065  
H   -2.1128195    0.0014911   -0.2706793  
C    3.2573670    0.0002920    2.9809380  
C    2.5379467    0.0001709    1.8291961  
C    1.1435042   -0.0000331    2.2038498  
C    1.1092607    0.0000083    3.6788474  
N    2.4227561   -0.0001909    4.0882609  
C   -0.0265533    0.0002524    4.4215661  
C   -1.3003036    0.0002640    3.7214979  
O   -2.3786784    0.0004133    4.3006425  
C   -1.2877726   -0.0000311    2.1595606  
O   -2.3539958   -0.0003306    1.5592035  
C    0.0000000    0.0000000    1.4700000  
H    2.9384090    0.0000368    0.8310761  
H   -0.0296291    0.0004086    5.5027230  
H    4.3270393    0.0004765    3.1139444  
H    2.7280493    0.0013407    5.0442112  
