62

C   -7.6176861   -0.0964928   -2.1522681  
C   -8.4066493    0.5513509   -1.2301492  
C   -9.7526645    0.1500120   -1.4786840  
C   -9.7228131   -0.7514019   -2.5734387  
N   -8.4114296   -0.8773475   -2.9594772  
C  -10.8752315   -1.3489743   -3.0926975  
C  -12.0796916   -1.0310128   -2.4957425  
O  -13.2357456   -1.5863810   -2.9627744  
C  -12.1299589   -0.1335000   -1.4026920  
O  -13.4036947    0.0816964   -0.9183012  
C  -10.9935015    0.4566017   -0.8900823  
H   -8.0553739    1.2305902   -0.4723677  
H   -8.0798013   -1.4603555   -3.7065414  
H  -10.8592091   -2.0366915   -3.9269581  
H  -13.9486562   -1.2355041   -2.4133125  
H  -13.3489617    0.6989008   -0.1823211  
H  -11.0632232    1.1403270   -0.0521463  
C   -4.3568016    2.1196430   -0.0439435  
C   -5.5783087    1.6201327   -0.4323715  
C   -5.3394752    0.7460397   -1.5339703  
C   -3.9416100    0.7519547   -1.7745206  
N   -3.3751251    1.5976635   -0.8533862  
C   -3.3460097   -0.0004262   -2.7913647  
C   -4.1766436   -0.7730845   -3.5795421  
O   -3.6475259   -1.5274892   -4.5864790  
C   -5.5738550   -0.7919242   -3.3553483  
O   -6.2652642   -1.6105065   -4.2243824  
C   -6.1621470   -0.0497244   -2.3525632  
H   -6.5251586    1.8575137    0.0216316  
H   -2.3939629    1.7946126   -0.7726814  
H   -4.3895798   -1.9821538   -5.0058844  
H   -7.2009062   -1.5658646   -4.0048713  
H   -4.1083019    2.8080661    0.7455374  
C    0.0000000    0.0000000    0.0000000  
C    1.0662919   -0.0000103   -0.8334272  
C    0.4961868    0.0000066   -2.1718889  
C   -0.9663860   -0.0000849   -1.9540248  
N   -1.2632775   -0.0000084   -0.6828659  
C   -1.8985364   -0.0000515   -3.0477258  
C   -1.3925778    0.0004567   -4.3020543  
O   -2.1456385    0.0005412   -5.4151314  
C    0.0786229    0.0009326   -4.5544999  
O    0.4683756    0.0012594   -5.7221104  
C    1.0143162    0.0008443   -3.4159034  
H    2.1107195    0.0000631   -0.5721869  
H   -1.5042277    0.0009692   -6.1484420  
H    2.0724151    0.0013151   -3.6409746  
C    0.0000000    0.0000000    1.4700000  
C    1.0662921    0.0000102    2.3034270  
C    0.4961870   -0.0000064    3.6418889  
C   -0.9663858    0.0000850    3.4240247  
N   -1.2632773    0.0000084    2.1528658  
C   -1.8985362    0.0000517    4.5177257  
C   -1.3925775   -0.0004564    5.7720543  
O   -2.1456383   -0.0005410    6.8851312  
C    0.0786232   -0.0009323    6.0245000  
O    0.4683759   -0.0012588    7.1921102  
C    1.0143166   -0.0008442    4.8859032  
H    2.1107198   -0.0000632    2.0421868  
H   -2.9622183    0.0003270    4.3293377  
H   -1.5042274   -0.0009692    7.6184419  
H    2.0724152   -0.0013148    5.1109744  
