60

C    5.8009416   -1.0748218   -6.3406657  
C    6.7671214   -1.9604235   -5.9227257  
C    7.6067173   -2.2212782   -7.0459496  
C    7.0997403   -1.4601765   -8.1302121  
N    6.0021083   -0.7772679   -7.6681987  
C    7.6826662   -1.4727709   -9.4009707  
C    8.7978746   -2.2679474   -9.5803622  
O    9.4066890   -2.3171347  -10.8009926  
C    9.3183637   -3.0348498   -8.5108909  
O   10.4323694   -3.7753501   -8.8485208  
C    8.7436452   -3.0231199   -7.2570613  
H    6.8552071   -2.3691027   -4.9306492  
H    5.4403639   -0.1464032   -8.2108165  
H    7.3010143   -0.8950927  -10.2315325  
H   10.1537043   -2.9227986  -10.7093155  
H   10.7203139   -4.2633358   -8.0709855  
H    9.1645967   -3.6212256   -6.4573448  
C    4.3913908   -0.7046356   -4.2635301  
C    3.2973506   -0.0000934   -3.8752374  
C    2.8435631    0.7418821   -5.0277932  
C    3.7695328    0.4094502   -6.1272744  
N    4.6845873   -0.4714996   -5.5986041  
C    3.6794133    0.9088342   -7.3859241  
C    2.5984069    1.8357540   -7.6770941  
O    2.4323272    2.3400895   -8.7799830  
C    1.6062045    2.2021224   -6.5276965  
O    0.6923299    2.9816918   -6.7608606  
C    1.8057156    1.5992068   -5.2121965  
H    4.3690173    0.6519371   -8.1779845  
H    1.1142469    1.8579095   -4.4218374  
H    5.0082524   -1.3743835   -3.6866344  
C    3.3321174    0.0004714   -1.3379332  
C    2.6974186    0.0000115   -2.5332308  
C    1.2800441   -0.0002119   -2.2052838  
C    1.2395035    0.0000643   -0.7271293  
N    2.4394063    0.0005458   -0.2131034  
C    0.0000000    0.0000000    0.0000000  
C   -1.1468701    0.0000634   -0.7169542  
O   -2.3742201    0.0000072   -0.1695492  
C   -1.1388767    0.0001606   -2.2096354  
O   -2.2206229    0.0000903   -2.7970413  
C    0.1454526    0.0001815   -2.9324239  
H   -2.9844344    0.0001023   -0.9290168  
H    0.1083580    0.0003680   -4.0135594  
H    4.3940040    0.0007617   -1.1498630  
C    0.0000000    0.0000000    1.4700000  
C    1.0662921    0.0000102    2.3034270  
C    0.4961870   -0.0000064    3.6418889  
C   -0.9663858    0.0000850    3.4240247  
N   -1.2632773    0.0000084    2.1528658  
C   -1.8985362    0.0000517    4.5177257  
C   -1.3925775   -0.0004564    5.7720543  
O   -2.1456383   -0.0005410    6.8851312  
C    0.0786232   -0.0009323    6.0245000  
O    0.4683759   -0.0012588    7.1921102  
C    1.0143166   -0.0008442    4.8859032  
H    2.1107198   -0.0000632    2.0421868  
H   -2.9622183    0.0003270    4.3293377  
H   -1.5042274   -0.0009692    7.6184419  
H    2.0724152   -0.0013148    5.1109744  
