62

C    2.0368118   -1.9882066   -8.3979538  
C    3.0139591   -2.8268065   -8.8821028  
C    2.9152344   -2.8034384  -10.3048844  
C    1.8509479   -1.9253817  -10.6338784  
N    1.3381617   -1.4492091   -9.4528092  
C    1.4693758   -1.6602717  -11.9525550  
C    2.1752468   -2.2928473  -12.9574300  
O    1.8446967   -2.0694545  -14.2627446  
C    3.2400239   -3.1726584  -12.6492125  
O    3.8440916   -3.7247839  -13.7598896  
C    3.6168257   -3.4348732  -11.3485247  
H    3.7113270   -3.3873717   -8.2834060  
H    0.5794100   -0.7968830   -9.3706655  
H    0.6590382   -0.9922002  -12.2099185  
H    2.4525895   -2.6008765  -14.7931421  
H    4.5516778   -4.3056672  -13.4640839  
H    4.4363748   -4.1136112  -11.1432613  
C    2.2991562   -2.1048094   -5.8924434  
C    1.6888962   -1.6397490   -7.0128795  
C    0.6412942   -0.7448177   -6.5810646  
C    0.6916338   -0.7264669   -5.1066432  
N    1.7177155   -1.5716517   -4.7520883  
C   -0.1387079    0.0017019   -4.3179684  
C   -1.1495777    0.8219302   -4.9644230  
O   -1.9445178    1.5135264   -4.3414737  
C   -1.2212023    0.8175538   -6.5247612  
O   -2.0683176    1.5039443   -7.0802107  
C   -0.2716611   -0.0081804   -7.2666415  
H   -0.3277640   -0.0054788   -8.3467194  
H    3.1245934   -2.7923367   -5.8038534  
H    2.0018703   -1.7690375   -3.8101000  
C    3.3041273    0.0001178   -1.5420428  
C    2.5845373   -0.0004780   -0.3695851  
C    1.2040007   -0.0000007   -0.7283589  
C    1.1422374    0.0006038   -2.1454372  
N    2.4348641    0.0026111   -2.6077464  
C   -0.0655179    0.0008799   -2.8497918  
C   -1.2321766    0.0002325   -2.1101402  
O   -2.4392814    0.0001148   -2.7472522  
C   -1.1911209   -0.0000007   -0.6955266  
O   -2.4371528   -0.0002320   -0.1032862  
C    0.0000000    0.0000000    0.0000000  
H    3.0031533   -0.0000660    0.6222584  
H    2.7054631   -0.0071097   -3.5745261  
H   -3.1132988   -0.0000648   -2.0551787  
H   -2.3200282   -0.0004072    0.8516409  
H    4.3686625    0.0004073   -1.7024290  
C    2.5128556    2.1077716    2.9199648  
C    1.9592212    1.6432552    4.0696553  
C    0.8915788    0.7479214    3.6910360  
C    0.8684491    0.7287414    2.2159470  
N    1.8754542    1.5738793    1.8102719  
C    0.0000000    0.0000000    1.4700000  
C   -0.9772830   -0.8200135    2.1664417  
O   -1.8021297   -1.5120829    1.5842315  
C   -0.9711318   -0.8147624    3.7284083  
O   -1.7894187   -1.5009653    4.3257297  
C    0.0140216    0.0115358    4.4216297  
H    2.2638494    1.8988021    5.0689105  
H    0.0117648    0.0094386    5.5031631  
H    3.3327358    2.7953732    2.7900019  
H    2.1123206    1.7707734    0.8551938  
