62

C    1.1188646    0.0008226   -0.8003804  
C    0.0000000    0.0000000    0.0000000  
C   -1.1323862    0.0008896   -0.8673522  
C   -0.6382659    0.0019677   -2.1969274  
N    0.7324021    0.0038484   -2.1202236  
C   -1.4770910    0.0027315   -3.3154805  
C   -2.8395469    0.0020939   -3.0876856  
O   -3.7039197    0.0024417   -4.1440350  
C   -3.3517869    0.0013922   -1.7684325  
O   -4.7300491    0.0012352   -1.7073121  
C   -2.5248542    0.0009116   -0.6644816  
H    1.3576318   -0.0056163   -2.9057038  
H   -4.5940029    0.0021815   -3.7685127  
H   -4.9934600    0.0007250   -0.7819914  
H   -2.9462576    0.0005593    0.3339654  
H    2.1619893    0.0009359   -0.5342063  
C    0.1166616   -0.7214345   -5.1522985  
C    0.3273818   -0.5035452   -6.4760040  
C   -0.6880510    0.4234399   -6.9169464  
C   -1.5135277    0.7299635   -5.7331297  
N   -0.9736292    0.0040463   -4.6965760  
C   -2.5793559    1.5700278   -5.7355905  
C   -2.9375154    2.2151825   -6.9878017  
O   -3.8806689    2.9883095   -7.0928594  
C   -2.0773313    1.9049433   -8.2541505  
O   -2.3694869    2.4419715   -9.3141069  
C   -0.9520259    0.9822472   -8.1269833  
H   -3.1715411    1.7813044   -4.8560518  
H   -0.3613266    0.7729020   -9.0084441  
H    0.6660045   -1.3511262   -4.4714163  
C    1.9252222   -4.5574812   -6.4731541  
C    2.8720255   -4.4912078   -7.4379080  
C    2.8190447   -3.1202741   -7.9218844  
C    1.7553631   -2.4817968   -7.1172024  
N    1.2278129   -3.3193491   -6.2662109  
C    1.3906262   -1.1032347   -7.2950185  
C    2.0584247   -0.3946132   -8.2337599  
O    1.8221059    0.9000239   -8.5059883  
C    3.1370997   -1.0105065   -9.0615851  
O    3.7026348   -0.3059170   -9.8976145  
C    3.4928370   -2.4264376   -8.8603007  
H    3.5257188   -5.2757186   -7.7789408  
H    2.4508670    1.1228708   -9.2160244  
H    4.2797693   -2.8350594   -9.4799751  
H    1.6512576   -5.4075862   -5.8688044  
C    2.5285572    2.1210227    2.9438989  
C    1.9331703    1.6216660    4.0790748  
C    0.8903039    0.7472258    3.6520102  
C    0.8972198    0.7527806    2.2336141  
N    1.9028376    1.5986179    1.8362361  
C    0.0000000    0.0000000    1.4700000  
C   -0.9207814   -0.7726952    2.1506477  
O   -1.8198395   -1.5274828    1.4542253  
C   -0.9436862   -0.7911793    3.5655508  
O   -1.9197945   -1.6098497    4.0950179  
C   -0.0590329   -0.0485852    4.3195194  
H    2.2150357    1.8593692    5.0905303  
H    2.1533708    1.7953814    0.8841339  
H   -2.3621246   -1.9821033    2.1118817  
H   -1.8668290   -1.5649508    5.0545920  
H   -0.1007624   -0.0827977    5.4019087  
H    3.3491200    2.8096064    2.8367138  
