60

C    5.4958826    0.7042074   -6.2689329  
C    5.2604189    0.4528246   -7.6007852  
C    6.2689240   -0.4564505   -8.0375183  
C    7.0982812   -0.7267231   -6.9190164  
N    6.6020619   -0.0045253   -5.8622221  
C    8.1989646   -1.5864223   -6.9838278  
C    8.4671266   -2.1844088   -8.1998381  
O    9.5295755   -3.0329694   -8.3188359  
C    7.6514783   -1.9270154   -9.3273505  
O    8.0487889   -2.5977979  -10.4655680  
C    6.5656261   -1.0788032   -9.2642088  
H    4.4608579    0.8739637   -8.1858818  
H    8.8350607   -1.7964564   -6.1350232  
H    9.5364827   -3.3348250   -9.2364969  
H    7.4458835   -2.3689621  -11.1795310  
H    5.9592612   -0.9008594  -10.1446267  
H    4.9631365    1.3340987   -5.5772845  
C    4.5679461   -0.0016854   -2.0086701  
C    5.6049857   -0.0016933   -1.1391135  
C    6.7955419   -0.0024716   -1.9752200  
C    6.2781456   -0.0029782   -3.3604582  
N    4.9730338   -0.0024399   -3.3863782  
C    7.1539712   -0.0037579   -4.4997628  
C    8.4861197   -0.0036308   -4.2658492  
O    9.4181585   -0.0043053   -5.2340147  
C    9.0391356   -0.0027522   -2.8793671  
O   10.2622855   -0.0028086   -2.7410741  
C    8.1201339   -0.0020062   -1.7272562  
H    5.5667635   -0.0011380   -0.0631887  
H   10.2688725   -0.0039791   -4.7592114  
H    8.5604265   -0.0012651   -0.7391404  
C    3.1301149   -0.0010311   -1.7028252  
C    2.5367768   -0.0002767   -0.4864665  
C    1.1089904    0.0001028   -0.7656183  
C    1.0177872   -0.0004148   -2.2415132  
N    2.1993578   -0.0011611   -2.7963820  
C   -0.2459209   -0.0002877   -2.9257118  
C   -1.3675319   -0.0000605   -2.1698524  
O   -2.6129313    0.0000867   -2.6748490  
C   -1.3083584    0.0000910   -0.6783232  
O   -2.3693261    0.0004206   -0.0541692  
C    0.0000000    0.0000000    0.0000000  
H    3.0096017   -0.0001007    0.4807525  
H   -0.2829630   -0.0004687   -4.0053125  
H   -3.1967441    0.0002094   -1.8949034  
C    2.5528530    2.1414826    2.8079335  
C    2.0663498    1.7338582    4.0032312  
C    0.9804344    0.8229586    3.6752840  
C    0.9495562    0.7966882    2.1971295  
N    1.8690446    1.5676019    1.6831036  
C    0.0000000    0.0000000    1.4700000  
C   -0.8785127   -0.7372425    2.1869543  
O   -1.8187535   -1.5261249    1.6395491  
C   -0.8723269   -0.7321790    3.6796354  
O   -1.7010379   -1.4274584    4.2670412  
C    0.1115397    0.0933559    4.4024240  
H    2.4028853    2.0163452    4.9860947  
H   -2.2861435   -1.9184361    2.3990168  
H    0.0832434    0.0693689    5.4835595  
H    3.3664920    2.8238276    2.6198634  
