62

C    2.4963620   -2.1240792   -5.9704919  
C    1.9480114   -1.6619034   -4.7965367  
C    0.8896190   -0.7743524   -5.1524289  
C    0.8386567   -0.7344002   -6.5693737  
N    1.8289587   -1.5636688   -7.0343826  
C   -0.0884740    0.0419043   -7.2712052  
C   -0.9806045    0.7912982   -6.5291205  
O   -1.9072989    1.5668925   -7.1637111  
C   -0.9452756    0.7649386   -5.1145981  
O   -1.8983682    1.5656408   -4.5197594  
C   -0.0307359   -0.0004648   -4.4215606  
H    2.2718145   -1.9304788   -3.8055716  
H    2.0272766   -1.7451631   -8.0017035  
H   -0.1324047    0.0768112   -8.3510451  
H   -2.4218338    2.0000296   -6.4702335  
H   -1.8060311    1.4903718   -3.5650808  
H    3.3116701   -2.8080314   -6.1330999  
C    3.2573667   -0.0002920   -1.5109386  
C    2.5379466   -0.0001709   -0.3591965  
C    1.1435040    0.0000332   -0.7338503  
C    1.1092604   -0.0000083   -2.2088478  
N    2.4227557    0.0001908   -2.6182616  
C   -0.0265538   -0.0002523   -2.9515663  
C   -1.3003040   -0.0002641   -2.2514979  
O   -2.3786787   -0.0004133   -2.8306426  
C   -1.2877728    0.0000312   -0.6895607  
O   -2.3539959    0.0003306   -0.0892033  
C    0.0000000    0.0000000    0.0000000  
H    2.9384091   -0.0000368    0.6389234  
H    2.7280486   -0.0013408   -3.5742120  
C    4.7161330   -0.0005435   -1.6923266  
C    5.6747634   -0.0008964   -0.7370224  
C    6.9326495   -0.0010019   -1.4679276  
C    6.5359790   -0.0007817   -2.8924402  
N    5.2379003   -0.0004318   -3.0302108  
C    7.5063007   -0.0007607   -3.9524221  
C    8.8134760   -0.0005622   -3.6051057  
O    9.8251244   -0.0005268   -4.4897576  
C    9.2455282   -0.0004055   -2.1762981  
O   10.4523081   -0.0003519   -1.9335989  
C    8.2310911   -0.0004742   -1.1072604  
H    5.5443950   -0.0009742    0.3316590  
H    7.1881014   -0.0008042   -4.9847297  
H   10.6319768   -0.0003444   -3.9437340  
H    8.5850041   -0.0002407   -0.0850202  
C    0.0000000    0.0000000    1.4700000  
C    1.0521667    0.0011902    2.3562342  
C    0.4917218    0.0011957    3.6679131  
C   -0.9187428   -0.0003148    3.5178682  
N   -1.1833171    0.0009411    2.1707914  
C   -1.7951701   -0.0010350    4.6072090  
C   -1.2375837   -0.0005224    5.8710424  
O   -2.0474215   -0.0015360    6.9697579  
C    0.1673580    0.0013566    6.0411963  
O    0.5673524    0.0020687    7.3615553  
C    1.0325770    0.0023412    4.9669890  
H    2.0953057    0.0030649    2.0900562  
H   -2.0989778   -0.0102372    1.7591824  
H   -2.8710934   -0.0020419    4.4995513  
H   -1.4634884   -0.0006497    7.7393593  
H    1.5290710    0.0033153    7.3880045  
H    2.1042148    0.0039609    5.1284455  
