60

C    6.8335623    2.1225468   -5.5389188  
C    6.9753201    1.6610399   -4.2507485  
C    8.0925631    0.7742748   -4.2467526  
C    8.5967851    0.7340904   -5.5719210  
N    7.8081995    1.5624698   -6.3312231  
C    9.7009853   -0.0416010   -5.9377524  
C   10.3074067   -0.7901315   -4.9477361  
O   11.3895561   -1.5651004   -5.2500433  
C    9.8187756   -0.7635274   -3.6198248  
O   10.5303345   -1.5633455   -2.7495839  
C    8.7293340    0.0012712   -3.2582632  
H    6.3496789    1.9295450   -3.4167990  
H    7.9315648    1.7436173   -7.3109913  
H   10.0900723   -0.0766807   -6.9460095  
H   11.6538836   -1.9976879   -4.4276903  
H   10.1356608   -1.4879669   -1.8754249  
H    6.1134597    2.8058093   -5.9555288  
C    4.7390840    0.0009613   -1.2727298  
C    5.6949926    0.0015508   -2.2307581  
C    6.9549530    0.0016807   -1.5034352  
C    6.5623381    0.0012144   -0.0777997  
N    5.2646567    0.0007108    0.0636641  
C    7.5356726    0.0011408    0.9794169  
C    8.8418534    0.0011269    0.6283818  
O    9.8560150    0.0010683    1.5101514  
C    9.2698381    0.0012206   -0.8016498  
O   10.4759226    0.0013265   -1.0477817  
C    8.2523631    0.0013389   -1.8677960  
H    5.5615833    0.0017691   -3.2990638  
H    7.2204120    0.0010027    2.0126260  
H   10.6613105    0.0010481    0.9618336  
C    3.2798077    0.0005856   -1.4499661  
C    2.5571132    0.0005565   -2.5996564  
C    1.1637425    0.0001547   -2.2210366  
C    1.1336959   -0.0000200   -0.7459475  
N    2.4483509   -0.0001429   -0.3402730  
C    0.0000000    0.0000000    0.0000000  
C   -1.2757370   -0.0000187   -0.6964411  
O   -2.3524597   -0.0000640   -0.1142306  
C   -1.2676502   -0.0000874   -2.2584078  
O   -2.3355774   -0.0004102   -2.8557287  
C    0.0181551    0.0001758   -2.9516297  
H    2.9547342    0.0006074   -3.5989118  
H    0.0150776    0.0003317   -4.0331632  
H    2.7563626    0.0012823    0.6148051  
C    2.4951002    2.0940188    2.9809380  
C    1.9440701    1.6314916    1.8291961  
C    0.8759964    0.7350050    2.2038498  
C    0.8497377    0.7130254    3.6788474  
N    1.8560616    1.5571714    4.0882609  
C   -0.0205033   -0.0168748    4.4215661  
C   -0.9962600   -0.8356168    3.7214979  
O   -1.8224391   -1.5286685    4.3006425  
C   -0.9864710   -0.8277881    2.1595606  
O   -1.8030528   -1.5133726    1.5592035  
C    0.0000000    0.0000000    1.4700000  
H    2.2509283    1.8888011    0.8310761  
H   -0.0229599   -0.0187323    5.5027230  
H    3.3143982    2.7817323    3.1139444  
H    2.0889452    1.7545833    5.0442112  
