60

C   10.1031456   -2.1262548   -1.0882726  
C    9.0404361   -1.6642620   -1.8296758  
C    9.5723769   -0.7773624   -2.8120440  
C   10.9771516   -0.7376007   -2.6198095  
N   11.2656674   -1.5663505   -1.5640870  
C   11.8274454    0.0380890   -3.4135947  
C   11.2491252    0.7870524   -4.4199631  
O   12.0330944    1.5620398   -5.2248235  
C    9.8494156    0.7608736   -4.6271931  
O    9.4266118    1.5610936   -5.6684561  
C    9.0099430   -0.0039230   -3.8443149  
H    8.0086214   -1.9325379   -1.6800744  
H   12.1847459   -1.7478402   -1.2030673  
H   12.8988823    0.0728477   -3.2721144  
H   11.4379833    1.9949586   -5.8506746  
H    8.4701975    1.4859860   -5.7408034  
H   10.1236959   -2.8097547   -0.2567895  
C    5.5795936   -0.0015221   -1.1027758  
C    4.5679461   -0.0016854   -2.0086701  
C    5.1756903   -0.0023284   -3.3184346  
C    6.6347916   -0.0025573   -3.0997720  
N    6.8134023   -0.0016468   -1.7355920  
C    7.5609148   -0.0035412   -4.0917392  
C    7.0891366   -0.0042082   -5.4664974  
O    7.8442695   -0.0050456   -6.4298633  
C    5.5480930   -0.0037283   -5.7214287  
O    5.1390419   -0.0039759   -6.8746586  
C    4.6483398   -0.0029381   -4.5706482  
H    3.5827546   -0.0028151   -4.7557203  
H    5.5275967   -0.0011044   -0.0261209  
H    7.7030101   -0.0031108   -1.2712192  
C    3.1301149   -0.0010311   -1.7028252  
C    2.5367768   -0.0002767   -0.4864665  
C    1.1089904    0.0001028   -0.7656183  
C    1.0177872   -0.0004148   -2.2415132  
N    2.1993578   -0.0011611   -2.7963820  
C   -0.2459209   -0.0002877   -2.9257118  
C   -1.3675319   -0.0000605   -2.1698524  
O   -2.6129313    0.0000867   -2.6748490  
C   -1.3083584    0.0000910   -0.6783232  
O   -2.3693261    0.0004206   -0.0541692  
C    0.0000000    0.0000000    0.0000000  
H    3.0096017   -0.0001007    0.4807525  
H   -0.2829630   -0.0004687   -4.0053125  
H   -3.1967441    0.0002094   -1.8949034  
C    0.0000000    0.0000000    1.4700000  
C    1.0662921    0.0000102    2.3034270  
C    0.4961870   -0.0000064    3.6418889  
C   -0.9663858    0.0000850    3.4240247  
N   -1.2632773    0.0000084    2.1528658  
C   -1.8985362    0.0000517    4.5177257  
C   -1.3925775   -0.0004564    5.7720543  
O   -2.1456383   -0.0005410    6.8851312  
C    0.0786232   -0.0009323    6.0245000  
O    0.4683759   -0.0012588    7.1921102  
C    1.0143166   -0.0008442    4.8859032  
H    2.1107198   -0.0000632    2.0421868  
H   -2.9622183    0.0003270    4.3293377  
H   -1.5042274   -0.0009692    7.6184419  
H    2.0724152   -0.0013148    5.1109744  
