60

C    9.8740980    0.7106279   -0.4753747  
C   11.2259368    0.4601267   -0.5228072  
C   11.5185125   -0.4482263    0.5373318  
C   10.2955504   -0.7188710    1.2029471  
N    9.3177130    0.0022291    0.5638345  
C   10.2069561   -1.5778788    2.3025131  
C   11.3741485   -2.1747784    2.7378900  
O   11.3445314   -3.0226282    3.8071355  
C   12.6041314   -1.9169981    2.0871141  
O   13.6763440   -2.5866783    2.6395920  
C   12.6923194   -1.0694676    1.0024757  
H   11.9164417    0.8812468   -1.2333379  
H    9.2779469   -1.7881910    2.8142865  
H   12.2524825   -3.3237779    3.9420363  
H   14.4671891   -2.3576478    2.1418844  
H   13.6485128   -0.8912037    0.5245692  
H    9.2629965    1.3396794   -1.0997200  
C    5.7851528    0.0009360   -1.9873452  
C    4.7795901    0.0008674   -1.0815733  
C    5.4416652    0.0014223    0.2138632  
C    6.8854798    0.0016738   -0.1054857  
N    7.0929836    0.0014713   -1.3942570  
C    7.8916463    0.0022759    0.9205334  
C    7.4744098    0.0030007    2.2070976  
O    8.3032740    0.0036099    3.2649370  
C    6.0244005    0.0031411    2.5615457  
O    5.7170387    0.0036916    3.7534974  
C    5.0115684    0.0024703    1.4909874  
H    7.7145743    0.0040689    4.0412004  
H    3.9717453    0.0027120    1.7893136  
H    5.7099328    0.0006295   -3.0631309  
C    3.3321168    0.0004716   -1.3379341  
C    2.6974177    0.0000118   -2.5332316  
C    1.2800432   -0.0002116   -2.2052842  
C    1.2395033    0.0000644   -0.7271298  
N    2.4394059    0.0005460   -0.2131041  
C    0.0000000    0.0000000    0.0000000  
C   -1.1468704    0.0000635   -0.7169542  
O   -2.3742206    0.0000074   -0.1695488  
C   -1.1388774    0.0001608   -2.2096352  
O   -2.2206238    0.0000906   -2.7970409  
C    0.1454514    0.0001818   -2.9324241  
H    3.1367978   -0.0000649   -3.5160956  
H   -2.9844350    0.0001027   -0.9290164  
H    0.1083567    0.0003684   -4.0135594  
C    0.8175213    0.6860729    2.3021913  
C    0.0000000    0.0000000    1.4700000  
C   -0.8887526   -0.7456559    2.3478473  
C   -0.4549825   -0.3816753    3.7138435  
N    0.5448156    0.4573574    3.6934124  
C   -1.0945674   -0.9182058    4.8835240  
C   -2.1210866   -1.7789155    4.6970523  
O   -2.8083856   -2.3554314    5.6976972  
C   -2.5824069   -2.1655116    3.3310774  
O   -3.5227682   -2.9541547    3.2362962  
C   -1.9100805   -1.6015804    2.1470656  
H   -0.7567140   -0.6349833    5.8697035  
H   -3.4728268   -2.9124471    5.2533954  
H   -2.2742832   -1.9066565    1.1752040  
H    1.6189533    1.3585343    2.0405121  
