64

C    2.7273108   -2.1121038   -7.4741529  
C    3.8088511   -2.9621769   -7.4848014  
C    4.3140881   -2.9764535   -8.8186428  
C    3.4936595   -2.1084789   -9.5837852  
N    2.5389950   -1.6018425   -8.7372918  
C    3.7008840   -1.8786429  -10.9472449  
C    4.7557242   -2.5367807  -11.5491963  
O    5.0032907   -2.3482422  -12.8781720  
C    5.5852646   -3.4070570  -10.8026721  
O    6.5926609   -3.9876685  -11.5452269  
C    5.3812549   -3.6344782   -9.4576127  
H    4.1864460   -3.5060338   -6.6358989  
H    1.8219930   -0.9483586   -8.9958415  
H    3.0790846   -1.2184289  -11.5360448  
H    5.7718305   -2.8928452  -13.0926945  
H    7.1059331   -4.5598164  -10.9666057  
H    6.0330905   -4.3067196   -8.9120124  
C    1.8836766   -2.1362885   -5.0810756  
C    1.8358579   -1.7275860   -6.3703608  
C    0.7030361   -0.8169591   -6.4333927  
C    0.1677631   -0.7920098   -5.0551891  
N    0.8558147   -1.5634006   -4.2579876  
C   -0.9736297    0.0040464   -4.6965763  
C   -1.5536728    0.7419466   -5.6704280  
O   -2.6247573    1.5303572   -5.4774859  
C   -1.0366297    0.7382178   -7.0707188  
O   -1.6142401    1.4340380   -7.9058359  
C    0.1355200   -0.0866895   -7.4135265  
H   -2.8038822    1.9233565   -6.3507661  
H    0.4792074   -0.0617352   -8.4389468  
H    2.5838916   -2.8188170   -4.6262939  
C    1.1188642    0.0008222   -0.8003808  
C    0.0000000    0.0000000    0.0000000  
C   -1.1323862    0.0008899   -0.8673528  
C   -0.6382663    0.0019679   -2.1969280  
N    0.7324016    0.0038481   -2.1202242  
C   -1.4770914    0.0027318   -3.3154808  
C   -2.8395473    0.0020945   -3.0876857  
O   -3.7039201    0.0024425   -4.1440349  
C   -3.3517868    0.0013931   -1.7684331  
O   -4.7300497    0.0012366   -1.7073121  
C   -2.5248543    0.0009123   -0.6644817  
H    1.3576314   -0.0056167   -2.9057046  
H   -4.5940032    0.0021826   -3.7685128  
H   -4.9934602    0.0007259   -0.7819913  
H   -2.9462577    0.0005603    0.3339659  
H    2.1619895    0.0009355   -0.5342068  
C    0.8576279    0.7185626    2.2703808  
C    0.0000000    0.0000000    1.4700000  
C   -0.8668858   -0.7285659    2.3373528  
C   -0.4876752   -0.4117774    3.6669281  
N    0.5635254    0.4678311    3.5902241  
C   -1.1297612   -0.9515493    4.7854808  
C   -2.1738724   -1.8268314    4.5576857  
O   -2.8357962   -2.3827064    5.6140350  
C   -2.5667212   -2.1555554    3.2384331  
O   -3.6226318   -3.0413663    3.1773122  
C   -1.9335634   -1.6236449    2.1344818  
H    1.0363952    0.8769718    4.3757045  
H   -0.8454472   -0.7142436    5.8013813  
H   -3.5178062   -2.9546422    5.2385129  
H   -3.8247440   -3.2102924    2.2519915  
H   -2.2566033   -1.8942483    1.1360343  
H    1.6567807    1.3889844    2.0042067  
