64

C    4.4916363   -0.3878110   -7.5790593  
C    5.5311216   -0.2424192   -8.4683285  
C    5.5631617    1.1314949   -8.8503406  
C    4.5107196    1.7812138   -8.1559643  
N    3.8789536    0.8295292   -7.3945278  
C    4.2452117    3.1471884   -8.2916417  
C    5.0571149    3.8705106   -9.1435778  
O    4.8422725    5.2077469   -9.3128583  
C    6.1120036    3.2401038   -9.8454415  
O    6.8301706    4.0955860  -10.6552125  
C    6.3743420    1.8925230   -9.7122843  
H    6.1850781   -1.0299777   -8.8016226  
H    3.4445374    3.6483066   -7.7653312  
H    5.5102964    5.5144127   -9.9397262  
H    7.5227125    3.5908073  -11.0924646  
H    7.1892631    1.4374056  -10.2629655  
H    4.1378877   -1.2638330   -7.0629140  
C    2.8434396   -0.7174319   -3.3295212  
C    3.4705723   -0.4665766   -4.5279551  
C    2.6462645    0.4501927   -5.2453468  
C    1.5204238    0.7253686   -4.4276141  
N    1.6707636   -0.0012343   -3.2725974  
C    0.4959244    1.5928957   -4.8182368  
C    0.6101835    2.1938123   -6.0567931  
O   -0.3616143    3.0499771   -6.4876105  
C    1.7257479    1.9316205   -6.8872078  
O    1.6939058    2.6061784   -8.0902458  
C    2.7366814    1.0756865   -6.5026083  
H    4.4064340   -0.8928629   -4.8464453  
H   -0.3648220    1.8066981   -4.1996853  
H   -0.0899714    3.3526643   -7.3638847  
H    2.4822851    2.3736945   -8.5902582  
H    3.1391408   -1.3516748   -2.5114405  
C    1.0965514    0.0001358   -0.8010306  
C    0.0000000    0.0000000    0.0000000  
C   -1.1546565    0.0001470   -0.8669508  
C   -0.6372019    0.0003520   -2.2486278  
N    0.7342867    0.0007338   -2.1395012  
C   -1.4147744    0.0001354   -3.3608712  
C   -2.8576052   -0.0001047   -3.1854454  
O   -3.6427785   -0.0002490   -4.1244896  
C   -3.4275841   -0.0000727   -1.7311660  
O   -4.6406832    0.0000333   -1.5710049  
C   -2.4891868   -0.0001090   -0.6116739  
H   -1.0150456    0.0001617   -4.3654239  
H   -2.8919122   -0.0002919    0.3920871  
H    2.1388270    0.0000663   -0.5261650  
C    0.0000000    0.0000000    1.4700000  
C    1.0521667    0.0011902    2.3562342  
C    0.4917218    0.0011957    3.6679131  
C   -0.9187428   -0.0003148    3.5178682  
N   -1.1833171    0.0009411    2.1707914  
C   -1.7951701   -0.0010350    4.6072090  
C   -1.2375837   -0.0005224    5.8710424  
O   -2.0474215   -0.0015360    6.9697579  
C    0.1673580    0.0013566    6.0411963  
O    0.5673524    0.0020687    7.3615553  
C    1.0325770    0.0023412    4.9669890  
H    2.0953057    0.0030649    2.0900562  
H   -2.0989778   -0.0102372    1.7591824  
H   -2.8710934   -0.0020419    4.4995513  
H   -1.4634884   -0.0006497    7.7393593  
H    1.5290710    0.0033153    7.3880045  
H    2.1042148    0.0039609    5.1284455  
