60

C    8.8863521   -0.0041284   -2.9586726  
C    9.9745024   -0.0053670   -2.1170106  
C   11.1385318   -0.0063999   -2.9414110  
C   10.6944769   -0.0054376   -4.2885341  
N    9.3218993   -0.0060176   -4.2631436  
C   11.5745448   -0.0057563   -5.3749362  
C   12.9275297   -0.0067634   -5.0963499  
O   13.8308008   -0.0067642   -6.1196361  
C   13.3900759   -0.0081087   -3.7588649  
O   14.7650871   -0.0094199   -3.6462454  
C   12.5224379   -0.0080684   -2.6866096  
H    9.9342415   -0.0066136   -1.0411988  
H    8.7264911    0.0049904   -5.0714434  
H   11.2424605   -0.0051715   -6.4039757  
H   14.7062187   -0.0078413   -5.7110918  
H   14.9937109   -0.0102479   -2.7117218  
H   12.9062077   -0.0092996   -1.6731021  
C    6.7235404   -0.0015093    0.8630518  
C    5.4473217   -0.0011276    0.3990038  
C    5.5236520   -0.0015784   -1.0428731  
C    6.9592471   -0.0022881   -1.3832519  
N    7.6329843   -0.0018114   -0.1836821  
C    7.4493969   -0.0032604   -2.6487385  
C    6.4996351   -0.0034065   -3.7489599  
O    6.8417413   -0.0041910   -4.9242317  
C    4.9744857   -0.0024119   -3.4117302  
O    4.1654301   -0.0022186   -4.3297117  
C    4.5679461   -0.0016854   -2.0086701  
H    4.5543636   -0.0004091    0.9983692  
H    7.0761901   -0.0013785    1.8816429  
H    8.6315325   -0.0036615   -0.0839620  
C    3.1301149   -0.0010311   -1.7028252  
C    2.5367768   -0.0002767   -0.4864665  
C    1.1089904    0.0001028   -0.7656183  
C    1.0177872   -0.0004148   -2.2415132  
N    2.1993578   -0.0011611   -2.7963820  
C   -0.2459209   -0.0002877   -2.9257118  
C   -1.3675319   -0.0000605   -2.1698524  
O   -2.6129313    0.0000867   -2.6748490  
C   -1.3083584    0.0000910   -0.6783232  
O   -2.3693261    0.0004206   -0.0541692  
C    0.0000000    0.0000000    0.0000000  
H    3.0096017   -0.0001007    0.4807525  
H   -0.2829630   -0.0004687   -4.0053125  
H   -3.1967441    0.0002094   -1.8949034  
C    2.5128556    2.1077716    2.9199648  
C    1.9592212    1.6432552    4.0696553  
C    0.8915788    0.7479214    3.6910360  
C    0.8684491    0.7287414    2.2159470  
N    1.8754542    1.5738793    1.8102719  
C    0.0000000    0.0000000    1.4700000  
C   -0.9772830   -0.8200135    2.1664417  
O   -1.8021297   -1.5120829    1.5842315  
C   -0.9711318   -0.8147624    3.7284083  
O   -1.7894187   -1.5009653    4.3257297  
C    0.0140216    0.0115358    4.4216297  
H    2.2638494    1.8988021    5.0689105  
H    0.0117648    0.0094386    5.5031631  
H    3.3327358    2.7953732    2.7900019  
H    2.1123206    1.7707734    0.8551938  
