60

C    4.3986925   -2.1219534   -1.2768490  
C    3.1671542   -1.6601561   -1.6799920  
C    3.3927791   -0.7733837   -2.7742173  
C    4.7932402   -0.7334947   -2.9956763  
N    5.3743139   -1.5620494   -2.0680625  
C    5.3781140    0.0421207   -4.0012263  
C    4.5338274    0.7908774   -4.7979200  
O    5.0520044    1.5657842   -5.7949293  
C    3.1338858    0.7645692   -4.5922822  
O    2.4284169    1.5645872   -5.4672842  
C    2.5562222   -0.0001542   -3.6002998  
H    2.2224780   -1.9284770   -1.2388763  
H    6.3585028   -1.7434167   -1.9876889  
H    6.4447778    0.0769756   -4.1750569  
H    4.3015179    1.9985585   -6.2224131  
H    1.4918408    1.4894028   -5.2604613  
H    4.6584630   -2.8053140   -0.4865975  
C    0.0000000    0.0000000    0.0000000  
C    1.0541691   -0.0001719   -0.8560389  
C    0.5103143   -0.0000448   -2.1935953  
C   -0.9576364    0.0002464   -2.0455731  
N   -1.2018458   -0.0001389   -0.6915972  
C   -1.8348303    0.0008322   -3.0810611  
C   -1.2972837    0.0009745   -4.4314603  
O   -2.0050658    0.0014276   -5.4301322  
C    0.2542633    0.0004194   -4.6117570  
O    0.7184681    0.0002269   -5.7439118  
C    1.0974560    0.0000881   -3.4189126  
H    2.0940754   -0.0005481   -0.5817976  
H   -2.1128195    0.0014913   -0.2706792  
C   -3.9842738    0.7276677   -1.9452940  
C   -5.3215464    0.5113825   -2.0401502  
C   -5.5219095   -0.4154380   -3.1290459  
C   -4.1821400   -0.7236130   -3.6646170  
N   -3.2941065    0.0012879   -2.9038247  
C   -3.9439094   -1.5640377   -4.7031915  
C   -5.0830905   -2.2078646   -5.3358755  
O   -4.9725158   -2.9811912   -6.2782344  
C   -6.5111073   -1.8958666   -4.7852121  
O   -7.4778728   -2.4317670   -5.3100315  
C   -6.6412636   -0.9729343   -3.6604422  
H   -6.0809663    0.9510772   -1.4184079  
H   -2.9532706   -1.7765342   -5.0805370  
H   -7.6334397   -0.7623672   -3.2849798  
H   -3.4449075    1.3567582   -1.2559330  
C    0.0000000    0.0000000    1.4700000  
C    1.0541688    0.0001722    2.3260392  
C    0.5103138    0.0000454    3.6635956  
C   -0.9576371   -0.0002459    3.5155732  
N   -1.2018458    0.0001392    2.1615969  
C   -1.8348311   -0.0008317    4.5510609  
C   -1.2972847   -0.0009736    5.9014604  
O   -2.0050672   -0.0014265    6.9001319  
C    0.2542623   -0.0004184    6.0817573  
O    0.7184670   -0.0002256    7.2139121  
C    1.0974552   -0.0000873    4.8889129  
H    2.0940752    0.0005483    2.0517982  
H   -2.9081052   -0.0011668    4.4207061  
H    2.1707277    0.0000911    5.0223670  
H   -2.1128194   -0.0014912    1.7406791  
