60

C    6.6540971   -0.0011650    1.3962730  
C    5.4018070   -0.0014566    0.8268551  
C    5.5874903   -0.0008421   -0.5874011  
C    6.9861183   -0.0004713   -0.8235501  
N    7.6043964    0.0012708    0.4021524  
C    7.5360612   -0.0001420   -2.1089883  
C    6.6581046   -0.0004950   -3.1754631  
O    7.1413995   -0.0005482   -4.4519583  
C    5.2593676   -0.0004920   -2.9601677  
O    4.5179016   -0.0004426   -4.1235986  
C    4.7161324   -0.0005436   -1.6923263  
H    4.4691981   -0.0009350    1.3646591  
H    8.5971753   -0.0086542    0.5513883  
H    8.6011199    0.0002854   -2.2956726  
H    6.3714456   -0.0005123   -5.0354278  
H    3.5847245   -0.0004711   -3.8895378  
H    6.9446145   -0.0010561    2.4328822  
C    3.2573666   -0.0002920   -1.5109384  
C    2.5379463   -0.0001710   -0.3591964  
C    1.1435039    0.0000331   -0.7338498  
C    1.1092600   -0.0000083   -2.2088476  
N    2.4227554    0.0001909   -2.6182613  
C   -0.0265538   -0.0002524   -2.9515660  
C   -1.3003040   -0.0002640   -2.2514976  
O   -2.3786789   -0.0004133   -2.8306420  
C   -1.2877727    0.0000311   -0.6895603  
O   -2.3539960    0.0003306   -0.0892032  
C    0.0000000    0.0000000    0.0000000  
H    2.9384090   -0.0000368    0.6389236  
H    2.7280484   -0.0013407   -3.5742118  
C   -0.0307367   -0.0004647   -4.4215603  
C    1.0209921   -0.0006524   -5.2805955  
C    0.4733333   -0.0007746   -6.6165989  
C   -0.9941905   -0.0006125   -6.4644004  
N   -1.2345455   -0.0008271   -5.1097346  
C   -1.8743275   -0.0002663   -7.4973874  
C   -1.3406258   -0.0002643   -8.8493115  
O   -2.0512471   -0.0000283   -9.8459641  
C    0.2104020   -0.0006863   -9.0340215  
O    0.6713833   -0.0009950  -10.1674932  
C    1.0569856   -0.0007586   -7.8435817  
H    2.0616746   -0.0008822   -5.0093141  
H   -2.9472263   -0.0000225   -7.3639796  
H    2.1298741   -0.0008462   -7.9800894  
H   -2.1443179    0.0007706   -4.6862264  
C    0.8175213    0.6860729    2.3021913  
C    0.0000000    0.0000000    1.4700000  
C   -0.8887526   -0.7456559    2.3478473  
C   -0.4549825   -0.3816753    3.7138435  
N    0.5448156    0.4573574    3.6934124  
C   -1.0945674   -0.9182058    4.8835240  
C   -2.1210866   -1.7789155    4.6970523  
O   -2.8083856   -2.3554314    5.6976972  
C   -2.5824069   -2.1655116    3.3310774  
O   -3.5227682   -2.9541547    3.2362962  
C   -1.9100805   -1.6015804    2.1470656  
H   -0.7567140   -0.6349833    5.8697035  
H   -3.4728268   -2.9124471    5.2533954  
H   -2.2742832   -1.9066565    1.1752040  
H    1.6189533    1.3585343    2.0405121  
