60

C   10.8446410   -2.1257519   -1.1143756  
C   11.8027323   -1.6272144   -1.9664260  
C   11.1369693   -0.7527016   -2.8755946  
C    9.7622159   -0.7573697   -2.5263734  
N    9.6189552   -1.6027721   -1.4542776  
C    8.8049643   -0.0042791   -3.2128964  
C    9.2435565    0.7678199   -4.2710446  
O    8.3510660    1.5228749   -4.9755774  
C   10.6110677    0.7854164   -4.6349425  
O   10.8896182    1.6035745   -5.7102886  
C   11.5559296    0.0425162   -3.9582881  
H   12.8521857   -1.8654967   -1.9370650  
H    8.7554159   -1.7988945   -0.9811839  
H    8.8585657    1.9769841   -5.6607729  
H   11.8335600    1.5580866   -5.8905898  
H   12.5962292    0.0760452   -4.2601647  
H   10.9383872   -2.8141153   -0.2919861  
C    6.8847525   -0.0023787    0.6986608  
C    5.5715637   -0.0012903    0.3713797  
C    5.5475442   -0.0015351   -1.0832416  
C    6.9721655   -0.0027416   -1.4795204  
N    7.7607270   -0.0033211   -0.4392514  
C    7.3784667   -0.0033614   -2.8579272  
C    6.4057883   -0.0031904   -3.7977309  
O    6.6406184   -0.0037041   -5.1209446  
C    4.9592105   -0.0023543   -3.4295276  
O    4.1279725   -0.0021183   -4.3374176  
C    4.5679461   -0.0016854   -2.0086701  
H    4.7238861   -0.0005185    1.0350949  
H    5.7562738   -0.0034385   -5.5297077  
H    7.3236768   -0.0025893    1.6837085  
C    3.1301149   -0.0010311   -1.7028252  
C    2.5367768   -0.0002767   -0.4864665  
C    1.1089904    0.0001028   -0.7656183  
C    1.0177872   -0.0004148   -2.2415132  
N    2.1993578   -0.0011611   -2.7963820  
C   -0.2459209   -0.0002877   -2.9257118  
C   -1.3675319   -0.0000605   -2.1698524  
O   -2.6129313    0.0000867   -2.6748490  
C   -1.3083584    0.0000910   -0.6783232  
O   -2.3693261    0.0004206   -0.0541692  
C    0.0000000    0.0000000    0.0000000  
H    3.0096017   -0.0001007    0.4807525  
H   -0.2829630   -0.0004687   -4.0053125  
H   -3.1967441    0.0002094   -1.8949034  
C    0.8175213    0.6860729    2.3021913  
C    0.0000000    0.0000000    1.4700000  
C   -0.8887526   -0.7456559    2.3478473  
C   -0.4549825   -0.3816753    3.7138435  
N    0.5448156    0.4573574    3.6934124  
C   -1.0945674   -0.9182058    4.8835240  
C   -2.1210866   -1.7789155    4.6970523  
O   -2.8083856   -2.3554314    5.6976972  
C   -2.5824069   -2.1655116    3.3310774  
O   -3.5227682   -2.9541547    3.2362962  
C   -1.9100805   -1.6015804    2.1470656  
H   -0.7567140   -0.6349833    5.8697035  
H   -3.4728268   -2.9124471    5.2533954  
H   -2.2742832   -1.9066565    1.1752040  
H    1.6189533    1.3585343    2.0405121  
