62

C    1.3319989   -0.9833827   -9.4424459  
C    0.8374357    0.0913581   -8.7404439  
C    0.9643205    1.2340956   -9.5846310  
C    1.5475780    0.7914213  -10.7994464  
N    1.7597837   -0.5595199  -10.6788477  
C    1.8192839    1.6534588  -11.8661486  
C    1.4960320    2.9866061  -11.7036564  
O    1.7396940    3.8716809  -12.7137475  
C    0.9138083    3.4475125  -10.4989174  
O    0.6504244    4.8017336  -10.4913489  
C    0.6457333    2.5977037   -9.4460698  
H    2.1532993   -1.1507992  -11.3884352  
H    2.2638114    1.3223426  -12.7945670  
H    1.4440726    4.7352505  -12.3973300  
H    0.2587617    5.0306684   -9.6429424  
H    0.1993691    2.9797496   -8.5354225  
H    1.4147623   -2.0185029   -9.1584830  
C    2.1120183   -2.1227298   -5.1304393  
C    1.1297842   -1.6610074   -4.2851608  
C    0.3107399   -0.7734496   -5.0441125  
C    0.8462222   -0.7330262   -6.3569534  
N    1.9403247   -1.5620327   -6.3744202  
C    0.2889652    0.0434155   -7.3774390  
C   -0.8294078    0.7924646   -7.0670447  
O   -1.4138834    1.5681740   -8.0260434  
C   -1.3781520    0.7656327   -5.7628299  
O   -2.4916452    1.5660338   -5.6117139  
C   -0.8287665    0.0000939   -4.7555305  
H    1.0180780   -1.9298816   -3.2487143  
H    2.5184779   -1.7431806   -7.1749861  
H   -2.1679403    2.0010224   -7.6049667  
H   -2.7995363    1.4904531   -4.7033666  
H    2.9223335   -2.8065401   -4.9440216  
C    1.0672569   -0.0000698   -0.8321910  
C    0.0000000    0.0000000    0.0000000  
C   -1.1601223   -0.0000736   -0.8778472  
C   -0.5938729   -0.0000768   -2.2438435  
N    0.7113367   -0.0001553   -2.2234123  
C   -1.4286985   -0.0001877   -3.4135239  
C   -2.7683113   -0.0006798   -3.2270524  
O   -3.6653902   -0.0008302   -4.2276970  
C   -3.3702024   -0.0010610   -1.8610774  
O   -4.5974910   -0.0013779   -1.7662963  
C   -2.4926825   -0.0008943   -0.6770658  
H   -4.5324245   -0.0012258   -3.7833954  
H   -2.9677772   -0.0012974    0.2947961  
H    2.1134391   -0.0000547   -0.5705119  
C    2.4951002    2.0940188    2.9809380  
C    1.9440701    1.6314916    1.8291961  
C    0.8759964    0.7350050    2.2038498  
C    0.8497377    0.7130254    3.6788474  
N    1.8560616    1.5571714    4.0882609  
C   -0.0205033   -0.0168748    4.4215661  
C   -0.9962600   -0.8356168    3.7214979  
O   -1.8224391   -1.5286685    4.3006425  
C   -0.9864710   -0.8277881    2.1595606  
O   -1.8030528   -1.5133726    1.5592035  
C    0.0000000    0.0000000    1.4700000  
H    2.2509283    1.8888011    0.8310761  
H   -0.0229599   -0.0187323    5.5027230  
H    3.3143982    2.7817323    3.1139444  
H    2.0889452    1.7545833    5.0442112  
