60

C    6.9602911   -5.4844463   -4.5988017  
C    7.9409970   -5.0179562   -5.4432369  
C    7.7020995   -3.6240244   -5.6289311  
C    6.5525596   -3.2935694   -4.8665116  
N    6.1261493   -4.4464258   -4.2551900  
C    6.0263266   -1.9993125   -4.8139147  
C    6.6724933   -1.0207606   -5.5440394  
O    6.2011073    0.2600792   -5.5279656  
C    7.8206082   -1.3309400   -6.3111373  
O    8.3497851   -0.2480529   -6.9824567  
C    8.3401443   -2.6075939   -6.3637049  
H    8.7307067   -5.6097991   -5.8734394  
H    5.3357961   -4.5191421   -3.6403437  
H    6.7894505    0.7746974   -6.0956668  
H    9.1213959   -0.5432697   -7.4754754  
H    9.2208151   -2.8150627   -6.9602396  
H    6.7889749   -6.4757780   -4.2155662  
C    4.5294740   -2.1111779   -2.7873606  
C    4.8355748   -1.6481497   -4.0267077  
C    3.7722454   -0.7522108   -4.4158861  
C    2.8147156   -0.7310539   -3.2936206  
N    3.3317095   -1.5757414   -2.3385760  
C    1.6707636   -0.0012343   -3.2725974  
C    1.3618921    0.8179368   -4.4328097  
O    0.3558258    1.5108615   -4.5101839  
C    2.3616940    0.8105940   -5.6328715  
O    2.1121101    1.4960723   -6.6152604  
C    3.5619233   -0.0167228   -5.5388103  
H    4.2491866   -0.0160733   -6.3739109  
H    5.0780198   -2.7986805   -2.1642017  
H    2.9056662   -1.7713787   -1.4512991  
C    1.0965514    0.0001358   -0.8010306  
C    0.0000000    0.0000000    0.0000000  
C   -1.1546565    0.0001470   -0.8669508  
C   -0.6372019    0.0003520   -2.2486278  
N    0.7342867    0.0007338   -2.1395012  
C   -1.4147744    0.0001354   -3.3608712  
C   -2.8576052   -0.0001047   -3.1854454  
O   -3.6427785   -0.0002490   -4.1244896  
C   -3.4275841   -0.0000727   -1.7311660  
O   -4.6406832    0.0000333   -1.5710049  
C   -2.4891868   -0.0001090   -0.6116739  
H   -1.0150456    0.0001617   -4.3654239  
H   -2.8919122   -0.0002919    0.3920871  
H    2.1388270    0.0000663   -0.5261650  
C    0.8175213    0.6860729    2.3021913  
C    0.0000000    0.0000000    1.4700000  
C   -0.8887526   -0.7456559    2.3478473  
C   -0.4549825   -0.3816753    3.7138435  
N    0.5448156    0.4573574    3.6934124  
C   -1.0945674   -0.9182058    4.8835240  
C   -2.1210866   -1.7789155    4.6970523  
O   -2.8083856   -2.3554314    5.6976972  
C   -2.5824069   -2.1655116    3.3310774  
O   -3.5227682   -2.9541547    3.2362962  
C   -1.9100805   -1.6015804    2.1470656  
H   -0.7567140   -0.6349833    5.8697035  
H   -3.4728268   -2.9124471    5.2533954  
H   -2.2742832   -1.9066565    1.1752040  
H    1.6189533    1.3585343    2.0405121  
