64

C    0.1451901   -0.6002304   -9.6580529  
C   -0.3433008    0.6434121   -9.3306425  
C    0.0633026    1.5362728  -10.3660516  
C    0.8030941    0.7741200  -11.3061348  
N    0.8353027   -0.5184607  -10.8448168  
C    1.3596724    1.3316203  -12.4612128  
C    1.1656462    2.6830690  -12.6712582  
O    1.6871787    3.2784753  -13.7832430  
C    0.4307590    3.4603558  -11.7446613  
O    0.3256938    4.7906207  -12.0949485  
C   -0.1183722    2.9110887  -10.6047996  
H    1.2812938   -1.2892142  -11.3085107  
H    1.9246742    0.7561950  -13.1815310  
H    1.4389789    4.2108843  -13.7355460  
H   -0.1847505    5.2441963  -11.4172174  
H   -0.6761708    3.5316228   -9.9132239  
H    0.0571542   -1.5388305   -9.1382082  
C   -0.0037890   -0.7105352   -5.1341627  
C   -1.0641734    0.0073898   -4.6315339  
C   -1.6260116    0.7376864   -5.7203887  
C   -0.8603259    0.4225625   -6.8720603  
N    0.1176069   -0.4577634   -6.4805354  
C   -1.1316217    0.9642909   -8.1321067  
C   -2.1954372    1.8398547   -8.2314161  
O   -2.5045526    2.3976096   -9.4382181  
C   -2.9709732    2.1669368   -7.0937087  
O   -3.9953212    3.0532721   -7.3553653  
C   -2.7037390    1.6330952   -5.8502755  
H    0.8069750   -0.8660647   -7.0855499  
H   -3.2684088    2.9694078   -9.2871062  
H   -4.4693375    3.2210039   -6.5351347  
H   -3.3151855    1.9024709   -4.9970181  
H    0.6764268   -1.3817965   -4.6385081  
C    1.1319248    0.0015675   -0.8009270  
C    0.7969916    0.0034959   -2.1169404  
C   -0.6453336    0.0035703   -2.1842672  
C   -1.1266831    0.0015415   -0.7896027  
N    0.0000000    0.0000000    0.0000000  
C   -2.4346129    0.0013924   -0.4276297  
C   -3.4350110    0.0031352   -1.4820184  
O   -4.6384610    0.0030897   -1.2583919  
C   -2.9478958    0.0050460   -2.9661075  
O   -3.7809377    0.0062160   -3.8623775  
C   -1.5113821    0.0053068   -3.2312125  
H    1.4821240    0.0045436   -2.9459192  
H   -2.7664565    0.0000185    0.6013447  
H    2.1104318    0.0009428   -0.3488058  
C    0.8576279    0.7185626    2.2703808  
C    0.0000000    0.0000000    1.4700000  
C   -0.8668858   -0.7285659    2.3373528  
C   -0.4876752   -0.4117774    3.6669281  
N    0.5635254    0.4678311    3.5902241  
C   -1.1297612   -0.9515493    4.7854808  
C   -2.1738724   -1.8268314    4.5576857  
O   -2.8357962   -2.3827064    5.6140350  
C   -2.5667212   -2.1555554    3.2384331  
O   -3.6226318   -3.0413663    3.1773122  
C   -1.9335634   -1.6236449    2.1344818  
H    1.0363952    0.8769718    4.3757045  
H   -0.8454472   -0.7142436    5.8013813  
H   -3.5178062   -2.9546422    5.2385129  
H   -3.8247440   -3.2102924    2.2519915  
H   -2.2566033   -1.8942483    1.1360343  
H    1.6567807    1.3889844    2.0042067  
