60

C    6.4273598   -0.0171871   -6.5182276  
C    7.1773478   -0.0279529   -7.6714270  
C    8.5480228   -0.0177217   -7.2767805  
C    8.5727209   -0.0009601   -5.8586707  
N    7.2684536    0.0008709   -5.4303012  
C    9.7616431    0.0122307   -5.1230888  
C   10.9472306    0.0081247   -5.8319915  
O   12.1372600    0.0201644   -5.1636379  
C   10.9431655   -0.0081520   -7.2471009  
O   12.2042447   -0.0098586   -7.8065858  
C    9.7706417   -0.0208980   -7.9734285  
H    6.7848019   -0.0404073   -8.6737974  
H    9.7872285    0.0251766   -4.0421731  
H   12.8291329    0.0150161   -5.8378418  
H   12.1121226   -0.0212346   -8.7641805  
H    9.7989695   -0.0330584   -9.0567226  
H    5.3590028   -0.0195151   -6.3856879  
C    6.8354437    0.0008786   -4.0255229  
C    5.5758874    0.0005992   -3.5179853  
C    5.7016159    0.0007905   -2.0795737  
C    7.1480382    0.0012363   -1.7886223  
N    7.7802454    0.0008701   -3.0105895  
C    7.6812948    0.0019202   -0.5406876  
C    6.7698185    0.0020122    0.5914547  
O    7.1520245    0.0025452    1.7543043  
C    5.2340022    0.0012939    0.3067212  
O    4.4569006    0.0010578    1.2519059  
C    4.7795901    0.0008674   -1.0815733  
H    4.6629022    0.0001117   -4.0863787  
H    8.7453470    0.0023682   -0.3491099  
H    8.7747876    0.0025946   -3.1444910  
C    3.3321168    0.0004716   -1.3379341  
C    2.6974177    0.0000118   -2.5332316  
C    1.2800432   -0.0002116   -2.2052842  
C    1.2395033    0.0000644   -0.7271298  
N    2.4394059    0.0005460   -0.2131041  
C    0.0000000    0.0000000    0.0000000  
C   -1.1468704    0.0000635   -0.7169542  
O   -2.3742206    0.0000074   -0.1695488  
C   -1.1388774    0.0001608   -2.2096352  
O   -2.2206238    0.0000906   -2.7970409  
C    0.1454514    0.0001818   -2.9324241  
H    3.1367978   -0.0000649   -3.5160956  
H   -2.9844350    0.0001027   -0.9290164  
H    0.1083567    0.0003684   -4.0135594  
C    0.8400945    0.7047457    2.2710304  
C    0.0000000    0.0000000    1.4700000  
C   -0.8844236   -0.7423113    2.3369512  
C   -0.4878984   -0.4098547    3.7186280  
N    0.5629682    0.4714286    3.6095011  
C   -1.0836927   -0.9095027    4.8308716  
C   -2.1891196   -1.8367527    4.6554461  
O   -2.7906899   -2.3413415    5.5944904  
C   -2.6257283   -2.2031529    3.2011665  
O   -3.5549479   -2.9829990    3.0410059  
C   -1.9068976   -1.5999348    2.0816745  
H   -0.7774656   -0.6525820    5.8354244  
H   -2.2155208   -1.8586617    1.0779135  
H    1.6384792    1.3747609    1.9961646  
H    1.0518368    0.8833920    4.3830260  
