62

C    7.1971040   -3.6340404   -3.3454928  
C    6.8242361   -3.0369665   -4.5274151  
C    7.7247937   -3.5020262   -5.5310660  
C    8.6329320   -4.3881988   -4.8971033  
N    8.2854777   -4.4441707   -3.5701672  
C    9.6624739   -5.0364746   -5.5859938  
C    9.7771604   -4.7858299   -6.9395832  
O   10.7645050   -5.3927374   -7.6605705  
C    8.8809468   -3.9045517   -7.5899415  
O    9.1261503   -3.7586978   -8.9397359  
C    7.8652114   -3.2644555   -6.9109093  
H    8.7452175   -5.0013037   -2.8728698  
H   10.3579777   -5.7129107   -5.1085948  
H   10.6669532   -5.0841706   -8.5708092  
H    8.4772373   -3.1480257   -9.3024959  
H    7.1941826   -2.5947251   -7.4359417  
H    6.7736905   -3.5450103   -2.3597172  
C    5.7052414   -2.0986832   -4.6958680  
C    4.8302126   -1.6343308   -3.7670099  
C    3.9272648   -0.7382851   -4.4501080  
C    4.3509914   -0.7185532   -5.8632098  
N    5.4336782   -1.5634475   -5.9458741  
C    3.7483765    0.0103197   -6.8365049  
C    2.6063696    0.8302497   -6.4676277  
O    1.9959432    1.5225187   -7.2716453  
C    2.1405130    0.8248035   -4.9767376  
O    1.1803930    1.5114043   -4.6542318  
C    2.8699641   -0.0020530   -4.0185824  
H    4.8187254   -1.8901546   -2.7224838  
H    4.0749498    0.0105278   -7.8671645  
H    5.9462301   -1.7623466   -6.7853838  
C    3.2573670   -0.0002921   -1.5109382  
C    2.5379468   -0.0001711   -0.3591962  
C    1.1435043    0.0000330   -0.7338498  
C    1.1092608   -0.0000085   -2.2088474  
N    2.4227562    0.0001906   -2.6182610  
C   -0.0265533   -0.0002525   -2.9515663  
C   -1.3003033   -0.0002641   -2.2514979  
O   -2.3786785   -0.0004132   -2.8306425  
C   -1.2877724    0.0000310   -0.6895608  
O   -2.3539956    0.0003306   -0.0892035  
C    0.0000000    0.0000000    0.0000000  
H    2.9384091   -0.0000370    0.6389240  
H   -0.0296290   -0.0004088   -4.0327231  
H    4.3270394   -0.0004767   -1.6439445  
C    2.5311839    2.1237619    3.0120429  
C    1.9795631    1.6616747    1.8395852  
C    0.9223175    0.7739173    2.1983588  
C    0.8753926    0.7337535    3.6154372  
N    1.8668922    1.5631002    4.0777464  
C   -0.0496243   -0.0427881    4.3197917  
C   -0.9437528   -0.7922060    3.5801400  
O   -1.8685244   -1.5680278    4.2172520  
C   -0.9124520   -0.7656372    2.1655264  
O   -1.8671164   -1.5663939    1.5732860  
C    0.0000000    0.0000000    1.4700000  
H    2.3005065    1.9304404    0.8477417  
H    2.0679347    1.7444845    5.0445261  
H   -0.0904770   -0.0778569    5.3997470  
H   -2.3849669   -2.0011402    3.5251786  
H   -1.7775064   -1.4909735    0.6183591  
H    3.3468514    2.8078103    3.1724291  
