62

C    1.2760939   -2.3713338   -7.8043434  
C    0.8465255   -1.0681501   -7.7061050  
C    1.1577898   -0.4326674   -8.9446021  
C    1.7813636   -1.4059736   -9.7666469  
N    1.8391637   -2.5711643   -9.0430393  
C    2.2233165   -1.1293020  -11.0639203  
C    2.0320207    0.1531991  -11.5401285  
O    2.4443134    0.4774313  -12.8002495  
C    1.4121731    1.1382199  -10.7349336  
O    1.2942432    2.3666966  -11.3516039  
C    0.9761719    0.8660563   -9.4549508  
H    2.2204537   -3.4399397   -9.3714121  
H    2.6994296   -1.8666486  -11.6954580  
H    2.2188629    1.4077539  -12.9303891  
H    0.8657735    2.9738601  -10.7405634  
H    0.5049952    1.6410476   -8.8617744  
H    1.2266764   -3.1737117   -7.0883082  
C    0.5332462   -0.7193579   -5.2240418  
C   -0.2963293   -0.0005341   -4.3948471  
C   -1.1923437    0.7280151   -5.2320894  
C   -0.8589933    0.4109475   -6.5738313  
N    0.1940940   -0.4688039   -6.5330672  
C   -1.5389808    0.9506272   -7.6698017  
C   -2.5745421    1.8261022   -7.4064881  
O   -3.2722204    2.3818984   -8.4396146  
C   -2.9218749    2.1551056   -6.0745971  
O   -3.9749427    3.0410833   -5.9774569  
C   -2.2513097    1.6232859   -4.9929146  
H   -1.2897040    0.7131092   -8.6948127  
H   -3.9408710    2.9539986   -8.0410249  
H   -4.1451821    3.2101943   -5.0457795  
H   -2.5398838    1.8941046   -3.9840238  
H    1.3409609   -1.3898538   -4.9853120  
C    3.1301146   -0.0010313   -1.7028256  
C    2.5367765   -0.0002766   -0.4864669  
C    1.1089901    0.0001027   -0.7656184  
C    1.0177865   -0.0004150   -2.2415133  
N    2.1993571   -0.0011612   -2.7963824  
C   -0.2459219   -0.0002879   -2.9257116  
C   -1.3675326   -0.0000606   -2.1698520  
O   -2.6129318    0.0000865   -2.6748483  
C   -1.3083588    0.0000910   -0.6783229  
O   -2.3693264    0.0004206   -0.0541685  
C    0.0000000    0.0000000    0.0000000  
H    3.0096016   -0.0001007    0.4807518  
H   -3.1967444    0.0002093   -1.8949026  
H    4.1849275   -0.0015114   -1.9271979  
C    0.8681109    0.7263879    2.2709268  
C    0.6127770    0.5096195    3.5869401  
C   -0.4920590   -0.4175482    3.6542670  
C   -0.8620974   -0.7254003    2.2596025  
N    0.0000000    0.0000000    1.4700000  
C   -1.8641242   -1.5660088    1.8976294  
C   -2.6293522   -2.2103885    2.9520183  
O   -3.5512764   -2.9839180    2.7283916  
C   -2.2549728   -1.8987399    4.4361073  
O   -2.8923672   -2.4351063    5.3323774  
C   -1.1543735   -0.9755647    4.7012123  
H    1.1382914    0.9492124    4.4159191  
H   -2.1192137   -1.7782617    0.8686553  
H   -0.9013378   -0.7652422    5.7314848  
H    1.6172880    1.3558399    1.8188057  
