64

C   -3.9681760    0.7212744   -2.0574947  
C   -3.2578640    0.0024079   -2.9908519  
C   -4.2079297   -0.7249017   -3.7673801  
C   -5.4928326   -0.4070687   -3.2575436  
N   -5.3109881    0.4719255   -2.2188336  
C   -6.6702836   -0.9454663   -3.7852996  
C   -6.5484320   -1.8204218   -4.8472710  
O   -7.6659796   -2.3749699   -5.4009652  
C   -5.2751703   -2.1501730   -5.3696545  
O   -5.3203501   -3.0354960   -6.4267761  
C   -4.1131448   -1.6196191   -4.8493323  
H   -6.0450843    0.8815544   -1.6699366  
H   -7.3607867   -2.9469036   -6.1172150  
H   -4.4199158   -3.2051809   -6.7200835  
H   -3.1520866   -1.8909865   -5.2702893  
H   -3.6231025    1.3910351   -1.2885322  
C    0.0000000    0.0000000    0.0000000  
C    1.0521674   -0.0011914   -0.8862336  
C    0.4917224   -0.0011964   -2.1979128  
C   -0.9187417    0.0003160   -2.0478686  
N   -1.1833166   -0.0009394   -0.7007917  
C   -1.7951687    0.0010372   -3.1372096  
C   -1.2375824    0.0005238   -4.4010427  
O   -2.0474192    0.0015381   -5.4997588  
C    0.1673601   -0.0013574   -4.5711963  
O    0.5673543   -0.0020699   -5.8915549  
C    1.0325779   -0.0023427   -3.4969886  
H    2.0953061   -0.0030676   -0.6200555  
H   -2.0989773    0.0102401   -0.2891830  
H   -1.4634864    0.0006510   -6.2693600  
H    1.5290739   -0.0033178   -5.9180040  
H    2.1042166   -0.0039640   -3.6584446  
C   -8.4246346    0.6226566   -2.8527072  
C   -8.0057169   -0.6217655   -3.2630591  
C   -9.1050484   -1.5121976   -3.0808472  
C  -10.1765800   -0.7478276   -2.5521847  
N   -9.7290683    0.5436778   -2.4242633  
C  -11.4233615   -1.3026148   -2.2479869  
C  -11.5915980   -2.6535794   -2.4820140  
O  -12.7890314   -3.2463750   -2.2031606  
C  -10.5343121   -3.4330530   -3.0086882  
O  -10.8581635   -4.7625037   -3.1848244  
C   -9.3039795   -2.8864622   -3.3087666  
H  -10.2735448    1.3155278   -2.0840069  
H  -12.2440354   -0.7254911   -1.8447214  
H  -12.6929372   -4.1789042   -2.4364446  
H  -10.0902054   -5.2176771   -3.5435180  
H   -8.5130219   -3.5086282   -3.7109774  
H   -7.8957002    1.5600413   -2.8304013  
C    1.0672568    0.0000697    2.3021913  
C    0.0000000    0.0000000    1.4700000  
C   -1.1601224    0.0000736    2.3478473  
C   -0.5938729    0.0000769    3.7138435  
N    0.7113367    0.0001554    3.6934124  
C   -1.4286986    0.0001879    4.8835240  
C   -2.7683114    0.0006799    4.6970523  
O   -3.6653903    0.0008304    5.6976972  
C   -3.3702025    0.0010610    3.3310774  
O   -4.5974910    0.0013779    3.2362962  
C   -2.4926826    0.0008943    2.1470656  
H   -0.9878360   -0.0000190    5.8697035  
H   -4.5324246    0.0012261    5.2533954  
H   -2.9677772    0.0012974    1.1752040  
H    2.1134392    0.0000545    2.0405121  
