64

C    0.6936364   -0.7066092   -5.1527423  
C    0.3462075   -0.4553039   -6.4598788  
C   -0.7528349    0.4534785   -6.4312305  
C   -1.0341488    0.7235441   -5.0674660  
N   -0.1387078    0.0017020   -4.3179686  
C   -2.0601483    1.5827608   -4.6626688  
C   -2.8157353    2.1804681   -5.6526245  
O   -3.8298699    3.0285554   -5.3130769  
C   -2.5506562    1.9232747   -7.0187873  
O   -3.3906535    2.5937332   -7.8837924  
C   -1.5388172    1.0755385   -7.4188523  
H    0.8251967   -0.8761773   -7.3273058  
H   -2.2797241    1.7926347   -3.6249113  
H   -4.2227235    3.3302846   -6.1424690  
H   -3.1443863    2.3650610   -8.7852723  
H    1.4683925   -1.3361781   -4.7498095  
C    3.3041276    0.0001172   -1.5420425  
C    2.5845373   -0.0004780   -0.3695850  
C    1.2040005   -0.0000006   -0.7283594  
C    1.1422376    0.0006036   -2.1454376  
N    2.4348643    0.0026109   -2.6077465  
C   -0.0655178    0.0008799   -2.8497917  
C   -1.2321765    0.0002326   -2.1101405  
O   -2.4392812    0.0001152   -2.7472524  
C   -1.1911209   -0.0000006   -0.6955270  
O   -2.4371527   -0.0002315   -0.1032863  
C    0.0000000    0.0000000    0.0000000  
H    3.0031535   -0.0000663    0.6222585  
H    2.7054635   -0.0071100   -3.5745262  
H   -3.1132985   -0.0000644   -2.0551792  
H   -2.3200282   -0.0004068    0.8516404  
H    4.3686626    0.0004069   -1.7024289  
C   -0.9752704   -0.3788541   -9.4122521  
C   -1.2956341    0.8343652   -8.8483966  
C   -1.3407013    1.7873805   -9.9087410  
C   -1.0370475    1.0915866  -11.1069028  
N   -0.8186320   -0.2210517  -10.7694225  
C   -0.9915757    1.7194584  -12.3553012  
C   -1.2577833    3.0743538  -12.3949238  
O   -1.2272795    3.7370574  -13.5877810  
C   -1.5623939    3.7860506  -11.2102233  
O   -1.8032053    5.1289813  -11.4148985  
C   -1.6071642    3.1673398   -9.9782660  
H   -0.5933039   -0.9564265  -11.4147383  
H   -0.7606272    1.1948197  -13.2721544  
H   -1.4385424    4.6594255  -13.3931800  
H   -2.0008397    5.5354405  -10.5655840  
H   -1.8431703    3.7386240   -9.0880897  
H   -0.8447058   -1.3439809   -8.9535124  
C    2.4951002    2.0940188    2.9809380  
C    1.9440701    1.6314916    1.8291961  
C    0.8759964    0.7350050    2.2038498  
C    0.8497377    0.7130254    3.6788474  
N    1.8560616    1.5571714    4.0882609  
C   -0.0205033   -0.0168748    4.4215661  
C   -0.9962600   -0.8356168    3.7214979  
O   -1.8224391   -1.5286685    4.3006425  
C   -0.9864710   -0.8277881    2.1595606  
O   -1.8030528   -1.5133726    1.5592035  
C    0.0000000    0.0000000    1.4700000  
H    2.2509283    1.8888011    0.8310761  
H   -0.0229599   -0.0187323    5.5027230  
H    3.3143982    2.7817323    3.1139444  
H    2.0889452    1.7545833    5.0442112  
