64

C    0.8391157   -0.0046478   -7.7586928  
C   -0.2161348   -0.0031137   -6.8761330  
C   -1.4107663   -0.0039878   -7.6555266  
C   -1.0184271   -0.0063645   -9.0186072  
N    0.3541201   -0.0047562   -9.0455989  
C   -1.9392991   -0.0080847  -10.0706442  
C   -3.2806708   -0.0076999   -9.7406463  
O   -4.2223220   -0.0096734  -10.7287273  
C   -3.6918570   -0.0049661   -8.3864910  
O   -5.0615735   -0.0045072   -8.2214994  
C   -2.7839464   -0.0029948   -7.3481177  
H   -0.1348639   -0.0004511   -5.8026428  
H    0.9182684   -0.0163742   -9.8760114  
H   -1.6467124   -0.0097551  -11.1116017  
H   -5.0815162   -0.0087048  -10.2870844  
H   -5.2543794   -0.0026404   -7.2789358  
H   -3.1287741   -0.0007356   -6.3207096  
C    3.0267439   -0.0008952   -3.9901698  
C    4.3139890   -0.0013046   -4.4079961  
C    4.2367748   -0.0025853   -5.8607646  
C    2.7880405   -0.0029129   -6.1569950  
N    2.0737437   -0.0018452   -5.0643975  
C    2.2868486   -0.0040739   -7.5038028  
C    3.1918041   -0.0044824   -8.5089851  
O    2.8655066   -0.0055571   -9.8126599  
C    4.6604883   -0.0037972   -8.2422898  
O    5.4265656   -0.0043474   -9.2057970  
C    5.1496323   -0.0026520   -6.8520872  
H    5.2057783   -0.0007094   -3.8048486  
H    3.7192782   -0.0055654  -10.2819432  
H    6.2208236   -0.0020677   -6.7011578  
C    3.3003547    0.0005275   -1.4738985  
C    2.5232817    0.0003496   -2.6090745  
C    1.1623204   -0.0001319   -2.1820101  
C    1.1711885    0.0000583   -0.7636140  
N    2.4852303   -0.0014920   -0.3662357  
C    0.0000000    0.0000000    0.0000000  
C   -1.2020382    0.0000520   -0.6806479  
O   -2.3759248    0.0003494    0.0157744  
C   -1.2314653   -0.0005113   -2.0955511  
O   -2.5054389   -0.0008038   -2.6250185  
C   -0.0764511   -0.0007273   -2.8495194  
H    2.8036269    0.0088181    0.5858664  
H   -3.0835637    0.0000348   -0.6418823  
H   -2.4360044   -0.0011528   -3.5845926  
H   -0.1304090   -0.0013422   -3.9319089  
H    4.3715553    0.0004894   -1.3667132  
C    2.5285572    2.1210227    2.9438989  
C    1.9331703    1.6216660    4.0790748  
C    0.8903039    0.7472258    3.6520102  
C    0.8972198    0.7527806    2.2336141  
N    1.9028376    1.5986179    1.8362361  
C    0.0000000    0.0000000    1.4700000  
C   -0.9207814   -0.7726952    2.1506477  
O   -1.8198395   -1.5274828    1.4542253  
C   -0.9436862   -0.7911793    3.5655508  
O   -1.9197945   -1.6098497    4.0950179  
C   -0.0590329   -0.0485852    4.3195194  
H    2.2150357    1.8593692    5.0905303  
H    2.1533708    1.7953814    0.8841339  
H   -2.3621246   -1.9821033    2.1118817  
H   -1.8668290   -1.5649508    5.0545920  
H   -0.1007624   -0.0827977    5.4019087  
H    3.3491200    2.8096064    2.8367138  
