62

C    5.1649285   -1.1191915   -7.1498267  
C    5.9628198   -0.7452869   -8.2062515  
C    5.7791971    0.6571553   -8.3907458  
C    4.8502764    1.0879721   -7.4092018  
N    4.4960352   -0.0158401   -6.6738591  
C    4.4332523    2.4175336   -7.2945449  
C    4.9638611    3.3288438   -8.1868145  
O    4.5912776    4.6401884   -8.1192254  
C    5.8916696    2.9182304   -9.1734179  
O    6.3281506    3.9434205   -9.9869376  
C    6.3033176    1.6067022   -9.2872851  
H    6.5981150   -1.4027066   -8.7747524  
H    3.7254702    2.7522454   -6.5487470  
H    5.0715840    5.0970729   -8.8219542  
H    6.9510821    3.5815132  -10.6245760  
H    7.0151696    1.3219054  -10.0532068  
H    5.0189569   -2.0858872   -6.6991056  
C    4.5294737   -2.1111778   -2.7873602  
C    4.8355748   -1.6481497   -4.0267077  
C    3.7722452   -0.7522110   -4.4158856  
C    2.8147156   -0.7310541   -3.2936206  
N    3.3317090   -1.5757412   -2.3385758  
C    1.6707636   -0.0012343   -3.2725974  
C    1.3618921    0.8179366   -4.4328097  
O    0.3558259    1.5108613   -4.5101842  
C    2.3616939    0.8105939   -5.6328715  
O    2.1121098    1.4960722   -6.6152601  
C    3.5619235   -0.0167230   -5.5388102  
H    5.7067350   -1.9050624   -4.6026323  
H    5.0780201   -2.7986807   -2.1642014  
H    2.9056661   -1.7713787   -1.4512985  
C    1.0965514    0.0001358   -0.8010306  
C    0.0000000    0.0000000    0.0000000  
C   -1.1546565    0.0001470   -0.8669508  
C   -0.6372019    0.0003520   -2.2486278  
N    0.7342867    0.0007338   -2.1395012  
C   -1.4147744    0.0001354   -3.3608712  
C   -2.8576052   -0.0001047   -3.1854454  
O   -3.6427785   -0.0002490   -4.1244896  
C   -3.4275841   -0.0000727   -1.7311660  
O   -4.6406832    0.0000333   -1.5710049  
C   -2.4891868   -0.0001090   -0.6116739  
H   -1.0150456    0.0001617   -4.3654239  
H   -2.8919122   -0.0002919    0.3920871  
H    2.1388270    0.0000663   -0.5261650  
C    2.5311839    2.1237619    3.0120429  
C    1.9795631    1.6616747    1.8395852  
C    0.9223175    0.7739173    2.1983588  
C    0.8753926    0.7337535    3.6154372  
N    1.8668922    1.5631002    4.0777464  
C   -0.0496243   -0.0427881    4.3197917  
C   -0.9437528   -0.7922060    3.5801400  
O   -1.8685244   -1.5680278    4.2172520  
C   -0.9124520   -0.7656372    2.1655264  
O   -1.8671164   -1.5663939    1.5732860  
C    0.0000000    0.0000000    1.4700000  
H    2.3005065    1.9304404    0.8477417  
H    2.0679347    1.7444845    5.0445261  
H   -0.0904770   -0.0778569    5.3997470  
H   -2.3849669   -2.0011402    3.5251786  
H   -1.7775064   -1.4909735    0.6183591  
H    3.3468514    2.8078103    3.1724291  
