62

C    3.3041266    0.0001180   -1.5420446  
C    2.5845369   -0.0004778   -0.3695869  
C    1.2040002   -0.0000006   -0.7283594  
C    1.1422366    0.0006040   -2.1454379  
N    2.4348631    0.0026117   -2.6077477  
C   -0.0655191    0.0008802   -2.8497920  
C   -1.2321776    0.0002326   -2.1101397  
O   -2.4392825    0.0001152   -2.7472516  
C   -1.1911211   -0.0000006   -0.6955258  
O   -2.4371525   -0.0002320   -0.1032853  
C    0.0000000    0.0000000    0.0000000  
H    3.0031538   -0.0000658    0.6222569  
H    2.7054615   -0.0071091   -3.5745273  
H   -3.1132998   -0.0000647   -2.0551775  
H   -2.3200276   -0.0004073    0.8516414  
H    4.3686615    0.0004077   -1.7024308  
C    2.1731786   -2.0070813   -6.1392851  
C    1.7797909   -1.6263714   -4.9015913  
C    0.6726040   -0.7095540   -5.1253816  
C    0.5289359   -0.6505898   -6.5959141  
N    1.4057873   -1.4091980   -7.1956094  
C   -0.4729140    0.1609538   -7.2305644  
C   -1.2941680    0.8805682   -6.4324222  
O   -2.2730599    1.6802757   -6.8887992  
C   -1.1744877    0.8418720   -4.9450283  
O   -1.9557877    1.5227175   -4.2807693  
C   -0.1387098    0.0017024   -4.3179683  
H    2.1901946   -1.9302425   -3.9538007  
H   -0.5551532    0.1851929   -8.3073930  
H   -2.6812858    2.0546319   -6.0873242  
C    4.0787784   -3.5798980   -5.6343680  
C    3.2587564   -2.9302294   -6.5001444  
C    3.6585981   -3.3200472   -7.8316864  
C    4.7868541   -4.2568136   -7.6695218  
N    4.9921560   -4.3715125   -6.3139463  
C    5.4461454   -4.8514104   -8.6959208  
C    5.0159369   -4.5483596  -10.0507700  
O    5.5457864   -5.0331169  -11.0420173  
C    3.8232770   -3.5587888  -10.2460081  
O    3.4524110   -3.2958003  -11.3820349  
C    3.1919666   -2.9813548   -9.0620029  
H    6.2712659   -5.5357301   -8.5552347  
H    2.3667062   -2.2972514   -9.2057811  
H    4.0928278   -3.5468074   -4.5570576  
H    5.6956834   -4.9438565   -5.8843895  
C    2.5311839    2.1237619    3.0120429  
C    1.9795631    1.6616747    1.8395852  
C    0.9223175    0.7739173    2.1983588  
C    0.8753926    0.7337535    3.6154372  
N    1.8668922    1.5631002    4.0777464  
C   -0.0496243   -0.0427881    4.3197917  
C   -0.9437528   -0.7922060    3.5801400  
O   -1.8685244   -1.5680278    4.2172520  
C   -0.9124520   -0.7656372    2.1655264  
O   -1.8671164   -1.5663939    1.5732860  
C    0.0000000    0.0000000    1.4700000  
H    2.3005065    1.9304404    0.8477417  
H    2.0679347    1.7444845    5.0445261  
H   -0.0904770   -0.0778569    5.3997470  
H   -2.3849669   -2.0011402    3.5251786  
H   -1.7775064   -1.4909735    0.6183591  
H    3.3468514    2.8078103    3.1724291  
