64

C    4.6667664   -0.6232055   -7.4666220  
C    5.7559172   -0.5531080   -8.3040605  
C    5.8583415    0.8006884   -8.7414903  
C    4.7956623    1.5163003   -8.1327699  
N    4.0904394    0.6214828   -7.3668848  
C    4.5879877    2.8832947   -8.3401034  
C    5.4693134    3.5399066   -9.1769450  
O    5.3129000    4.8749782   -9.4138650  
C    6.5355354    2.8431615   -9.7938198  
O    7.3259710    3.6368171  -10.5992165  
C    6.7408535    1.4945303   -9.5899467  
H    6.3970003   -1.3766761   -8.5681475  
H    3.7798786    3.4344457   -7.8792420  
H    6.0235712    5.1304782  -10.0163020  
H    8.0213829    3.0896679  -10.9768876  
H    7.5661441    0.9877413  -10.0762988  
H    4.2545851   -1.4628848   -6.9337015  
C    2.8410616   -0.7209468   -3.3424825  
C    1.6707636   -0.0012343   -3.2725974  
C    1.5557837    0.7262496   -4.4941321  
C    2.6948099    0.4076464   -5.2770987  
N    3.4554131   -0.4719556   -4.5474407  
C    2.9129639    0.9459794   -6.5488675  
C    1.9638377    1.8216618   -7.0392925  
O    2.1270880    2.3761830   -8.2757677  
C    0.8208862    2.1521881   -6.2729831  
O   -0.0311443    3.0381774   -6.8994107  
C    0.6051596    1.6216976   -5.0181650  
H    4.3199272   -0.8821911   -4.8512550  
H    1.3626831    2.9486839   -8.4213476  
H   -0.7762636    3.2083607   -6.3150826  
H   -0.2796645    1.8936672   -4.4546067  
H    3.2868719   -1.3910851   -2.6275510  
C    1.0965514    0.0001358   -0.8010306  
C    0.0000000    0.0000000    0.0000000  
C   -1.1546565    0.0001470   -0.8669508  
C   -0.6372019    0.0003520   -2.2486278  
N    0.7342867    0.0007338   -2.1395012  
C   -1.4147744    0.0001354   -3.3608712  
C   -2.8576052   -0.0001047   -3.1854454  
O   -3.6427785   -0.0002490   -4.1244896  
C   -3.4275841   -0.0000727   -1.7311660  
O   -4.6406832    0.0000333   -1.5710049  
C   -2.4891868   -0.0001090   -0.6116739  
H   -1.0150456    0.0001617   -4.3654239  
H   -2.8919122   -0.0002919    0.3920871  
H    2.1388270    0.0000663   -0.5261650  
C    0.0000000    0.0000000    1.4700000  
C    1.0521667    0.0011902    2.3562342  
C    0.4917218    0.0011957    3.6679131  
C   -0.9187428   -0.0003148    3.5178682  
N   -1.1833171    0.0009411    2.1707914  
C   -1.7951701   -0.0010350    4.6072090  
C   -1.2375837   -0.0005224    5.8710424  
O   -2.0474215   -0.0015360    6.9697579  
C    0.1673580    0.0013566    6.0411963  
O    0.5673524    0.0020687    7.3615553  
C    1.0325770    0.0023412    4.9669890  
H    2.0953057    0.0030649    2.0900562  
H   -2.0989778   -0.0102372    1.7591824  
H   -2.8710934   -0.0020419    4.4995513  
H   -1.4634884   -0.0006497    7.7393593  
H    1.5290710    0.0033153    7.3880045  
H    2.1042148    0.0039609    5.1284455  
