62

C    4.7352192   -0.6917185   -8.8612130  
C    4.2280221    0.5609077   -8.6040238  
C    4.7338111    1.4305756   -9.6151882  
C    5.5506123    0.6456665  -10.4688158  
N    5.5311974   -0.6375610   -9.9814066  
C    6.2142039    1.1768217  -11.5789108  
C    6.0500084    2.5248330  -11.8320571  
O    6.6750502    3.0949435  -12.9031827  
C    5.2394311    3.3245760  -10.9917053  
O    5.1764501    4.6481067  -11.3759492  
C    4.5847016    2.8013056   -9.8962396  
H    6.0119486   -1.4198998  -10.3873690  
H    6.8382838    0.5839680  -12.2333208  
H    6.4303566    4.0294726  -12.8964984  
H    4.6096909    5.1179830  -10.7565918  
H    3.9707455    3.4386427   -9.2706705  
H    4.5933166   -1.6192067   -8.3333989  
C    4.1774648   -0.7039258   -4.3991482  
C    3.1006054    0.0006263   -3.9654951  
C    2.5992402    0.7428151   -5.0980253  
C    3.4785677    0.4104974   -6.2351876  
N    4.4147929   -0.4705967   -5.7452437  
C    3.3361161    0.9100879   -7.4889113  
C    2.2439823    1.8371251   -7.7346382  
O    2.0321276    2.3416470   -8.8295708  
C    1.3005628    2.2033754   -6.5448385  
O    0.3778221    2.9830422   -6.7395981  
C    1.5546719    1.6002372   -5.2388884  
H    0.8967558    1.8588594   -4.4203627  
H    4.8177812   -1.3738064   -3.8485622  
H    5.1550885   -0.8824329   -6.2832025  
C    3.2798083    0.0005857   -1.4499652  
C    2.5571142    0.0005565   -2.5996556  
C    1.1637432    0.0001548   -2.2210361  
C    1.1336964   -0.0000200   -0.7459473  
N    2.4483512   -0.0001428   -0.3402723  
C    0.0000000    0.0000000    0.0000000  
C   -1.2757368   -0.0000186   -0.6964415  
O   -2.3524598   -0.0000639   -0.1142311  
C   -1.2676497   -0.0000872   -2.2584083  
O   -2.3355766   -0.0004101   -2.8557295  
C    0.0181558    0.0001758   -2.9516296  
H    0.0150788    0.0003319   -4.0331631  
H    4.3498547    0.0008612   -1.3200026  
H    2.7563626    0.0012823    0.6148059  
C    2.5311839    2.1237619    3.0120429  
C    1.9795631    1.6616747    1.8395852  
C    0.9223175    0.7739173    2.1983588  
C    0.8753926    0.7337535    3.6154372  
N    1.8668922    1.5631002    4.0777464  
C   -0.0496243   -0.0427881    4.3197917  
C   -0.9437528   -0.7922060    3.5801400  
O   -1.8685244   -1.5680278    4.2172520  
C   -0.9124520   -0.7656372    2.1655264  
O   -1.8671164   -1.5663939    1.5732860  
C    0.0000000    0.0000000    1.4700000  
H    2.3005065    1.9304404    0.8477417  
H    2.0679347    1.7444845    5.0445261  
H   -0.0904770   -0.0778569    5.3997470  
H   -2.3849669   -2.0011402    3.5251786  
H   -1.7775064   -1.4909735    0.6183591  
H    3.3468514    2.8078103    3.1724291  
