60

C   -0.0932350    0.7206730   -7.2779964  
C   -1.0551495    0.4719133   -8.2294729  
C   -0.4848825   -0.4355111   -9.1707360  
C    0.8381896   -0.7074104   -8.7377494  
N    1.0442345    0.0120828   -7.5868831  
C    1.6986279   -1.5659677   -9.4286292  
C    1.2145125   -2.1611179  -10.5773696  
O    2.0124391   -3.0084559  -11.2903535  
C   -0.1025841   -1.9020661  -11.0256626  
O   -0.4363780   -2.5700609  -12.1857085  
C   -0.9518880   -1.0549790  -10.3447417  
H   -2.0455975    0.8935697   -8.2440058  
H    2.7081549   -1.7772294   -9.1039361  
H    1.4876532   -3.3083496  -12.0439631  
H   -1.3408900   -2.3402538  -12.4194879  
H   -1.9554344   -0.8757126  -10.7124867  
H   -0.1280479    1.3486044   -6.4042406  
C    1.7334697    0.0049246   -3.2500361  
C    3.0913864    0.0046109   -3.2383151  
C    3.5242787    0.0065419   -4.6157896  
C    2.2984620    0.0080464   -5.4368631  
N    1.2476583    0.0065696   -4.5487757  
C    2.2819760    0.0104505   -6.7938550  
C    3.5566099    0.0114097   -7.4923122  
O    3.6472547    0.0134886   -8.7130007  
C    4.8674242    0.0095955   -6.6428609  
O    5.9464907    0.0100754   -7.2198161  
C    4.7574562    0.0073243   -5.1862365  
H    3.7182532    0.0030068   -2.3644448  
H    5.6697682    0.0062836   -4.6053670  
H    0.2773174    0.0086325   -4.8046684  
C    1.1319247    0.0015655   -0.8009267  
C    0.7969916    0.0034943   -2.1169401  
C   -0.6453337    0.0035710   -2.1842668  
C   -1.1266832    0.0015433   -0.7896026  
N    0.0000000    0.0000000    0.0000000  
C   -2.4346130    0.0013964   -0.4276294  
C   -3.4350109    0.0031408   -1.4820183  
O   -4.6384610    0.0030973   -1.2583915  
C   -2.9478956    0.0050505   -2.9661075  
O   -3.7809378    0.0062218   -3.8623775  
C   -1.5113821    0.0053090   -3.2312122  
H   -2.7664565    0.0000232    0.6013446  
H   -1.1823527    0.0068407   -4.2614846  
H    2.1104317    0.0009391   -0.3488056  
C    2.5528530    2.1414826    2.8079335  
C    2.0663498    1.7338582    4.0032312  
C    0.9804344    0.8229586    3.6752840  
C    0.9495562    0.7966882    2.1971295  
N    1.8690446    1.5676019    1.6831036  
C    0.0000000    0.0000000    1.4700000  
C   -0.8785127   -0.7372425    2.1869543  
O   -1.8187535   -1.5261249    1.6395491  
C   -0.8723269   -0.7321790    3.6796354  
O   -1.7010379   -1.4274584    4.2670412  
C    0.1115397    0.0933559    4.4024240  
H    2.4028853    2.0163452    4.9860947  
H   -2.2861435   -1.9184361    2.3990168  
H    0.0832434    0.0693689    5.4835595  
H    3.3664920    2.8238276    2.6198634  
