62

C    5.0668306   -0.9745786   -7.1911754  
C    4.4032212    0.0996957   -6.6452588  
C    4.7513709    1.2433449   -7.4233712  
C    5.6376381    0.8016822   -8.4389454  
N    5.8093871   -0.5495617   -8.2678923  
C    6.1846503    1.6647883   -9.3932065  
C    5.8302912    2.9979841   -9.3211202  
O    6.3351708    3.8840811  -10.2282815  
C    4.9477183    3.4578901   -8.3149558  
O    4.6924292    4.8122997   -8.3761564  
C    4.4079099    2.6070267   -7.3730614  
H    6.3778407   -1.1402897   -8.8474462  
H    6.8607986    1.3344462  -10.1696721  
H    5.9661496    4.7474946  -10.0011175  
H    4.0885483    5.0405158   -7.6628197  
H    3.7347570    2.9883208   -6.6141421  
H    5.0703461   -2.0100995   -6.8968241  
C    4.6667238   -2.1196647   -2.8289933  
C    3.4946425   -1.6582114   -2.2760432  
C    2.9083433   -0.7691298   -3.2249305  
C    3.7749402   -0.7275420   -4.3470738  
N    4.8336460   -1.5573523   -4.0728946  
C    3.5107105    0.0505387   -5.4782509  
C    2.3503688    0.8000601   -5.4767268  
O    2.0434903    1.5773554   -6.5559172  
C    1.4732999    0.7720842   -4.3664188  
O    0.3602106    1.5731440   -4.5170175  
C    1.7334695    0.0049281   -3.2500363  
H    3.1101422   -1.9282393   -1.3074166  
H    5.6044926   -1.7379800   -4.6902684  
H    1.2045556    2.0102696   -6.3508820  
H   -0.1790694    1.4967106   -3.7239606  
H    5.3975655   -2.8043086   -2.4339086  
C    1.1319246    0.0015678   -0.8009268  
C    0.7969914    0.0034958   -2.1169401  
C   -0.6453340    0.0035696   -2.1842669  
C   -1.1266832    0.0015410   -0.7896025  
N    0.0000000    0.0000000    0.0000000  
C   -2.4346129    0.0013913   -0.4276292  
C   -3.4350111    0.0031335   -1.4820181  
O   -4.6384614    0.0030875   -1.2583914  
C   -2.9478961    0.0050442   -2.9661074  
O   -3.7809382    0.0062135   -3.8623773  
C   -1.5113825    0.0053055   -3.2312122  
H   -2.7664565    0.0000174    0.6013448  
H   -1.1823533    0.0068381   -4.2614848  
H    2.1104316    0.0009435   -0.3488059  
C    2.5128556    2.1077716    2.9199648  
C    1.9592212    1.6432552    4.0696553  
C    0.8915788    0.7479214    3.6910360  
C    0.8684491    0.7287414    2.2159470  
N    1.8754542    1.5738793    1.8102719  
C    0.0000000    0.0000000    1.4700000  
C   -0.9772830   -0.8200135    2.1664417  
O   -1.8021297   -1.5120829    1.5842315  
C   -0.9711318   -0.8147624    3.7284083  
O   -1.7894187   -1.5009653    4.3257297  
C    0.0140216    0.0115358    4.4216297  
H    2.2638494    1.8988021    5.0689105  
H    0.0117648    0.0094386    5.5031631  
H    3.3327358    2.7953732    2.7900019  
H    2.1123206    1.7707734    0.8551938  
