60

C    6.9454237   -3.0441293   -3.8055204  
C    8.0097550   -3.6896276   -4.3911813  
C    8.6245263   -4.4829187   -3.3776004  
C    7.8852277   -4.2795322   -2.1842864  
N    6.8739826   -3.3990300   -2.4787611  
C    8.2091598   -4.9071944   -0.9776806  
C    9.2990828   -5.7558636   -0.9757552  
O    9.6592173   -6.3948685    0.1753273  
C   10.0494168   -5.9713666   -2.1561682  
O   11.1054955   -6.8437712   -1.9920046  
C    9.7305874   -5.3522886   -3.3468061  
H    8.3071978   -3.5989333   -5.4218583  
H    6.1798663   -3.0744218   -1.8300601  
H    7.6498020   -4.7562736   -0.0646940  
H   10.4339868   -6.9300804   -0.0404190  
H   11.5594736   -6.9339035   -2.8354403  
H   10.3239985   -5.5367203   -4.2346830  
C    5.9718892   -2.1066112   -4.3836112  
C    5.8824610   -1.6421421   -5.6565394  
C    4.7503159   -0.7470241   -5.6995007  
C    4.1834490   -0.7279187   -4.3374842  
N    4.9692736   -1.5728895   -3.5882225  
C    3.1006054    0.0006263   -3.9654951  
C    2.4499042    0.8204921   -4.9739311  
O    1.4681172    1.5123811   -4.7379552  
C    3.0331132    0.8153166   -6.4229463  
O    2.4935205    1.5013966   -7.2804980  
C    4.2049168   -0.0107663   -6.7027955  
H    6.5349989   -1.8975853   -6.4723559  
H    4.6026857   -0.0086178   -7.7085287  
H    4.8362807   -1.7697856   -2.6132391  
C    3.2798083    0.0005857   -1.4499652  
C    2.5571142    0.0005565   -2.5996556  
C    1.1637432    0.0001548   -2.2210361  
C    1.1336964   -0.0000200   -0.7459473  
N    2.4483512   -0.0001428   -0.3402723  
C    0.0000000    0.0000000    0.0000000  
C   -1.2757368   -0.0000186   -0.6964415  
O   -2.3524598   -0.0000639   -0.1142311  
C   -1.2676497   -0.0000872   -2.2584083  
O   -2.3355766   -0.0004101   -2.8557295  
C    0.0181558    0.0001758   -2.9516296  
H    0.0150788    0.0003319   -4.0331631  
H    4.3498547    0.0008612   -1.3200026  
H    2.7563626    0.0012823    0.6148059  
C    2.5128556    2.1077716    2.9199648  
C    1.9592212    1.6432552    4.0696553  
C    0.8915788    0.7479214    3.6910360  
C    0.8684491    0.7287414    2.2159470  
N    1.8754542    1.5738793    1.8102719  
C    0.0000000    0.0000000    1.4700000  
C   -0.9772830   -0.8200135    2.1664417  
O   -1.8021297   -1.5120829    1.5842315  
C   -0.9711318   -0.8147624    3.7284083  
O   -1.7894187   -1.5009653    4.3257297  
C    0.0140216    0.0115358    4.4216297  
H    2.2638494    1.8988021    5.0689105  
H    0.0117648    0.0094386    5.5031631  
H    3.3327358    2.7953732    2.7900019  
H    2.1123206    1.7707734    0.8551938  
