62

C   -3.6351213    0.0847386   -8.2669320  
C   -4.6704986    0.0773489   -7.3611686  
C   -5.8821543    0.0854784   -8.1137804  
C   -5.5202021    0.0975374   -9.4851921  
N   -4.1485930    0.0987108   -9.5426668  
C   -6.4642244    0.1076052  -10.5164577  
C   -7.7979326    0.1051533  -10.1567408  
O   -8.7613078    0.1142916  -11.1236116  
C   -8.1789242    0.0935570   -8.7938291  
O   -9.5446351    0.0929668   -8.5984369  
C   -7.2481631    0.0838941   -7.7759312  
H   -4.5653919    0.0684364   -6.2897835  
H   -3.6030461    0.0957164  -10.3854903  
H   -6.1948429    0.1169629  -11.5636196  
H   -9.6104762    0.1109696  -10.6629948  
H   -9.7164483    0.0848098   -7.6518551  
H   -7.5700740    0.0752985   -6.7411477  
C   -1.2456296    0.0472577   -4.5828766  
C    0.0002605    0.0520439   -5.1230708  
C   -0.1629407    0.0660969   -6.5576456  
C   -1.6164595    0.0691564   -6.8107557  
N   -2.2165808    0.0569155   -5.5727758  
C   -2.1820820    0.0818097   -8.0442930  
C   -1.3004434    0.0929473   -9.1997693  
O   -1.7128481    0.1046488  -10.3521949  
C    0.2422766    0.0896871   -8.9552089  
O    0.9944621    0.0986747   -9.9202986  
C    0.7327426    0.0759265   -7.5793069  
H    0.9277601    0.0461944   -4.5787146  
H    1.8022635    0.0739578   -7.4185433  
H   -3.2072924    0.0572149   -5.4129701  
C    1.1243418    0.0099155   -0.7919003  
C    0.7474093    0.0234033   -2.1148542  
C   -0.6787365    0.0234953   -2.1414700  
C   -1.1201738    0.0099357   -0.7935546  
N    0.0000000    0.0000000    0.0000000  
C   -2.4730811    0.0065398   -0.4408241  
C   -3.3971945    0.0173300   -1.4675058  
O   -4.7313507    0.0149490   -1.1793472  
C   -2.9763626    0.0305537   -2.8186325  
O   -4.0166449    0.0397860   -3.7247623  
C   -1.6418538    0.0336381   -3.1673481  
H    1.4178738    0.0310004   -2.9571209  
H   -2.8160170   -0.0039189    0.5845965  
H   -5.1938800    0.0234412   -2.0274384  
H   -3.6464643    0.0484782   -4.6127344  
H    2.1062469    0.0051381   -0.3505407  
C    2.5528530    2.1414826    2.8079335  
C    2.0663498    1.7338582    4.0032312  
C    0.9804344    0.8229586    3.6752840  
C    0.9495562    0.7966882    2.1971295  
N    1.8690446    1.5676019    1.6831036  
C    0.0000000    0.0000000    1.4700000  
C   -0.8785127   -0.7372425    2.1869543  
O   -1.8187535   -1.5261249    1.6395491  
C   -0.8723269   -0.7321790    3.6796354  
O   -1.7010379   -1.4274584    4.2670412  
C    0.1115397    0.0933559    4.4024240  
H    2.4028853    2.0163452    4.9860947  
H   -2.2861435   -1.9184361    2.3990168  
H    0.0832434    0.0693689    5.4835595  
H    3.3664920    2.8238276    2.6198634  
