62

C    0.1695161   -3.2737561  -10.3725861  
C    0.1334916   -2.5922181   -9.1781510  
C   -0.1319570   -1.2251233   -9.4866792  
C   -0.2495813   -1.1320168  -10.8971473  
N   -0.0592028   -2.3934855  -11.4041686  
C   -0.5115795    0.0728292  -11.5563066  
C   -0.6577962    1.2042427  -10.7773968  
O   -0.9149659    2.4068512  -11.3695205  
C   -0.5435746    1.1316395   -9.3686744  
O   -0.7142926    2.3446024   -8.7339149  
C   -0.2848505   -0.0565842   -8.7177416  
H    0.2815427   -3.0267310   -8.2043586  
H   -0.0953300   -2.6395638  -12.3768547  
H   -0.6022498    0.1504717  -12.6309932  
H   -0.9791575    3.0545227  -10.6556117  
H   -0.6217467    2.2075834   -7.7861469  
H    0.3416837   -4.3178780  -10.5703905  
C    2.3446872   -2.1385757   -5.7825615  
C    1.7992131   -1.7303702   -6.9519228  
C    0.7308355   -0.8198481   -6.5697985  
C    0.7735875   -0.7944099   -5.0919255  
N    1.7176446   -1.5654466   -4.6247547  
C   -0.1387079    0.0017019   -4.3179684  
C   -1.0519385    0.7391882   -4.9898753  
O   -1.9638772    1.5275964   -4.3958873  
C   -1.1200789    0.7349605   -6.4810156  
O   -1.9771132    1.4304200   -7.0260375  
C   -0.1732951   -0.0899943   -7.2523616  
H    2.0864381   -2.0122473   -7.9504831  
H   -2.4685598    1.9202485   -5.1309198  
H    3.1667836   -2.8208805   -5.6356219  
C    3.3041273    0.0001178   -1.5420428  
C    2.5845373   -0.0004780   -0.3695851  
C    1.2040007   -0.0000007   -0.7283589  
C    1.1422374    0.0006038   -2.1454372  
N    2.4348641    0.0026111   -2.6077464  
C   -0.0655179    0.0008799   -2.8497918  
C   -1.2321766    0.0002325   -2.1101402  
O   -2.4392814    0.0001148   -2.7472522  
C   -1.1911209   -0.0000007   -0.6955266  
O   -2.4371528   -0.0002320   -0.1032862  
C    0.0000000    0.0000000    0.0000000  
H    3.0031533   -0.0000660    0.6222584  
H    2.7054631   -0.0071097   -3.5745261  
H   -3.1132988   -0.0000648   -2.0551787  
H   -2.3200282   -0.0004072    0.8516409  
H    4.3686625    0.0004073   -1.7024290  
C    2.5528530    2.1414826    2.8079335  
C    2.0663498    1.7338582    4.0032312  
C    0.9804344    0.8229586    3.6752840  
C    0.9495562    0.7966882    2.1971295  
N    1.8690446    1.5676019    1.6831036  
C    0.0000000    0.0000000    1.4700000  
C   -0.8785127   -0.7372425    2.1869543  
O   -1.8187535   -1.5261249    1.6395491  
C   -0.8723269   -0.7321790    3.6796354  
O   -1.7010379   -1.4274584    4.2670412  
C    0.1115397    0.0933559    4.4024240  
H    2.4028853    2.0163452    4.9860947  
H   -2.2861435   -1.9184361    2.3990168  
H    0.0832434    0.0693689    5.4835595  
H    3.3664920    2.8238276    2.6198634  
