62

C    0.5908098   -2.7723121   -9.7054812  
C   -0.0602605   -1.8536280   -8.9151671  
C    0.0291073   -0.5948428   -9.5800526  
C    0.7518407   -0.8091645  -10.7815720  
N    1.0794799   -2.1415798  -10.8256258  
C    1.0300839    0.2165881  -11.6899776  
C    0.5700945    1.4816857  -11.3799539  
O    0.8135736    2.5197317  -12.2321237  
C   -0.1524821    1.7155230  -10.1857928  
O   -0.5420053    3.0285673  -10.0198725  
C   -0.4271068    0.7041193   -9.2890377  
H   -0.5395798   -2.0645668   -7.9745556  
H    1.5853937   -2.5905946  -11.5675277  
H    1.5805365    0.0597909  -12.6073751  
H    0.4122633    3.3018218  -11.8314348  
H   -1.0236412    3.1004055   -9.1901313  
H    0.7465073   -3.8272961   -9.5580808  
C    0.0063632   -0.7183650   -5.1315053  
C    0.1635205   -0.4995845   -6.4624867  
C   -0.8683531    0.4283168   -6.8613249  
C   -1.6451050    0.7344066   -5.6448723  
N   -1.0641734    0.0073898   -4.6315339  
C   -2.7096558    1.5750809   -5.6036142  
C   -3.1177654    2.2213966   -6.8398416  
O   -4.0639306    2.9951418   -6.9061054  
C   -2.3096737    1.9116343   -8.1401647  
O   -2.6441253    2.4496388   -9.1870427  
C   -1.1807017    0.9881992   -8.0592842  
H    0.9162680   -0.9383065   -7.0929690  
H   -3.2656673    1.7860234   -4.7006940  
H    0.5824087   -1.3488902   -4.4738586  
C    1.1319248    0.0015675   -0.8009270  
C    0.7969916    0.0034959   -2.1169404  
C   -0.6453336    0.0035703   -2.1842672  
C   -1.1266831    0.0015415   -0.7896027  
N    0.0000000    0.0000000    0.0000000  
C   -2.4346129    0.0013924   -0.4276297  
C   -3.4350110    0.0031352   -1.4820184  
O   -4.6384610    0.0030897   -1.2583919  
C   -2.9478958    0.0050460   -2.9661075  
O   -3.7809377    0.0062160   -3.8623775  
C   -1.5113821    0.0053068   -3.2312125  
H    1.4821240    0.0045436   -2.9459192  
H   -2.7664565    0.0000185    0.6013447  
H    2.1104318    0.0009428   -0.3488058  
C    2.5285572    2.1210227    2.9438989  
C    1.9331703    1.6216660    4.0790748  
C    0.8903039    0.7472258    3.6520102  
C    0.8972198    0.7527806    2.2336141  
N    1.9028376    1.5986179    1.8362361  
C    0.0000000    0.0000000    1.4700000  
C   -0.9207814   -0.7726952    2.1506477  
O   -1.8198395   -1.5274828    1.4542253  
C   -0.9436862   -0.7911793    3.5655508  
O   -1.9197945   -1.6098497    4.0950179  
C   -0.0590329   -0.0485852    4.3195194  
H    2.2150357    1.8593692    5.0905303  
H    2.1533708    1.7953814    0.8841339  
H   -2.3621246   -1.9821033    2.1118817  
H   -1.8668290   -1.5649508    5.0545920  
H   -0.1007624   -0.0827977    5.4019087  
H    3.3491200    2.8096064    2.8367138  
