60

C    7.1912946    0.0008646   -5.3195717  
C    5.9558460    0.0023572   -5.9246590  
C    6.1820017    0.0031234   -7.3330105  
C    7.5868246    0.0017439   -7.5289618  
N    8.1697078    0.0023428   -6.2860365  
C    8.1733970    0.0017162   -8.7981044  
C    7.3263773    0.0027994   -9.8893130  
O    7.8460718    0.0024734  -11.1514272  
C    5.9220442    0.0045586   -9.7142089  
O    5.2142404    0.0058939  -10.8984193  
C    5.3426824    0.0048602   -8.4624635  
H    5.0082023    0.0039401   -5.4138150  
H    9.1577864   -0.0089128   -6.1084016  
H    9.2433702    0.0008127   -8.9541765  
H    7.0931643    0.0036710  -11.7567317  
H    4.2747369    0.0070119  -10.6912105  
H    4.2638405    0.0064049   -8.3596269  
C    4.7161325   -0.0005435   -1.6923264  
C    5.6957072   -0.0010599   -0.7518431  
C    6.9559333   -0.0010600   -1.4565873  
C    6.6279069   -0.0004681   -2.8950549  
N    5.2541447   -0.0005756   -2.9703260  
C    7.5472422    0.0001050   -3.8933172  
C    8.9536517   -0.0000849   -3.5265089  
O    9.8573549    0.0003297   -4.3521116  
C    9.3240199   -0.0009619   -2.0090665  
O   10.5048028   -0.0014354   -1.6881096  
C    8.2443355   -0.0012469   -1.0251285  
H    5.5518792   -0.0015840    0.3139556  
H    8.5092052   -0.0016495    0.0234744  
H    4.7240359    0.0012975   -3.8223991  
C    3.2573665   -0.0002920   -1.5109385  
C    2.5379463   -0.0001709   -0.3591964  
C    1.1435038    0.0000331   -0.7338500  
C    1.1092599   -0.0000083   -2.2088477  
N    2.4227553    0.0001909   -2.6182613  
C   -0.0265539   -0.0002524   -2.9515660  
C   -1.3003040   -0.0002640   -2.2514977  
O   -2.3786790   -0.0004133   -2.8306421  
C   -1.2877727    0.0000311   -0.6895603  
O   -2.3539959    0.0003306   -0.0892030  
C    0.0000000    0.0000000    0.0000000  
H    2.9384091   -0.0000367    0.6389234  
H   -0.0296303   -0.0004086   -4.0327229  
H    2.7280482   -0.0013407   -3.5742119  
C    0.8681109    0.7263879    2.2709268  
C    0.6127770    0.5096195    3.5869401  
C   -0.4920590   -0.4175482    3.6542670  
C   -0.8620974   -0.7254003    2.2596025  
N    0.0000000    0.0000000    1.4700000  
C   -1.8641242   -1.5660088    1.8976294  
C   -2.6293522   -2.2103885    2.9520183  
O   -3.5512764   -2.9839180    2.7283916  
C   -2.2549728   -1.8987399    4.4361073  
O   -2.8923672   -2.4351063    5.3323774  
C   -1.1543735   -0.9755647    4.7012123  
H    1.1382914    0.9492124    4.4159191  
H   -2.1192137   -1.7782617    0.8686553  
H   -0.9013378   -0.7652422    5.7314848  
H    1.6172880    1.3558399    1.8188057  
