64

C    6.8282324    0.0896178   -4.2374497  
C    7.8535894   -0.5581918   -3.5882554  
C    9.0669805   -0.1560507   -4.2211561  
C    8.7163876    0.7457952   -5.2583083  
N    7.3494147    0.8712156   -5.2418513  
C    9.6650975    1.3441797   -6.0929793  
C   10.9919226    1.0266013   -5.8765152  
O   11.9594718    1.5827624   -6.6623567  
C   11.3615291    0.1286680   -4.8469896  
O   12.7214524   -0.0860631   -4.7584220  
C   10.4261175   -0.4622349   -4.0233608  
H    7.7407734   -1.2379236   -2.7610732  
H    6.8126674    1.4543564   -5.8581547  
H    9.4043544    2.0322296   -6.8853198  
H   12.8025084    1.2320314   -6.3468531  
H   12.8856532   -0.7035968   -4.0391906  
H   10.7392665   -1.1462662   -3.2432857  
C    4.3984119   -2.1246588   -1.2791004  
C    3.1669348   -1.6622718   -1.6817536  
C    3.3926768   -0.7743696   -2.7750378  
C    4.7931430   -0.7344303   -2.9964542  
N    5.3741074   -1.5640446   -2.0697194  
C    5.3781196    0.0421739   -4.0011813  
C    4.5339318    0.7918860   -4.7970809  
O    5.0522108    1.5677817   -5.7932677  
C    3.1339865    0.7655444   -4.5914709  
O    2.4286235    1.5665829   -5.4656243  
C    2.5562217   -0.0001543   -3.6003001  
H    2.2222228   -1.9309361   -1.2409228  
H    6.3582720   -1.7456270   -1.9895380  
H    4.3017818    2.0011075   -6.2202924  
H    1.4920370    1.4913025   -5.2588809  
H    4.6580916   -2.8088912   -0.4895738  
C    0.0000000    0.0000000    0.0000000  
C    1.0541688   -0.0001719   -0.8560391  
C    0.5103141   -0.0000449   -2.1935955  
C   -0.9576367    0.0002461   -2.0455733  
N   -1.2018459   -0.0001392   -0.6915970  
C   -1.8348306    0.0008319   -3.0810611  
C   -1.2972842    0.0009739   -4.4314605  
O   -2.0050664    0.0014267   -5.4301321  
C    0.2542628    0.0004190   -4.6117571  
O    0.7184677    0.0002263   -5.7439119  
C    1.0974556    0.0000880   -3.4189127  
H    2.0940752   -0.0005479   -0.5817978  
H   -2.9081050    0.0011669   -2.9507065  
H   -2.1128195    0.0014911   -0.2706793  
C    1.1243417   -0.0099156    2.2619005  
C    0.7474090   -0.0234034    3.5848544  
C   -0.6787367   -0.0234952    3.6114698  
C   -1.1201739   -0.0099357    2.2635546  
N    0.0000000    0.0000000    1.4700000  
C   -2.4730812   -0.0065396    1.9108239  
C   -3.3971947   -0.0173298    2.9375057  
O   -4.7313508   -0.0149487    2.6493466  
C   -2.9763630   -0.0305536    4.2886322  
O   -4.0166453   -0.0397858    5.1947621  
C   -1.6418541   -0.0336380    4.6373480  
H    1.4178735   -0.0310004    4.4271209  
H   -2.8160170    0.0039190    0.8854031  
H   -5.1938803   -0.0234410    3.4974381  
H   -3.6464643   -0.0484781    6.0827341  
H   -1.3497443   -0.0436789    5.6809233  
H    2.1062470   -0.0051382    1.8205408  
