62

C   -0.1750939   -1.1062951   -9.5393609  
C   -0.2989195   -0.7298966  -10.8567304  
C   -0.5591748    0.6725207  -10.8663538  
C   -0.5827274    1.1007529   -9.5143229  
N   -0.3479146   -0.0045085   -8.7346579  
C   -0.8134310    2.4295725   -9.1458079  
C   -1.0238962    3.3427847  -10.1606600  
O   -1.2535476    4.6535114   -9.8569041  
C   -1.0045816    2.9347609  -11.5156367  
O   -1.2314180    3.9616178  -12.4086409  
C   -0.7773167    1.6239659  -11.8799072  
H   -0.2134048   -1.3856805  -11.7062167  
H   -0.8327810    2.7623175   -8.1171640  
H   -1.3731894    5.1119828  -10.6987800  
H   -1.2017251    3.6014173  -13.3002549  
H   -0.7685478    1.3411674  -12.9260558  
H    0.0214074   -2.0737776   -9.1100327  
C    2.2991559   -2.1048094   -5.8924434  
C    1.6888962   -1.6397490   -7.0128795  
C    0.6412945   -0.7448178   -6.5810646  
C    0.6916339   -0.7264670   -5.1066432  
N    1.7177153   -1.5716515   -4.7520883  
C   -0.1387079    0.0017019   -4.3179684  
C   -1.1495776    0.8219302   -4.9644225  
O   -1.9445177    1.5135265   -4.3414737  
C   -1.2212022    0.8175538   -6.5247612  
O   -2.0683176    1.5039443   -7.0802107  
C   -0.2716610   -0.0081806   -7.2666415  
H    1.9434332   -1.8946826   -8.0262073  
H    3.1245939   -2.7923370   -5.8038529  
H    2.0018704   -1.7690377   -3.8101000  
C    3.3041273    0.0001178   -1.5420428  
C    2.5845373   -0.0004780   -0.3695851  
C    1.2040007   -0.0000007   -0.7283589  
C    1.1422374    0.0006038   -2.1454372  
N    2.4348641    0.0026111   -2.6077464  
C   -0.0655179    0.0008799   -2.8497918  
C   -1.2321766    0.0002325   -2.1101402  
O   -2.4392814    0.0001148   -2.7472522  
C   -1.1911209   -0.0000007   -0.6955266  
O   -2.4371528   -0.0002320   -0.1032862  
C    0.0000000    0.0000000    0.0000000  
H    3.0031533   -0.0000660    0.6222584  
H    2.7054631   -0.0071097   -3.5745261  
H   -3.1132988   -0.0000648   -2.0551787  
H   -2.3200282   -0.0004072    0.8516409  
H    4.3686625    0.0004073   -1.7024290  
C    0.0000000    0.0000000    1.4700000  
C    1.0662921    0.0000102    2.3034270  
C    0.4961870   -0.0000064    3.6418889  
C   -0.9663858    0.0000850    3.4240247  
N   -1.2632773    0.0000084    2.1528658  
C   -1.8985362    0.0000517    4.5177257  
C   -1.3925775   -0.0004564    5.7720543  
O   -2.1456383   -0.0005410    6.8851312  
C    0.0786232   -0.0009323    6.0245000  
O    0.4683759   -0.0012588    7.1921102  
C    1.0143166   -0.0008442    4.8859032  
H    2.1107198   -0.0000632    2.0421868  
H   -2.9622183    0.0003270    4.3293377  
H   -1.5042274   -0.0009692    7.6184419  
H    2.0724152   -0.0013148    5.1109744  
