64

C   -1.0714891    0.3408123   -0.7919010  
C   -0.7175115    0.2105797   -2.1148549  
C    0.6376482   -0.2337551   -2.1414699  
C    1.0613451   -0.3583782   -0.7935544  
N    0.0000000    0.0000000    0.0000000  
C    2.3479973   -0.7765847   -0.4408233  
C    3.2227707   -1.0747019   -1.4675046  
O    4.4912882   -1.4880315   -1.1793450  
C    2.8187588   -0.9561781   -2.8186313  
O    3.8044064   -1.2890013   -3.7247605  
C    1.5496868   -0.5434067   -3.1673474  
H    2.6771277   -0.8734716    0.5845979  
H    4.9281600   -1.6401807   -2.0274359  
H    3.4499365   -1.1819497   -4.6127328  
H    1.2689836   -0.4619556   -4.2109230  
H   -2.0030520    0.6512177   -0.3505420  
C   -3.6884934    3.3785238   -2.9109880  
C   -2.7393042    2.5864165   -2.3491336  
C   -2.4480560    1.5393839   -3.2997819  
C   -3.3115435    1.7882297   -4.4699338  
N   -4.0389763    2.9170361   -4.1707222  
C   -3.3339229    1.0175741   -5.5867569  
C   -2.4486256   -0.1339363   -5.6397505  
O   -2.3950807   -0.8892673   -6.6014722  
C   -1.5256759   -0.4166032   -4.4117166  
O   -0.7763149   -1.3833658   -4.4447244  
C   -1.5906809    0.4858985   -3.2649310  
H   -2.2941184    2.7202104   -1.3793282  
H   -3.9748773    1.2176909   -6.4341303  
H   -4.7182276    3.3415183   -4.7752714  
C   -3.1852383    5.5000625    0.9366981  
C   -4.1061702    6.4964778    0.7097451  
C   -4.6588927    6.2656068   -0.5847805  
C   -4.0316475    5.1042182   -1.1040742  
N   -3.1411409    4.6657751   -0.1557163  
C   -4.3336991    4.5812554   -2.3650511  
C   -5.2865235    5.2425832   -3.1153497  
O   -5.6197891    4.7746279   -4.3534798  
C   -5.9231552    6.4031127   -2.6146617  
O   -6.8485187    6.9471943   -3.4812767  
C   -5.6254749    6.9197455   -1.3708758  
H   -4.3488407    7.2925105    1.3927064  
H   -2.5573781    3.8532500   -0.2394142  
H   -6.2932526    5.3743876   -4.6998892  
H   -7.2316612    7.7264674   -3.0671038  
H   -6.1294715    7.8103785   -1.0141703  
H   -2.5553151    5.3192950    1.7907937  
C    2.5285572    2.1210227    2.9438989  
C    1.9331703    1.6216660    4.0790748  
C    0.8903039    0.7472258    3.6520102  
C    0.8972198    0.7527806    2.2336141  
N    1.9028376    1.5986179    1.8362361  
C    0.0000000    0.0000000    1.4700000  
C   -0.9207814   -0.7726952    2.1506477  
O   -1.8198395   -1.5274828    1.4542253  
C   -0.9436862   -0.7911793    3.5655508  
O   -1.9197945   -1.6098497    4.0950179  
C   -0.0590329   -0.0485852    4.3195194  
H    2.2150357    1.8593692    5.0905303  
H    2.1533708    1.7953814    0.8841339  
H   -2.3621246   -1.9821033    2.1118817  
H   -1.8668290   -1.5649508    5.0545920  
H   -0.1007624   -0.0827977    5.4019087  
H    3.3491200    2.8096064    2.8367138  
