62

C   -7.4838733    3.0858578    0.0070240  
C   -8.7975199    2.9828615    0.4022353  
C   -9.1790792    1.6195422    0.2279545  
C   -8.0472196    0.9322959   -0.2804878  
N   -7.0359825    1.8524210   -0.4045289  
C   -8.0607139   -0.4350031   -0.5722086  
C   -9.2381744   -1.1210896   -0.3462624  
O   -9.3063844   -2.4578377   -0.6135916  
C  -10.3782560   -0.4529148    0.1602665  
O  -11.4737822   -1.2739885    0.3305738  
C  -10.3657447    0.8959973    0.4480264  
H   -9.4062536    3.7911646    0.7697709  
H   -7.2014790   -0.9646210   -0.9600511  
H  -10.2038450   -2.7358078   -0.3887326  
H  -12.1996226   -0.7450315    0.6754843  
H  -11.2546077    1.3805129    0.8348683  
H   -6.8313957    3.9418586   -0.0152032  
C   -4.5109071    2.0977186   -0.3577879  
C   -3.4201851    1.6341429   -1.0207351  
C   -3.9001607    0.7380705   -2.0461682  
C   -5.3704635    0.7174770   -1.9254398  
N   -5.6768568    1.5619483   -0.8833834  
C   -6.1968217   -0.0116749   -2.7173831  
C   -5.5981518   -0.8310168   -3.7579638  
O   -6.2573266   -1.5234764   -4.5223515  
C   -4.0429941   -0.8246547   -3.9037356  
O   -3.5275663   -1.5107550   -4.7760092  
C   -3.2578655    0.0024282   -2.9908505  
H   -2.3962312    1.8904974   -0.8147870  
H   -7.2728523   -0.0125174   -2.6121839  
H   -4.5610337    2.7855092    0.4706574  
C    0.0000000    0.0000000    0.0000000  
C    1.0521666   -0.0011982   -0.8862343  
C    0.4917215   -0.0011996   -2.1979132  
C   -0.9187429    0.0003215   -2.0478682  
N   -1.1833171   -0.0009323   -0.7007913  
C   -1.7951703    0.0010483   -3.1372089  
C   -1.2375841    0.0005313   -4.4010422  
O   -2.0474218    0.0015510   -5.4997578  
C    0.1673576   -0.0013585   -4.5711963  
O    0.5673520   -0.0020735   -5.8915554  
C    1.0325768   -0.0023493   -3.4969892  
H    2.0953056   -0.0030808   -0.6200564  
H   -2.0989778    0.0102529   -0.2891822  
H   -1.4634888    0.0006601   -6.2693595  
H    1.5290707   -0.0033271   -5.9180047  
H    2.1042146   -0.0039770   -3.6584456  
C    3.1301144    0.0010313    3.1728260  
C    2.5367765    0.0002768    1.9564670  
C    1.1089900   -0.0001027    2.2356185  
C    1.0177864    0.0004150    3.7115134  
N    2.1993570    0.0011613    4.2663826  
C   -0.2459220    0.0002880    4.3957118  
C   -1.3675327    0.0000606    3.6398520  
O   -2.6129319   -0.0000866    4.1448486  
C   -1.3083589   -0.0000910    2.1483229  
O   -2.3693264   -0.0004206    1.5241687  
C    0.0000000    0.0000000    1.4700000  
H    3.0096015    0.0001008    0.9892483  
H   -0.2829642    0.0004689    5.4753125  
H   -3.1967446   -0.0002093    3.3649027  
H    4.1849273    0.0015113    3.3971983  
