64

C    5.9903381   -1.9450969   -4.9067699  
C    7.0428436   -2.7871984   -4.6318796  
C    7.9091854   -2.7543139   -5.7645626  
C    7.3287825   -1.8671120   -6.7068638  
N    6.1637717   -1.3948732   -6.1551784  
C    7.9142824   -1.5912477   -7.9461690  
C    9.1075859   -2.2222741   -8.2394470  
O    9.7225030   -1.9885505   -9.4353824  
C    9.7020874   -3.1111045   -7.3124271  
O   10.8890007   -3.6603430   -7.7516508  
C    9.1249003   -3.3839297   -6.0897470  
H    7.1699314   -3.3561413   -3.7268123  
H    5.5406943   -0.7379995   -6.5890822  
H    7.4769100   -0.9161704   -8.6687882  
H   10.5287635   -2.5207238   -9.4364524  
H   11.2239383   -4.2477864   -7.0673034  
H    9.6036116   -4.0694106   -5.4002324  
C    4.5310508   -2.0790480   -2.8543218  
C    4.8140929   -1.6029425   -4.0941952  
C    3.7433600   -0.7037140   -4.4544102  
C    2.8066151   -0.6948784   -3.3145762  
N    3.3414841   -1.5491127   -2.3780461  
C    1.6628945    0.0339172   -3.2649299  
C    1.3323529    0.8649109   -4.4106728  
O    0.3247029    1.5579297   -4.4623207  
C    2.3099256    0.8707266   -5.6289190  
O    2.0419949    1.5662240   -6.5993606  
C    3.5120772    0.0432794   -5.5655568  
H    4.1838702    0.0530794   -6.4130956  
H    5.0912894   -2.7726311   -2.2485463  
H    2.9319190   -1.7542581   -1.4851746  
C    1.1243410    0.0100105   -0.7919003  
C    0.7474072    0.0234665   -2.1148542  
C   -0.6787384    0.0234379   -2.1414698  
C   -1.1201748    0.0098411   -0.7935547  
N    0.0000000    0.0000000    0.0000000  
C   -2.4730818    0.0063307   -0.4408240  
C   -3.3971962    0.0170429   -1.4675058  
O   -4.7313520    0.0145490   -1.1793468  
C   -2.9763654    0.0303020   -2.8186325  
O   -4.0166484    0.0394464   -3.7247625  
C   -1.6418567    0.0334992   -3.1673480  
H   -2.8160166   -0.0041569    0.5845966  
H   -5.1938823    0.0230023   -2.0274386  
H   -3.6464680    0.0481700   -4.6127343  
H   -1.3497475    0.0435647   -4.2109234  
H    2.1062466    0.0053162   -0.3505405  
C    2.5311839    2.1237619    3.0120429  
C    1.9795631    1.6616747    1.8395852  
C    0.9223175    0.7739173    2.1983588  
C    0.8753926    0.7337535    3.6154372  
N    1.8668922    1.5631002    4.0777464  
C   -0.0496243   -0.0427881    4.3197917  
C   -0.9437528   -0.7922060    3.5801400  
O   -1.8685244   -1.5680278    4.2172520  
C   -0.9124520   -0.7656372    2.1655264  
O   -1.8671164   -1.5663939    1.5732860  
C    0.0000000    0.0000000    1.4700000  
H    2.3005065    1.9304404    0.8477417  
H    2.0679347    1.7444845    5.0445261  
H   -0.0904770   -0.0778569    5.3997470  
H   -2.3849669   -2.0011402    3.5251786  
H   -1.7775064   -1.4909735    0.6183591  
H    3.3468514    2.8078103    3.1724291  
