60

C    9.4978070   -4.4166263   -5.7963942  
C    8.4005065   -3.5937185   -5.6904522  
C    7.9548629   -3.6661167   -4.3373972  
C    8.8265554   -4.5560920   -3.6591475  
N    9.7505624   -4.9951494   -4.5746026  
C    8.6853763   -4.8663408   -2.3031966  
C    7.6454637   -4.2670152   -1.6194062  
O    7.4620260   -4.5344969   -0.2935790  
C    6.7650124   -3.3765598   -2.2787328  
O    5.7799643   -2.8618981   -1.4613301  
C    6.9035289   -3.0702415   -3.6164583  
H    7.9731011   -3.0135730   -6.4902952  
H   10.5039421   -5.6296515   -4.3801683  
H    9.3463046   -5.5439418   -1.7804795  
H    6.6925608   -4.0209137   -0.0153329  
H    5.2292682   -2.2708217   -1.9837910  
H   10.1192959   -4.6377736   -6.6471611  
C    5.9676385   -2.1403201   -4.2647287  
C    5.9574580   -1.7327287   -5.5552114  
C    4.8270660   -0.8220457   -5.6520102  
C    4.2518649   -0.7958515   -4.2900113  
N    4.9163000   -1.5666193   -3.4724345  
C    3.1006054    0.0006263   -3.9654951  
C    2.5492758    0.7377404   -4.9564711  
O    1.4731209    1.5264230   -4.7955005  
C    3.1069008    0.7327491   -6.3410973  
O    2.5539554    1.4279030   -7.1932904  
C    4.2884402   -0.0925691   -6.6488941  
H    6.6335874   -2.0151067   -6.3440011  
H    1.3195663    1.9186838   -5.6739680  
H    4.6618638   -0.0685360   -7.6638851  
C    3.2798083    0.0005857   -1.4499652  
C    2.5571142    0.0005565   -2.5996556  
C    1.1637432    0.0001548   -2.2210361  
C    1.1336964   -0.0000200   -0.7459473  
N    2.4483512   -0.0001428   -0.3402723  
C    0.0000000    0.0000000    0.0000000  
C   -1.2757368   -0.0000186   -0.6964415  
O   -2.3524598   -0.0000639   -0.1142311  
C   -1.2676497   -0.0000872   -2.2584083  
O   -2.3355766   -0.0004101   -2.8557295  
C    0.0181558    0.0001758   -2.9516296  
H    0.0150788    0.0003319   -4.0331631  
H    4.3498547    0.0008612   -1.3200026  
H    2.7563626    0.0012823    0.6148059  
C    0.8681109    0.7263879    2.2709268  
C    0.6127770    0.5096195    3.5869401  
C   -0.4920590   -0.4175482    3.6542670  
C   -0.8620974   -0.7254003    2.2596025  
N    0.0000000    0.0000000    1.4700000  
C   -1.8641242   -1.5660088    1.8976294  
C   -2.6293522   -2.2103885    2.9520183  
O   -3.5512764   -2.9839180    2.7283916  
C   -2.2549728   -1.8987399    4.4361073  
O   -2.8923672   -2.4351063    5.3323774  
C   -1.1543735   -0.9755647    4.7012123  
H    1.1382914    0.9492124    4.4159191  
H   -2.1192137   -1.7782617    0.8686553  
H   -0.9013378   -0.7652422    5.7314848  
H    1.6172880    1.3558399    1.8188057  
