62

C    2.8719483   -5.4722868   -8.8759202  
C    3.0260674   -5.0033172  -10.1599696  
C    2.7242034   -3.6094872  -10.1332059  
C    2.3899892   -3.2816470   -8.7942698  
N    2.4878689   -4.4358946   -8.0575551  
C    2.0368118   -1.9882066   -8.3979538  
C    2.0210233   -1.0077981   -9.3709528  
O    1.6836927    0.2723501   -9.0386239  
C    2.3510260   -1.3153588  -10.7123412  
O    2.2885371   -0.2308570  -11.5628078  
C    2.6992768   -2.5912056  -11.1040849  
H    3.3188530   -5.5934842  -11.0114235  
H    2.3192956   -4.5105249   -7.0706432  
H    1.7348829    0.7885342   -9.8536071  
H    2.5255317   -0.5243428  -12.4478521  
H    2.9469206   -2.7966553  -12.1389468  
H    3.0042170   -6.4643541   -8.4793542  
C    2.2991559   -2.1048094   -5.8924434  
C    1.6888962   -1.6397490   -7.0128795  
C    0.6412942   -0.7448177   -6.5810651  
C    0.6916338   -0.7264668   -5.1066432  
N    1.7177155   -1.5716517   -4.7520883  
C   -0.1387079    0.0017019   -4.3179684  
C   -1.1495776    0.8219303   -4.9644230  
O   -1.9445176    1.5135266   -4.3414737  
C   -1.2212021    0.8175538   -6.5247612  
O   -2.0683175    1.5039444   -7.0802107  
C   -0.2716611   -0.0081805   -7.2666415  
H   -0.3277639   -0.0054788   -8.3467194  
H    3.1245934   -2.7923368   -5.8038533  
H    2.0018702   -1.7690376   -3.8101002  
C    3.3041273    0.0001178   -1.5420428  
C    2.5845373   -0.0004780   -0.3695851  
C    1.2040007   -0.0000007   -0.7283589  
C    1.1422374    0.0006038   -2.1454372  
N    2.4348641    0.0026111   -2.6077464  
C   -0.0655179    0.0008799   -2.8497918  
C   -1.2321766    0.0002325   -2.1101402  
O   -2.4392814    0.0001148   -2.7472522  
C   -1.1911209   -0.0000007   -0.6955266  
O   -2.4371528   -0.0002320   -0.1032862  
C    0.0000000    0.0000000    0.0000000  
H    3.0031533   -0.0000660    0.6222584  
H    2.7054631   -0.0071097   -3.5745261  
H   -3.1132988   -0.0000648   -2.0551787  
H   -2.3200282   -0.0004072    0.8516409  
H    4.3686625    0.0004073   -1.7024290  
C    2.4951002    2.0940188    2.9809380  
C    1.9440701    1.6314916    1.8291961  
C    0.8759964    0.7350050    2.2038498  
C    0.8497377    0.7130254    3.6788474  
N    1.8560616    1.5571714    4.0882609  
C   -0.0205033   -0.0168748    4.4215661  
C   -0.9962600   -0.8356168    3.7214979  
O   -1.8224391   -1.5286685    4.3006425  
C   -0.9864710   -0.8277881    2.1595606  
O   -1.8030528   -1.5133726    1.5592035  
C    0.0000000    0.0000000    1.4700000  
H    2.2509283    1.8888011    0.8310761  
H   -0.0229599   -0.0187323    5.5027230  
H    3.3143982    2.7817323    3.1139444  
H    2.0889452    1.7545833    5.0442112  
