62

C    5.5734708   -4.2387910   -6.6825709  
C    5.9256788   -4.9027400   -5.5303614  
C    4.9838993   -4.5251922   -4.5278104  
C    4.0727202   -3.6214636   -5.1319239  
N    4.4606331   -3.4680668   -6.4398266  
C    3.0064170   -3.0442283   -4.4358013  
C    2.8570470   -3.3857547   -3.1056786  
O    1.8325786   -2.8514342   -2.3790557  
C    3.7561235   -4.2853863   -2.4850807  
O    3.4741598   -4.5246944   -1.1559564  
C    4.8084416   -4.8550142   -3.1711390  
H    6.7595448   -5.5754795   -5.4250832  
H    3.9960302   -2.8933057   -7.1193667  
H    1.9106844   -3.2160972   -1.4878853  
H    4.1276590   -5.1417266   -0.8127173  
H    5.4809363   -5.5406614   -2.6690281  
H    6.0288674   -4.2529137   -7.6579548  
C    2.0577021   -2.1067615   -5.0538589  
C    2.0213365   -1.6421649   -6.3293598  
C    0.8918560   -0.7471749   -6.4193661  
C    0.2687255   -0.7282836   -5.0821513  
N    1.0227497   -1.5732438   -4.3008835  
C   -0.8287665    0.0000939   -4.7555305  
C   -1.4369821    0.8199929   -5.7901197  
O   -2.4278334    1.5117412   -5.5951870  
C   -0.7939004    0.8150431   -7.2135754  
O   -1.2973746    1.5011527   -8.0927953  
C    0.3886470   -0.0108721   -7.4444394  
H    2.7073328   -1.8974429   -7.1173043  
H    0.8279778   -0.0085678   -8.4327244  
H    0.8492698   -1.7702610   -3.3323090  
C    1.0672569   -0.0000698   -0.8321910  
C    0.0000000    0.0000000    0.0000000  
C   -1.1601223   -0.0000736   -0.8778472  
C   -0.5938729   -0.0000768   -2.2438435  
N    0.7113367   -0.0001553   -2.2234123  
C   -1.4286985   -0.0001877   -3.4135239  
C   -2.7683113   -0.0006798   -3.2270524  
O   -3.6653902   -0.0008302   -4.2276970  
C   -3.3702024   -0.0010610   -1.8610774  
O   -4.5974910   -0.0013779   -1.7662963  
C   -2.4926825   -0.0008943   -0.6770658  
H   -4.5324245   -0.0012258   -3.7833954  
H   -2.9677772   -0.0012974    0.2947961  
H    2.1134391   -0.0000547   -0.5705119  
C    0.0000000    0.0000000    1.4700000  
C    1.0521667    0.0011902    2.3562342  
C    0.4917218    0.0011957    3.6679131  
C   -0.9187428   -0.0003148    3.5178682  
N   -1.1833171    0.0009411    2.1707914  
C   -1.7951701   -0.0010350    4.6072090  
C   -1.2375837   -0.0005224    5.8710424  
O   -2.0474215   -0.0015360    6.9697579  
C    0.1673580    0.0013566    6.0411963  
O    0.5673524    0.0020687    7.3615553  
C    1.0325770    0.0023412    4.9669890  
H    2.0953057    0.0030649    2.0900562  
H   -2.0989778   -0.0102372    1.7591824  
H   -2.8710934   -0.0020419    4.4995513  
H   -1.4634884   -0.0006497    7.7393593  
H    1.5290710    0.0033153    7.3880045  
H    2.1042148    0.0039609    5.1284455  
