60

C    6.4376820   -3.7017994   -2.0181628  
C    5.2448911   -3.0689908   -1.7549700  
C    4.8258920   -3.4926516   -0.4589951  
C    5.8114712   -4.3911213    0.0240291  
N    6.7749517   -4.4971674   -0.9481217  
C    5.7249800   -5.0066579    1.2763960  
C    4.6236392   -4.7095516    2.0554689  
O    4.4894456   -5.2825024    3.2870259  
C    3.6295036   -3.8158853    1.5908489  
O    2.5947912   -3.6229848    2.4827586  
C    3.7140418   -3.2084878    0.3553542  
H    7.6055146   -5.0574840   -0.8833832  
H    6.4727048   -5.6924632    1.6502689  
H    3.6632268   -4.9448858    3.6566768  
H    1.9674964   -3.0068714    2.0922341  
H    2.9369455   -2.5285032    0.0263856  
H    7.0738265   -3.6498341   -2.8850986  
C    4.5533953   -2.1376039   -2.6578830  
C    4.9399044   -1.7283662   -3.8886202  
C    3.8940255   -0.8167851   -4.3264065  
C    2.9285539   -0.7919268   -3.2066610  
N    3.3097737   -1.5641889   -2.2257066  
C    1.7334695    0.0049281   -3.2500363  
C    1.5131085    0.7436793   -4.3613519  
O    0.4396988    1.5328953   -4.5373375  
C    2.4688035    0.7400648   -5.5079975  
O    2.2042964    1.4366805   -6.4877846  
C    3.6875669   -0.0856726   -5.4394571  
H    5.8254287   -2.0102057   -4.4322107  
H    0.5632897    1.9263775   -5.4199754  
H    4.3545055   -0.0606062   -6.2908048  
C    1.1319246    0.0015678   -0.8009268  
C    0.7969914    0.0034958   -2.1169401  
C   -0.6453340    0.0035696   -2.1842669  
C   -1.1266832    0.0015410   -0.7896025  
N    0.0000000    0.0000000    0.0000000  
C   -2.4346129    0.0013913   -0.4276292  
C   -3.4350111    0.0031335   -1.4820181  
O   -4.6384614    0.0030875   -1.2583914  
C   -2.9478961    0.0050442   -2.9661074  
O   -3.7809382    0.0062135   -3.8623773  
C   -1.5113825    0.0053055   -3.2312122  
H   -2.7664565    0.0000174    0.6013448  
H   -1.1823533    0.0068381   -4.2614848  
H    2.1104316    0.0009435   -0.3488059  
C    0.8681109    0.7263879    2.2709268  
C    0.6127770    0.5096195    3.5869401  
C   -0.4920590   -0.4175482    3.6542670  
C   -0.8620974   -0.7254003    2.2596025  
N    0.0000000    0.0000000    1.4700000  
C   -1.8641242   -1.5660088    1.8976294  
C   -2.6293522   -2.2103885    2.9520183  
O   -3.5512764   -2.9839180    2.7283916  
C   -2.2549728   -1.8987399    4.4361073  
O   -2.8923672   -2.4351063    5.3323774  
C   -1.1543735   -0.9755647    4.7012123  
H    1.1382914    0.9492124    4.4159191  
H   -2.1192137   -1.7782617    0.8686553  
H   -0.9013378   -0.7652422    5.7314848  
H    1.6172880    1.3558399    1.8188057  
