62

C   -8.4382330    1.0881583   -2.3015347  
C   -7.6598464   -0.0128202   -2.5743482  
C   -8.5413337   -1.1287116   -2.6855552  
C   -9.8564945   -0.6433752   -2.4693956  
N   -9.7577807    0.7060535   -2.2371986  
C  -10.9832490   -1.4703709   -2.5053494  
C  -10.7786562   -2.8116929   -2.7645322  
O  -11.8439564   -3.6637240   -2.8113786  
C   -9.4740262   -3.3149446   -2.9824621  
O   -9.4355271   -4.6720443   -3.2276977  
C   -8.3619700   -2.4997207   -2.9468735  
H  -10.5303181    1.3227541   -2.0615648  
H  -11.9882392   -1.1066624   -2.3412973  
H  -11.4846533   -4.5398507   -3.0026064  
H   -8.5189123   -4.9306153   -3.3639373  
H   -7.3751177   -2.9138372   -3.1174852  
H   -8.1564209    2.1155114   -2.1463358  
C   -4.5109061    2.0977189   -0.3577879  
C   -3.4201849    1.6341429   -1.0207351  
C   -3.9001607    0.7380706   -2.0461681  
C   -5.3704639    0.7174771   -1.9254392  
N   -5.6768567    1.5619484   -0.8833829  
C   -6.1968217   -0.0116748   -2.7173826  
C   -5.5981518   -0.8310167   -3.7579633  
O   -6.2573275   -1.5234763   -4.5223509  
C   -4.0429941   -0.8246549   -3.9037354  
O   -3.5275665   -1.5107550   -4.7760092  
C   -3.2578655    0.0024282   -2.9908505  
H   -2.3962310    1.8904976   -0.8147872  
H   -4.5610332    2.7855092    0.4706573  
H   -6.6046839    1.7602441   -0.5564855  
C    0.0000000    0.0000000    0.0000000  
C    1.0521666   -0.0011982   -0.8862343  
C    0.4917215   -0.0011996   -2.1979132  
C   -0.9187429    0.0003215   -2.0478682  
N   -1.1833171   -0.0009323   -0.7007913  
C   -1.7951703    0.0010483   -3.1372089  
C   -1.2375841    0.0005313   -4.4010422  
O   -2.0474218    0.0015510   -5.4997578  
C    0.1673576   -0.0013585   -4.5711963  
O    0.5673520   -0.0020735   -5.8915554  
C    1.0325768   -0.0023493   -3.4969892  
H    2.0953056   -0.0030808   -0.6200564  
H   -2.0989778    0.0102529   -0.2891822  
H   -1.4634888    0.0006601   -6.2693595  
H    1.5290707   -0.0033271   -5.9180047  
H    2.1042146   -0.0039770   -3.6584456  
C    1.0672568    0.0000697    2.3021913  
C    0.0000000    0.0000000    1.4700000  
C   -1.1601224    0.0000736    2.3478473  
C   -0.5938729    0.0000769    3.7138435  
N    0.7113367    0.0001554    3.6934124  
C   -1.4286986    0.0001879    4.8835240  
C   -2.7683114    0.0006799    4.6970523  
O   -3.6653903    0.0008304    5.6976972  
C   -3.3702025    0.0010610    3.3310774  
O   -4.5974910    0.0013779    3.2362962  
C   -2.4926826    0.0008943    2.1470656  
H   -0.9878360   -0.0000190    5.8697035  
H   -4.5324246    0.0012261    5.2533954  
H   -2.9677772    0.0012974    1.1752040  
H    2.1134392    0.0000545    2.0405121  
