60

C    5.9985992   -0.7079561    3.1710958  
C    5.8820941   -0.4575167    4.5187513  
C    6.9253951    0.4514408    4.8650444  
C    7.6523988    0.7225010    3.6776448  
N    7.0644383    0.0010570    2.6684676  
C    8.7545567    1.5821465    3.6452780  
C    9.1294544    2.1792672    4.8331645  
O   10.1983284    3.0277357    4.8581513  
C    8.4169058    1.9210798    6.0283346  
O    8.9135571    2.5910515    7.1273424  
C    7.3296704    1.0729205    6.0610580  
H    5.1374940   -0.8790652    5.1720971  
H    9.3129518    1.7927775    2.7435957  
H   10.2865435    3.3289397    5.7718024  
H    8.3762704    2.3617135    7.8917587  
H    6.8036914    0.8943565    6.9916171  
H    5.4066178   -1.3373523    2.5289299  
C    4.7795901    0.0008674   -1.0815733  
C    5.8063529    0.0010477   -1.9702986  
C    7.0285665    0.0013959   -1.2015143  
C    6.6268087    0.0013743    0.2181269  
N    5.2509927    0.0014463    0.2224664  
C    7.4934504    0.0012526    1.2624628  
C    8.9169020    0.0013607    0.9686573  
O    9.7768349    0.0013262    1.8397569  
C    9.3650172    0.0016372   -0.5276709  
O   10.5607782    0.0020368   -0.7873195  
C    8.3375015    0.0014691   -1.5659688  
H    5.7176690    0.0011304   -3.0420957  
H    8.6560847    0.0014569   -2.5995201  
H    4.6776560   -0.0001051    1.0460742  
C    3.3321168    0.0004716   -1.3379341  
C    2.6974177    0.0000118   -2.5332316  
C    1.2800432   -0.0002116   -2.2052842  
C    1.2395033    0.0000644   -0.7271298  
N    2.4394059    0.0005460   -0.2131041  
C    0.0000000    0.0000000    0.0000000  
C   -1.1468704    0.0000635   -0.7169542  
O   -2.3742206    0.0000074   -0.1695488  
C   -1.1388774    0.0001608   -2.2096352  
O   -2.2206238    0.0000906   -2.7970409  
C    0.1454514    0.0001818   -2.9324241  
H    3.1367978   -0.0000649   -3.5160956  
H   -2.9844350    0.0001027   -0.9290164  
H    0.1083567    0.0003684   -4.0135594  
C    2.3971438    2.0127888    3.1728260  
C    1.9431056    1.6308205    1.9564670  
C    0.8496017    0.7127664    2.2356185  
C    0.7794028    0.6545384    3.7115134  
N    1.6840587    1.4146091    4.2663826  
C   -0.1885723   -0.1578550    4.3957118  
C   -1.0476298   -0.8789867    3.6398520  
O   -2.0015663   -1.6796266    4.1448486  
C   -1.0022026   -0.8410666    2.1483229  
O   -1.8147390   -1.5232959    1.5241687  
C    0.0000000    0.0000000    1.4700000  
H    2.3054237    1.9346118    0.9892483  
H   -0.2170646   -0.1815267    5.4753125  
H   -2.4487139   -2.0549881    3.3649027  
H    3.2048689    2.6911772    3.3971983  
