62

C    0.8465251   -1.0681510   -7.7061049  
C    1.8962304   -1.9542123   -7.7801394  
C    2.1283637   -2.2099980   -9.1640794  
C    1.1818321   -1.4454728   -9.8931232  
N    0.4179106   -0.7654884   -8.9773372  
C    1.1184044   -1.4527415  -11.2898025  
C    2.0272447   -2.2460142  -11.9627851  
O    2.0097542   -2.2900313  -13.3268852  
C    2.9790145   -3.0162703  -11.2530983  
O    3.8143897   -3.7542856  -12.0660091  
C    3.0419894   -3.0097946   -9.8752313  
H    2.4283817   -2.3664433   -6.9399769  
H   -0.3294678   -0.1332543   -9.2002427  
H    0.3993000   -0.8724333  -11.8513486  
H    2.7154537   -2.8951989  -13.5896131  
H    4.4259706   -4.2448108  -11.5083731  
H    3.7819005   -3.6103726   -9.3591742  
C    0.5332458   -0.7193585   -5.2240418  
C   -0.2963293   -0.0005341   -4.3948471  
C   -1.1923432    0.7280154   -5.2320895  
C   -0.8589930    0.4109477   -6.5738313  
N    0.1940937   -0.4688043   -6.5330672  
C   -1.5389804    0.9506278   -7.6698022  
C   -2.5745410    1.8261035   -7.4064882  
O   -3.2722188    2.3818999   -8.4396147  
C   -2.9218737    2.1551069   -6.0745976  
O   -3.9749410    3.0410854   -5.9774574  
C   -2.2513088    1.6232871   -4.9929147  
H   -1.2897035    0.7131097   -8.6948128  
H   -3.9408690    2.9540001   -8.0410249  
H   -4.1451801    3.2101967   -5.0457796  
H   -2.5398827    1.8941059   -3.9840238  
H    1.3409600   -1.3898545   -4.9853120  
C    3.1301146   -0.0010313   -1.7028256  
C    2.5367765   -0.0002766   -0.4864669  
C    1.1089901    0.0001027   -0.7656184  
C    1.0177865   -0.0004150   -2.2415133  
N    2.1993571   -0.0011612   -2.7963824  
C   -0.2459219   -0.0002879   -2.9257116  
C   -1.3675326   -0.0000606   -2.1698520  
O   -2.6129318    0.0000865   -2.6748483  
C   -1.3083588    0.0000910   -0.6783229  
O   -2.3693264    0.0004206   -0.0541685  
C    0.0000000    0.0000000    0.0000000  
H    3.0096016   -0.0001007    0.4807518  
H   -3.1967444    0.0002093   -1.8949026  
H    4.1849275   -0.0015114   -1.9271979  
C    2.4951002    2.0940188    2.9809380  
C    1.9440701    1.6314916    1.8291961  
C    0.8759964    0.7350050    2.2038498  
C    0.8497377    0.7130254    3.6788474  
N    1.8560616    1.5571714    4.0882609  
C   -0.0205033   -0.0168748    4.4215661  
C   -0.9962600   -0.8356168    3.7214979  
O   -1.8224391   -1.5286685    4.3006425  
C   -0.9864710   -0.8277881    2.1595606  
O   -1.8030528   -1.5133726    1.5592035  
C    0.0000000    0.0000000    1.4700000  
H    2.2509283    1.8888011    0.8310761  
H   -0.0229599   -0.0187323    5.5027230  
H    3.3143982    2.7817323    3.1139444  
H    2.0889452    1.7545833    5.0442112  
