60

C    9.4823458    0.7120933   -5.1465225  
C   10.8297048    0.4621771   -5.2675011  
C   11.1798911   -0.4463397   -4.2251159  
C    9.9950624   -0.7176829   -3.4940348  
N    8.9836089    0.0031767   -4.0787927  
C    9.9667678   -1.5770269   -2.3915300  
C   11.1561605   -2.1735505   -2.0204707  
O   11.1851013   -3.0217032   -0.9514471  
C   12.3488129   -1.9150729   -2.7371200  
O   13.4497666   -2.5844487   -2.2439884  
C   12.3775189   -1.0672103   -3.8247007  
H   11.4803604    0.8837829   -6.0144201  
H    9.0670611   -1.7878713   -1.8300370  
H   12.0991704   -3.3225051   -0.8662286  
H   14.2122709   -2.3549482   -2.7839145  
H   13.3062233   -0.8884120   -4.3538655  
H    8.8379270    1.3410555   -5.7365133  
C    6.4690067    0.0019755   -4.4192259  
C    7.5790592    0.0025229   -3.6450414  
C    7.0826137    0.0021761   -2.2775468  
C    5.6103545    0.0015083   -2.4155218  
N    5.2447492    0.0013071   -3.6686472  
C    4.7390840    0.0009613   -1.2727298  
C    5.3125312    0.0006874   -0.0477837  
O    4.6211392    0.0001824    1.1046125  
C    6.7952869    0.0009745    0.1242519  
O    7.2479825    0.0008238    1.2689297  
C    7.6676524    0.0015792   -1.0635622  
H    5.3014937    0.0000719    1.8019436  
H    8.7364288    0.0016561   -0.8963867  
H    6.4103389    0.0020015   -5.4960416  
C    3.2798077    0.0005856   -1.4499661  
C    2.5571132    0.0005565   -2.5996564  
C    1.1637425    0.0001547   -2.2210366  
C    1.1336959   -0.0000200   -0.7459475  
N    2.4483509   -0.0001429   -0.3402730  
C    0.0000000    0.0000000    0.0000000  
C   -1.2757370   -0.0000187   -0.6964411  
O   -2.3524597   -0.0000640   -0.1142306  
C   -1.2676502   -0.0000874   -2.2584078  
O   -2.3355774   -0.0004102   -2.8557287  
C    0.0181551    0.0001758   -2.9516297  
H    2.9547342    0.0006074   -3.5989118  
H    0.0150776    0.0003317   -4.0331632  
H    2.7563626    0.0012823    0.6148051  
C    2.5128556    2.1077716    2.9199648  
C    1.9592212    1.6432552    4.0696553  
C    0.8915788    0.7479214    3.6910360  
C    0.8684491    0.7287414    2.2159470  
N    1.8754542    1.5738793    1.8102719  
C    0.0000000    0.0000000    1.4700000  
C   -0.9772830   -0.8200135    2.1664417  
O   -1.8021297   -1.5120829    1.5842315  
C   -0.9711318   -0.8147624    3.7284083  
O   -1.7894187   -1.5009653    4.3257297  
C    0.0140216    0.0115358    4.4216297  
H    2.2638494    1.8988021    5.0689105  
H    0.0117648    0.0094386    5.5031631  
H    3.3327358    2.7953732    2.7900019  
H    2.1123206    1.7707734    0.8551938  
