62

C    3.1350902   -3.0510296   -8.0347092  
C    2.6246602   -1.8279991   -7.6657566  
C    3.0188456   -0.8927978   -8.6680632  
C    3.7740217   -1.6090692   -9.6316967  
N    3.8269286   -2.9162395   -9.2156149  
C    4.3241797   -1.0022668  -10.7647933  
C    4.1077969    0.3522231  -10.9282368  
O    4.6221534    0.9948072  -12.0170602  
C    3.3573043    1.0841713   -9.9775380  
O    3.2306095    2.4238909  -10.2815822  
C    2.8144932    0.4862524   -8.8593360  
H    4.2872025   -3.6626965   -9.7044220  
H    4.9008243   -1.5425738  -11.5028644  
H    4.3580246    1.9206600  -11.9377083  
H    2.7106987    2.8448482   -9.5901399  
H    2.2443625    1.0727599   -8.1483943  
H    3.0616001   -4.0085585   -7.5481945  
C    2.0510681   -2.1230736   -5.2235531  
C    1.1049649   -1.6611196   -4.3381417  
C    0.2551153   -0.7735538   -5.0624227  
C    0.7354330   -0.7333646   -6.3964410  
N    1.8277566   -1.5625119   -6.4593733  
C    0.1362323    0.0430189   -7.3929229  
C   -0.9681449    0.7922494   -7.0362954  
O   -1.5919784    1.5679113   -7.9702090  
C   -1.4620707    0.7656522   -5.7103443  
O   -2.5682022    1.5662132   -5.5130671  
C   -0.8712826    0.0001710   -4.7267111  
H    1.0365104   -1.9298484   -3.2979053  
H    0.4975509    0.0781061   -8.4114609  
H   -2.3277822    2.0009093   -7.5181345  
H   -2.8379856    1.4907869   -4.5926697  
H    2.8683637   -2.8069635   -5.0709721  
C    1.0965514    0.0001359   -0.8010305  
C    0.0000000    0.0000000    0.0000000  
C   -1.1546563    0.0001470   -0.8669513  
C   -0.6372014    0.0003519   -2.2486282  
N    0.7342871    0.0007337   -2.1395014  
C   -1.4147739    0.0001352   -3.3608717  
C   -2.8576049   -0.0001048   -3.1854462  
O   -3.6427779   -0.0002494   -4.1244907  
C   -3.4275840   -0.0000725   -1.7311666  
O   -4.6406831    0.0000333   -1.5710060  
C   -2.4891867   -0.0001091   -0.6116744  
H   -2.8919122   -0.0002918    0.3920866  
H    2.1388272    0.0000663   -0.5261648  
H    1.3735872   -0.0006099   -2.9130262  
C    0.8400945    0.7047457    2.2710304  
C    0.0000000    0.0000000    1.4700000  
C   -0.8844236   -0.7423113    2.3369512  
C   -0.4878984   -0.4098547    3.7186280  
N    0.5629682    0.4714286    3.6095011  
C   -1.0836927   -0.9095027    4.8308716  
C   -2.1891196   -1.8367527    4.6554461  
O   -2.7906899   -2.3413415    5.5944904  
C   -2.6257283   -2.2031529    3.2011665  
O   -3.5549479   -2.9829990    3.0410059  
C   -1.9068976   -1.5999348    2.0816745  
H   -0.7774656   -0.6525820    5.8354244  
H   -2.2155208   -1.8586617    1.0779135  
H    1.6384792    1.3747609    1.9961646  
H    1.0518368    0.8833920    4.3830260  
