60

C    5.2518945   -4.3052305   -3.6658978  
C    5.9433145   -4.9156797   -4.6865629  
C    5.3637001   -4.4654614   -5.9096540  
C    4.3140403   -3.5741410   -5.5695235  
N    4.2721113   -3.5009599   -4.1993030  
C    3.5218373   -2.9372290   -6.5294953  
C    3.7944193   -3.2047425   -7.8570168  
O    3.0517353   -2.6094702   -8.8353238  
C    4.8372812   -4.0914032   -8.2163066  
O    4.9836815   -4.2544525   -9.5784096  
C    5.6190352   -4.7202949   -7.2697965  
H    6.7637209   -5.6020006   -4.5645373  
H    3.6343814   -2.9366229   -3.6675079  
H    3.4024726   -2.9288811   -9.6768843  
H    5.7082175   -4.8677005   -9.7351855  
H    6.4106273   -5.3945206   -7.5752129  
H    5.3791881   -4.3810028   -2.5995900  
C    2.4320882   -2.0124030   -6.1859205  
C    2.0200837   -1.6305796   -4.9546439  
C    0.9177872   -0.7123209   -5.1959807  
C    0.7970290   -0.6538285   -6.6685907  
N    1.6820128   -1.4139329   -7.2542818  
C   -0.1937174    0.1588212   -7.3190579  
C   -1.0262436    0.8799454   -6.5340644  
O   -1.9968167    1.6808089   -7.0059188  
C   -0.9297033    0.8417617   -5.0449767  
O   -1.7202575    1.5239995   -4.3932128  
C    0.0950446    0.0004351   -4.4015596  
H    2.4153101   -1.9345894   -4.0004689  
H   -0.2592098    0.1826830   -8.3970423  
H   -2.4169006    2.0561000   -6.2110357  
C    3.3321173    0.0004713   -1.3379338  
C    2.6974181    0.0000116   -2.5332314  
C    1.2800438   -0.0002119   -2.2052841  
C    1.2395034    0.0000643   -0.7271299  
N    2.4394062    0.0005460   -0.2131038  
C    0.0000000    0.0000000    0.0000000  
C   -1.1468702    0.0000634   -0.7169543  
O   -2.3742203    0.0000074   -0.1695487  
C   -1.1388770    0.0001607   -2.2096355  
O   -2.2206234    0.0000905   -2.7970411  
C    0.1454522    0.0001815   -2.9324241  
H    3.1367984   -0.0000653   -3.5160950  
H   -2.9844346    0.0001026   -0.9290167  
H    4.3940038    0.0007618   -1.1498640  
C    0.0000000    0.0000000    1.4700000  
C    1.0541688    0.0001722    2.3260392  
C    0.5103138    0.0000454    3.6635956  
C   -0.9576371   -0.0002459    3.5155732  
N   -1.2018458    0.0001392    2.1615969  
C   -1.8348311   -0.0008317    4.5510609  
C   -1.2972847   -0.0009736    5.9014604  
O   -2.0050672   -0.0014265    6.9001319  
C    0.2542623   -0.0004184    6.0817573  
O    0.7184670   -0.0002256    7.2139121  
C    1.0974552   -0.0000873    4.8889129  
H    2.0940752    0.0005483    2.0517982  
H   -2.9081052   -0.0011668    4.4207061  
H    2.1707277    0.0000911    5.0223670  
H   -2.1128194   -0.0014912    1.7406791  
