64

C    7.6758873   -1.0931344   -4.3258686  
C    6.8548572    0.0082878   -4.3983054  
C    7.6822761    1.1237042   -4.7236126  
C    9.0098507    0.6376345   -4.8385416  
N    8.9707313   -0.7117552   -4.5890726  
C   10.0933621    1.4640161   -5.1514066  
C    9.8318865    2.8054665   -5.3522025  
O   10.8531704    3.6569182   -5.6604653  
C    8.5140921    3.3094464   -5.2415890  
O    8.4170251    4.6665831   -5.4698443  
C    7.4447392    2.4948282   -4.9327041  
H    9.7623831   -1.3288899   -4.6094031  
H   11.1075633    1.0997471   -5.2403237  
H   10.4582761    4.5332536   -5.7572071  
H    7.4952717    4.9256639   -5.3757681  
H    6.4465251    2.9094956   -4.8546219  
H    7.4405097   -2.1203430   -4.1058713  
C    4.3488999   -2.1006741   -1.4732764  
C    3.1285972   -1.6364581   -1.8466928  
C    3.3412600   -0.7405811   -2.9589043  
C    4.7959155   -0.7207998   -3.2046231  
N    5.3494459   -1.5655069   -2.2702982  
C    5.4017639    0.0079521   -4.1759997  
C    4.5653395    0.8276895   -5.0367899  
O    5.0159503    1.5198388   -5.9402171  
C    3.0222821    0.8221878   -4.7944081  
O    2.3079746    1.5086269   -5.5126189  
C    2.4861704   -0.0045255   -3.7159919  
H    2.1869565   -1.8922662   -1.3944886  
H    4.6014745   -2.7885460   -0.6827525  
H    6.3291323   -1.7643315   -2.1823793  
C    0.0000000    0.0000000    0.0000000  
C    1.0521669   -0.0011848   -0.8862341  
C    0.4917221   -0.0011931   -2.1979130  
C   -0.9187427    0.0003100   -2.0478683  
N   -1.1833170   -0.0009472   -0.7007915  
C   -1.7951698    0.0010259   -3.1372090  
C   -1.2375835    0.0005161   -4.4010425  
O   -2.0474208    0.0015256   -5.4997580  
C    0.1673584   -0.0013557   -4.5711962  
O    0.5673529   -0.0020659   -5.8915551  
C    1.0325773   -0.0023359   -3.4969890  
H    2.0953059   -0.0030542   -0.6200560  
H   -2.0989777    0.0102265   -0.2891825  
H   -2.8710930    0.0020274   -3.0295514  
H   -1.4634881    0.0006427   -6.2693593  
H    1.5290715   -0.0033076   -5.9180042  
C    3.3003543   -0.0005276    2.9438989  
C    2.5232812   -0.0003497    4.0790748  
C    1.1623199    0.0001319    3.6520102  
C    1.1711883   -0.0000583    2.2336141  
N    2.4852299    0.0014920    1.8362361  
C    0.0000000    0.0000000    1.4700000  
C   -1.2020384   -0.0000520    2.1506477  
O   -2.3759250   -0.0003494    1.4542253  
C   -1.2314658    0.0005113    3.5655508  
O   -2.5054393    0.0008037    4.0950179  
C   -0.0764518    0.0007272    4.3195194  
H    2.8919952    0.0005619    5.0905303  
H    2.8036267   -0.0088181    0.8841339  
H   -3.0835639   -0.0000348    2.1118817  
H   -2.4360050    0.0011527    5.0545920  
H   -0.1304098    0.0013421    5.4019087  
H    4.3715549   -0.0004895    2.8367138  
