64

C   -0.1387082    0.0017016   -4.3179681  
C    0.8680288    0.0011949   -5.2554904  
C    0.2429716    0.0018226   -6.5376381  
C   -1.1582733    0.0029973   -6.3175526  
N   -1.3554494    0.0009409   -4.9589746  
C   -2.0878508    0.0041700   -7.3619059  
C   -1.5938811    0.0044637   -8.6519334  
O   -2.4574189    0.0059469   -9.7089641  
C   -0.1991536    0.0029308   -8.8918274  
O    0.1346053    0.0030284  -10.2304644  
C    0.7184764    0.0015001   -7.8620320  
H    1.9231270   -0.0006423   -5.0415805  
H   -2.2494823    0.0117255   -4.5022805  
H   -3.1570799    0.0049245   -7.2008117  
H   -1.9125279    0.0055952  -10.5066857  
H    1.0938142    0.0019684  -10.3047657  
C    3.3041272    0.0001176   -1.5420427  
C    2.5845371   -0.0004781   -0.3695851  
C    1.2040006   -0.0000008   -0.7283587  
C    1.1422374    0.0006037   -2.1454372  
N    2.4348640    0.0026109   -2.6077464  
C   -0.0655181    0.0008796   -2.8497919  
C   -1.2321767    0.0002324   -2.1101402  
O   -2.4392817    0.0001147   -2.7472522  
C   -1.1911210   -0.0000007   -0.6955260  
O   -2.4371528   -0.0002319   -0.1032862  
C    0.0000000    0.0000000    0.0000000  
H    3.0031534   -0.0000661    0.6222589  
H    2.7054628   -0.0071099   -3.5745258  
H   -3.1132992   -0.0000649   -2.0551787  
H   -2.3200286   -0.0004070    0.8516416  
H    4.3686622    0.0004070   -1.7024288  
C    4.1020349   -2.1243680   -5.9670134  
C    5.0974756   -1.6261276   -6.7752968  
C    4.4734909   -0.7506608   -7.7127404  
C    3.0845485   -0.7544677   -7.4250764  
N    2.8930796   -1.6002960   -6.3608714  
C    2.1593629   -0.0003147   -8.1531379  
C    2.6451957    0.7719811   -9.1902992  
O    1.7855099    1.5280590   -9.9334687  
C    4.0275649    0.7887293   -9.4929408  
O    4.3543149    1.6072134  -10.5543845  
C    4.9408206    0.0447807   -8.7752846  
H    6.1444070   -1.8652145   -6.6993668  
H    2.0091903   -1.7960040   -5.9267983  
H    2.3233456    1.9821273  -10.5951480  
H    5.3053148    1.5611045  -10.6925041  
H    5.9935541    0.0776769   -9.0305268  
H    4.1585707   -2.8132123   -5.1416311  
C    2.5128556    2.1077716    2.9199648  
C    1.9592212    1.6432552    4.0696553  
C    0.8915788    0.7479214    3.6910360  
C    0.8684491    0.7287414    2.2159470  
N    1.8754542    1.5738793    1.8102719  
C    0.0000000    0.0000000    1.4700000  
C   -0.9772830   -0.8200135    2.1664417  
O   -1.8021297   -1.5120829    1.5842315  
C   -0.9711318   -0.8147624    3.7284083  
O   -1.7894187   -1.5009653    4.3257297  
C    0.0140216    0.0115358    4.4216297  
H    2.2638494    1.8988021    5.0689105  
H    0.0117648    0.0094386    5.5031631  
H    3.3327358    2.7953732    2.7900019  
H    2.1123206    1.7707734    0.8551938  
