64

C    9.7142130   -0.7336080    1.5918025  
C    9.0579928   -0.0133847    0.6206585  
C   10.0523803    0.7002674   -0.1117991  
C   11.3073356    0.3730876    0.4626271  
N   11.0657492   -0.4980874    1.4957324  
C   12.5146701    0.8971008   -0.0091193  
C   12.4540553    1.7670147   -1.0804520  
O   13.6030018    2.3076016   -1.5811528  
C   11.2114625    2.1059280   -1.6668977  
O   11.3175294    2.9846348   -2.7251829  
C   10.0199800    1.5895668   -1.2018549  
H   11.7677638   -0.9115490    2.0824247  
H   13.4744136    0.6518155    0.4243881  
H   13.3392136    2.8782748   -2.3146460  
H   10.4343988    3.1612438   -3.0635503  
H    9.0836096    1.8676939   -1.6712523  
H    9.3249918   -1.3955607    2.3463116  
C    6.6540977   -0.0013090    1.3962728  
C    5.4018076   -0.0015694    0.8268551  
C    5.5874909   -0.0008947   -0.5874014  
C    6.9861188   -0.0005211   -0.8235502  
N    7.6043962    0.0011647    0.4021523  
C    7.5360617   -0.0001392   -2.1089883  
C    6.6581048   -0.0004414   -3.1754633  
O    7.1413992   -0.0004418   -4.4519583  
C    5.2593677   -0.0004399   -2.9601678  
O    4.5179016   -0.0003364   -4.1235989  
C    4.7161325   -0.0005435   -1.6923264  
H    4.4691981   -0.0010660    1.3646588  
H    8.6011207    0.0002906   -2.2956726  
H    6.3714457   -0.0003764   -5.0354278  
H    3.5847247   -0.0003701   -3.8895380  
H    6.9446144   -0.0012468    2.4328822  
C    3.2573665   -0.0002920   -1.5109385  
C    2.5379463   -0.0001709   -0.3591964  
C    1.1435038    0.0000331   -0.7338500  
C    1.1092599   -0.0000083   -2.2088477  
N    2.4227553    0.0001909   -2.6182613  
C   -0.0265539   -0.0002524   -2.9515660  
C   -1.3003040   -0.0002640   -2.2514977  
O   -2.3786790   -0.0004133   -2.8306421  
C   -1.2877727    0.0000311   -0.6895603  
O   -2.3539959    0.0003306   -0.0892030  
C    0.0000000    0.0000000    0.0000000  
H    2.9384091   -0.0000367    0.6389234  
H   -0.0296303   -0.0004086   -4.0327229  
H    2.7280482   -0.0013407   -3.5742119  
C    0.8576279    0.7185626    2.2703808  
C    0.0000000    0.0000000    1.4700000  
C   -0.8668858   -0.7285659    2.3373528  
C   -0.4876752   -0.4117774    3.6669281  
N    0.5635254    0.4678311    3.5902241  
C   -1.1297612   -0.9515493    4.7854808  
C   -2.1738724   -1.8268314    4.5576857  
O   -2.8357962   -2.3827064    5.6140350  
C   -2.5667212   -2.1555554    3.2384331  
O   -3.6226318   -3.0413663    3.1773122  
C   -1.9335634   -1.6236449    2.1344818  
H    1.0363952    0.8769718    4.3757045  
H   -0.8454472   -0.7142436    5.8013813  
H   -3.5178062   -2.9546422    5.2385129  
H   -3.8247440   -3.2102924    2.2519915  
H   -2.2566033   -1.8942483    1.1360343  
H    1.6567807    1.3889844    2.0042067  
