60

C    7.2710369   -3.5935378   -3.7418947  
C    6.8116939   -2.9430575   -4.8636557  
C    7.6502319   -3.3392769   -5.9473825  
C    8.6113988   -4.2404292   -5.4220180  
N    8.3538100   -4.3711481   -4.0799384  
C    9.6022367   -4.8335143   -6.2102318  
C    9.6229738   -4.5112508   -7.5533229  
O   10.5689726   -5.0621358   -8.3685685  
C    8.6726857   -3.6139228   -8.0960665  
O    8.8254252   -3.3941272   -9.4494714  
C    7.6950875   -3.0282468   -7.3190139  
H    8.8670116   -4.9551423   -3.4446771  
H   10.3377797   -5.5210064   -5.8158561  
H   10.4065979   -4.7087794   -9.2528982  
H    8.1449515   -2.7773787   -9.7361423  
H    6.9808928   -2.3445464   -7.7628141  
H    6.9128545   -3.5632243   -2.7271312  
C    5.6703524   -2.0177344   -4.9085743  
C    4.8680132   -1.6338541   -3.8885417  
C    3.9117994   -0.7160921   -4.4884317  
C    4.2939635   -0.6601083   -5.9158071  
N    5.3241007   -1.4211366   -6.1680806  
C    3.5804919    0.1513591   -6.8632060  
C    2.5326227    0.8737497   -6.4055417  
O    1.7779995    1.6737359   -7.1779450  
C    2.1221166    0.8381007   -4.9708377  
O    1.1586088    1.5213822   -4.6244278  
C    2.8699641   -0.0020530   -4.0185824  
H    4.9187306   -1.9362135   -2.8565134  
H    3.8818032    0.1733865   -7.9003344  
H    1.1149872    2.0503428   -6.5715340  
C    3.2573670   -0.0002921   -1.5109382  
C    2.5379468   -0.0001711   -0.3591962  
C    1.1435043    0.0000330   -0.7338498  
C    1.1092608   -0.0000085   -2.2088474  
N    2.4227562    0.0001906   -2.6182610  
C   -0.0265533   -0.0002525   -2.9515663  
C   -1.3003033   -0.0002641   -2.2514979  
O   -2.3786785   -0.0004132   -2.8306425  
C   -1.2877724    0.0000310   -0.6895608  
O   -2.3539956    0.0003306   -0.0892035  
C    0.0000000    0.0000000    0.0000000  
H    2.9384091   -0.0000370    0.6389240  
H   -0.0296290   -0.0004088   -4.0327231  
H    4.3270394   -0.0004767   -1.6439445  
C    0.8681109    0.7263879    2.2709268  
C    0.6127770    0.5096195    3.5869401  
C   -0.4920590   -0.4175482    3.6542670  
C   -0.8620974   -0.7254003    2.2596025  
N    0.0000000    0.0000000    1.4700000  
C   -1.8641242   -1.5660088    1.8976294  
C   -2.6293522   -2.2103885    2.9520183  
O   -3.5512764   -2.9839180    2.7283916  
C   -2.2549728   -1.8987399    4.4361073  
O   -2.8923672   -2.4351063    5.3323774  
C   -1.1543735   -0.9755647    4.7012123  
H    1.1382914    0.9492124    4.4159191  
H   -2.1192137   -1.7782617    0.8686553  
H   -0.9013378   -0.7652422    5.7314848  
H    1.6172880    1.3558399    1.8188057  
