60

C    8.1601548    0.7093499   -4.2907395  
C    8.8562483    0.4589298   -5.4505721  
C    9.9051389   -0.4490347   -5.1188650  
C    9.7979534   -0.7195367   -3.7306046  
N    8.7293340    0.0012712   -3.2582632  
C   10.6724335   -1.5781700   -3.0576833  
C   11.6731641   -2.1748344   -3.7997807  
O   12.5543052   -3.0223156   -3.1928400  
C   11.7966233   -1.9171909   -5.1858529  
O   12.8439164   -2.5866024   -5.7845271  
C   10.9344492   -1.0700300   -5.8503075  
H    8.6358900    0.8798535   -6.4166258  
H   10.5961685   -1.7883718   -1.9997607  
H   13.1617669   -3.3233531   -3.8810491  
H   12.8567725   -2.3576872   -6.7188911  
H   11.0539311   -0.8918629   -6.9125970  
H    7.3035673    1.3381408   -4.1180003  
C    4.7390840    0.0009613   -1.2727298  
C    5.6949926    0.0015508   -2.2307581  
C    6.9549530    0.0016807   -1.5034352  
C    6.5623381    0.0012144   -0.0777997  
N    5.2646567    0.0007108    0.0636641  
C    7.5356726    0.0011408    0.9794169  
C    8.8418534    0.0011269    0.6283818  
O    9.8560150    0.0010683    1.5101514  
C    9.2698381    0.0012206   -0.8016498  
O   10.4759226    0.0013265   -1.0477817  
C    8.2523631    0.0013389   -1.8677960  
H    5.5615833    0.0017691   -3.2990638  
H    7.2204120    0.0010027    2.0126260  
H   10.6613105    0.0010481    0.9618336  
C    3.2798077    0.0005856   -1.4499661  
C    2.5571132    0.0005565   -2.5996564  
C    1.1637425    0.0001547   -2.2210366  
C    1.1336959   -0.0000200   -0.7459475  
N    2.4483509   -0.0001429   -0.3402730  
C    0.0000000    0.0000000    0.0000000  
C   -1.2757370   -0.0000187   -0.6964411  
O   -2.3524597   -0.0000640   -0.1142306  
C   -1.2676502   -0.0000874   -2.2584078  
O   -2.3355774   -0.0004102   -2.8557287  
C    0.0181551    0.0001758   -2.9516297  
H    2.9547342    0.0006074   -3.5989118  
H    0.0150776    0.0003317   -4.0331632  
H    2.7563626    0.0012823    0.6148051  
C    0.8400945    0.7047457    2.2710304  
C    0.0000000    0.0000000    1.4700000  
C   -0.8844236   -0.7423113    2.3369512  
C   -0.4878984   -0.4098547    3.7186280  
N    0.5629682    0.4714286    3.6095011  
C   -1.0836927   -0.9095027    4.8308716  
C   -2.1891196   -1.8367527    4.6554461  
O   -2.7906899   -2.3413415    5.5944904  
C   -2.6257283   -2.2031529    3.2011665  
O   -3.5549479   -2.9829990    3.0410059  
C   -1.9068976   -1.5999348    2.0816745  
H   -0.7774656   -0.6525820    5.8354244  
H   -2.2155208   -1.8586617    1.0779135  
H    1.6384792    1.3747609    1.9961646  
H    1.0518368    0.8833920    4.3830260  
