62

C    7.7880124   -4.2830310    0.3655840  
C    7.0279685   -3.4789596   -0.4518935  
C    5.6753555   -3.6021806   -0.0161709  
C    5.6715700   -4.5023189    1.0800332  
N    6.9700898   -4.8982838    1.2841793  
C    4.5040947   -4.8592282    1.7615060  
C    3.3188905   -4.2969802    1.3286728  
O    2.1493852   -4.6107218    1.9586237  
C    3.3022203   -3.3971078    0.2365332  
O    2.0443374   -2.9231595   -0.0740248  
C    4.4535441   -3.0447660   -0.4363970  
H    7.4022397   -2.8784303   -1.2632374  
H    7.2785481   -5.5286673    2.0021277  
H    4.4944895   -5.5448130    2.5976175  
H    1.4538927   -4.1170683    1.5049037  
H    2.1216262   -2.3225651   -0.8216321  
H    8.8486484   -4.4674497    0.3651685  
C    4.3939417   -2.1065670   -1.5664985  
C    5.4031217   -1.6413492   -2.3470132  
C    4.8103426   -0.7457934   -3.3121181  
C    3.3627147   -0.7272471   -3.0278290  
N    3.1757291   -1.5729266   -1.9588330  
C    2.4521483    0.0014840   -3.7217481  
C    2.9297301    0.8221550   -4.8221799  
O    2.1884022    1.5142697   -5.5075341  
C    4.4587969    0.8175814   -5.1411456  
O    4.8725549    1.5043410   -6.0654977  
C    5.3421066   -0.0087720   -4.3221491  
H    6.4439798   -1.8965716   -2.2570682  
H    6.3995019   -0.0062030   -4.5493776  
H    2.2909027   -1.7703225   -1.5285260  
C    0.0000000    0.0000000    0.0000000  
C    1.0662923   -0.0000101   -0.8334270  
C    0.4961873    0.0000065   -2.1718887  
C   -0.9663854   -0.0000848   -1.9540250  
N   -1.2632773   -0.0000083   -0.6828660  
C   -1.8985359   -0.0000514   -3.0477261  
C   -1.3925770    0.0004566   -4.3020547  
O   -2.1456378    0.0005414   -5.4151314  
C    0.0786240    0.0009326   -4.5545000  
O    0.4683767    0.0012591   -5.7221100  
C    1.0143171    0.0008444   -3.4159031  
H    2.1107200    0.0000633   -0.5721865  
H   -2.9622181   -0.0003268   -2.8593381  
H   -1.5042265    0.0009697   -6.1484419  
C    1.1188642   -0.0008217    2.2703808  
C    0.0000000    0.0000000    1.4700000  
C   -1.1323862   -0.0008904    2.3373528  
C   -0.6382662   -0.0019682    3.6669281  
N    0.7324016   -0.0038477    3.5902241  
C   -1.4770914   -0.0027325    4.7854808  
C   -2.8395474   -0.0020958    4.5576857  
O   -3.7039201   -0.0024443    5.6140350  
C   -3.3517868   -0.0013946    3.2384331  
O   -4.7300496   -0.0012389    3.1773122  
C   -2.5248543   -0.0009135    2.1344818  
H    1.3576314    0.0056174    4.3757045  
H   -1.1067570   -0.0036993    5.8013813  
H   -4.5940033   -0.0021850    5.2385129  
H   -4.9934601   -0.0007286    2.2519915  
H   -2.9462578   -0.0005617    1.1360343  
H    2.1619896   -0.0009344    2.0042067  
