62

C   -4.5189775    2.1246694   -0.2045469  
C   -3.4217425    1.6624058   -0.8936442  
C   -3.9056800    0.7751177   -1.9001854  
C   -5.3180923    0.7354090   -1.7759236  
N   -5.6571955    1.5645633   -0.7356687  
C   -6.1291076   -0.0406008   -2.6095007  
C   -5.5029174   -0.7899449   -3.5865099  
O   -6.2471510   -1.5652559   -4.4279511  
C   -4.0948410   -0.7638251   -3.7259887  
O   -3.6223028   -1.5644416   -4.7453337  
C   -3.2941075    0.0012873   -2.9038235  
H   -2.3983457    1.9307552   -0.6945477  
H   -6.5926190    1.7461788   -0.4194748  
H   -7.2061218   -0.0753210   -2.5198566  
H   -5.6225447   -1.9984079   -5.0241983  
H   -2.6635122   -1.4893478   -4.7714900  
H   -4.5796114    2.8084909    0.6247125  
C    0.0000000    0.0000000    0.0000000  
C    1.0541688   -0.0001722   -0.8560392  
C    0.5103135   -0.0000454   -2.1935954  
C   -0.9576375    0.0002459   -2.0455728  
N   -1.2018462   -0.0001392   -0.6915966  
C   -1.8348315    0.0008316   -3.0810604  
C   -1.2972851    0.0009737   -4.4314603  
O   -2.0050681    0.0014265   -5.4301316  
C    0.2542617    0.0004185   -4.6117570  
O    0.7184664    0.0002257   -5.7439119  
C    1.0974549    0.0000874   -3.4189129  
H    2.0940751   -0.0005482   -0.5817983  
H   -2.1128195    0.0014911   -0.2706785  
C    4.3630975   -2.0949046   -1.3110660  
C    3.1522508   -1.6320810   -1.7156890  
C    3.3924167   -0.7354502   -2.8216766  
C    4.8529061   -0.7137088   -3.0297353  
N    5.3832061   -1.5581164   -2.0817651  
C    5.4827040    0.0162368   -3.9848471  
C    4.6677380    0.8352826   -4.8666232  
O    5.1406419    1.5283982   -5.7578323  
C    3.1189437    0.8277096   -4.6641782  
O    2.4225425    1.5135507   -5.4003222  
C    2.5562209   -0.0001551   -3.6003007  
H    2.1995744   -1.8892851   -1.2880587  
H    6.5552961    0.0179164   -4.1206920  
H    4.5960539   -2.7827982   -0.5145589  
H    6.3605501   -1.7557311   -1.9686527  
C    1.1188642   -0.0008217    2.2703808  
C    0.0000000    0.0000000    1.4700000  
C   -1.1323862   -0.0008904    2.3373528  
C   -0.6382662   -0.0019682    3.6669281  
N    0.7324016   -0.0038477    3.5902241  
C   -1.4770914   -0.0027325    4.7854808  
C   -2.8395474   -0.0020958    4.5576857  
O   -3.7039201   -0.0024443    5.6140350  
C   -3.3517868   -0.0013946    3.2384331  
O   -4.7300496   -0.0012389    3.1773122  
C   -2.5248543   -0.0009135    2.1344818  
H    1.3576314    0.0056174    4.3757045  
H   -1.1067570   -0.0036993    5.8013813  
H   -4.5940033   -0.0021850    5.2385129  
H   -4.9934601   -0.0007286    2.2519915  
H   -2.9462578   -0.0005617    1.1360343  
H    2.1619896   -0.0009344    2.0042067  
