60

C    9.8351541   -0.7099173   -2.0353338  
C   11.1827371   -0.4593989   -1.9181611  
C   11.5295409    0.4493962   -2.9614343  
C   10.3425117    0.7202803   -3.6891102  
N    9.3330569   -0.0011080   -3.1015590  
C   10.3106877    1.5797361   -4.7914311  
C   11.4987469    2.1768457   -5.1658050  
O   11.5242589    3.0251326   -6.2348095  
C   12.6935520    1.9188322   -4.4525815  
O   13.7927921    2.5887678   -4.9487678  
C   12.7257394    1.0708598   -3.3651844  
H   11.8357088   -0.8807913   -1.1731446  
H    9.4092912    1.7902327   -5.3503379  
H   12.4379433    3.3263621   -6.3225939  
H   14.5569344    2.3595549   -4.4110396  
H   13.6560286    0.8924262   -2.8386847  
H    9.1927043   -1.3392411   -1.4435841  
C    5.6736559   -0.0009558   -0.7359122  
C    4.7161325   -0.0005435   -1.6923264  
C    5.4441200   -0.0005498   -2.9519031  
C    6.8695485   -0.0008929   -2.5585357  
N    7.0103269   -0.0012127   -1.2607796  
C    7.9272785   -0.0010475   -3.5313119  
C    7.5769325   -0.0012565   -4.8376780  
O    8.4592368   -0.0014099   -5.8513741  
C    6.1471274   -0.0012911   -5.2664175  
O    5.9016318   -0.0013616   -6.4726314  
C    5.0804442   -0.0010863   -4.2495047  
H    7.9113445   -0.0015669   -6.6569584  
H    4.0573860   -0.0012340   -4.6010477  
H    5.5430682   -0.0010921    0.3345643  
C    3.2573665   -0.0002920   -1.5109385  
C    2.5379463   -0.0001709   -0.3591964  
C    1.1435038    0.0000331   -0.7338500  
C    1.1092599   -0.0000083   -2.2088477  
N    2.4227553    0.0001909   -2.6182613  
C   -0.0265539   -0.0002524   -2.9515660  
C   -1.3003040   -0.0002640   -2.2514977  
O   -2.3786790   -0.0004133   -2.8306421  
C   -1.2877727    0.0000311   -0.6895603  
O   -2.3539959    0.0003306   -0.0892030  
C    0.0000000    0.0000000    0.0000000  
H    2.9384091   -0.0000367    0.6389234  
H   -0.0296303   -0.0004086   -4.0327229  
H    2.7280482   -0.0013407   -3.5742119  
C    2.5528530    2.1414826    2.8079335  
C    2.0663498    1.7338582    4.0032312  
C    0.9804344    0.8229586    3.6752840  
C    0.9495562    0.7966882    2.1971295  
N    1.8690446    1.5676019    1.6831036  
C    0.0000000    0.0000000    1.4700000  
C   -0.8785127   -0.7372425    2.1869543  
O   -1.8187535   -1.5261249    1.6395491  
C   -0.8723269   -0.7321790    3.6796354  
O   -1.7010379   -1.4274584    4.2670412  
C    0.1115397    0.0933559    4.4024240  
H    2.4028853    2.0163452    4.9860947  
H   -2.2861435   -1.9184361    2.3990168  
H    0.0832434    0.0693689    5.4835595  
H    3.3664920    2.8238276    2.6198634  
