62

C    3.4585346   -5.3005220   -8.0354944  
C    4.0319924   -4.7757766   -9.1705066  
C    3.7214965   -3.3837025   -9.1884330  
C    2.9500640   -3.1143676   -8.0290040  
N    2.8074023   -4.3002371   -7.3522622  
C    2.4675464   -1.8387511   -7.7211606  
C    2.7695390   -0.8163431   -8.5996020  
O    2.3237407    0.4487751   -8.3471079  
C    3.5375854   -1.0652991   -9.7619025  
O    3.7528922    0.0558176  -10.5365532  
C    4.0137003   -2.3235281  -10.0663689  
H    4.6028407   -5.3285746   -9.8968269  
H    2.3159182   -4.4178848   -6.4847462  
H    2.6411091    1.0002680   -9.0740171  
H    4.2789004   -0.1989625  -11.3007566  
H    4.5993020   -2.4837781  -10.9640712  
H    3.4612528   -6.3094559   -7.6599914  
C    1.8886554   -2.0886684   -5.2633582  
C    0.9763568   -1.6271610   -4.3696039  
C    0.1009360   -0.7303189   -5.0866450  
C    0.5814323   -0.7070197   -6.4814105  
N    1.6673584   -1.5508186   -6.5221212  
C    0.0179866    0.0235611   -7.4766418  
C   -1.1387602    0.8416958   -7.1524081  
O   -1.7168207    1.5352806   -7.9788978  
C   -1.6645102    0.8324700   -5.6815895  
O   -2.6375206    1.5175330   -5.3966326  
C   -0.9736297    0.0040464   -4.6965763  
H    0.9228835   -1.8853690   -3.3269709  
H    0.3859641    0.0263855   -8.4932504  
H    2.7041548   -2.7762787   -5.1083002  
C    1.1188642    0.0008222   -0.8003808  
C    0.0000000    0.0000000    0.0000000  
C   -1.1323862    0.0008899   -0.8673528  
C   -0.6382663    0.0019679   -2.1969280  
N    0.7324016    0.0038481   -2.1202242  
C   -1.4770914    0.0027318   -3.3154808  
C   -2.8395473    0.0020945   -3.0876857  
O   -3.7039201    0.0024425   -4.1440349  
C   -3.3517868    0.0013931   -1.7684331  
O   -4.7300497    0.0012366   -1.7073121  
C   -2.5248543    0.0009123   -0.6644817  
H    1.3576314   -0.0056167   -2.9057046  
H   -4.5940032    0.0021826   -3.7685128  
H   -4.9934602    0.0007259   -0.7819913  
H   -2.9462577    0.0005603    0.3339659  
H    2.1619895    0.0009355   -0.5342068  
C    0.0000000    0.0000000    1.4700000  
C    1.0541688    0.0001722    2.3260392  
C    0.5103138    0.0000454    3.6635956  
C   -0.9576371   -0.0002459    3.5155732  
N   -1.2018458    0.0001392    2.1615969  
C   -1.8348311   -0.0008317    4.5510609  
C   -1.2972847   -0.0009736    5.9014604  
O   -2.0050672   -0.0014265    6.9001319  
C    0.2542623   -0.0004184    6.0817573  
O    0.7184670   -0.0002256    7.2139121  
C    1.0974552   -0.0000873    4.8889129  
H    2.0940752    0.0005483    2.0517982  
H   -2.9081052   -0.0011668    4.4207061  
H    2.1707277    0.0000911    5.0223670  
H   -2.1128194   -0.0014912    1.7406791  
