66

C    4.2698009    0.1557270   -6.7077916  
C    5.4565275   -0.4898696   -6.9673147  
C    5.8808834   -0.0755431   -8.2645635  
C    4.9049588    0.8311121   -8.7518760  
N    3.9397048    0.9475607   -7.7826801  
C    4.9990649    1.4413443  -10.0062885  
C    6.0985417    1.1308874  -10.7827836  
O    6.2402623    1.6986846  -12.0158833  
C    7.0827183    0.2283200  -10.3141844  
O    8.1163913    0.0217979  -11.2042483  
C    6.9903911   -0.3742689   -9.0768938  
H    5.9544671   -1.1759806   -6.3037628  
H    3.1251185    1.5314304   -7.8420679  
H    4.2585694    2.1331141  -10.3835468  
H    7.0633210    1.3512636  -12.3834946  
H    8.7367687   -0.5995823  -10.8110280  
H    7.7597543   -1.0615970   -8.7450217  
C    4.6027285   -2.0944967   -2.9150972  
C    3.4411564   -1.6373419   -2.3369733  
C    2.8377888   -0.7405118   -3.2676951  
C    3.6836207   -0.6899842   -4.4052102  
N    4.7469285   -1.5221608   -4.1572673  
C    3.3988817    0.0972715   -5.5250053  
C    2.2389990    0.8469468   -5.4960813  
O    1.9125740    1.6330033   -6.5631224  
C    1.3824833    0.8101281   -4.3700960  
O    0.2670647    1.6125636   -4.4937162  
C    1.6628945    0.0339172   -3.2649299  
H    3.0744455   -1.9151389   -1.3636568  
H    5.5062373   -1.6979116   -4.7901521  
H    1.0776870    2.0643813   -6.3392000  
H   -0.2575671    1.5298018   -3.6915217  
H    5.3404964   -2.7824370   -2.5390698  
C    1.1243410    0.0100105   -0.7919003  
C    0.7474072    0.0234665   -2.1148542  
C   -0.6787384    0.0234379   -2.1414698  
C   -1.1201748    0.0098411   -0.7935547  
N    0.0000000    0.0000000    0.0000000  
C   -2.4730818    0.0063307   -0.4408240  
C   -3.3971962    0.0170429   -1.4675058  
O   -4.7313520    0.0145490   -1.1793468  
C   -2.9763654    0.0303020   -2.8186325  
O   -4.0166484    0.0394464   -3.7247625  
C   -1.6418567    0.0334992   -3.1673480  
H   -2.8160166   -0.0041569    0.5845966  
H   -5.1938823    0.0230023   -2.0274386  
H   -3.6464680    0.0481700   -4.6127343  
H   -1.3497475    0.0435647   -4.2109234  
H    2.1062466    0.0053162   -0.3505405  
C    0.8576279    0.7185626    2.2703808  
C    0.0000000    0.0000000    1.4700000  
C   -0.8668858   -0.7285659    2.3373528  
C   -0.4876752   -0.4117774    3.6669281  
N    0.5635254    0.4678311    3.5902241  
C   -1.1297612   -0.9515493    4.7854808  
C   -2.1738724   -1.8268314    4.5576857  
O   -2.8357962   -2.3827064    5.6140350  
C   -2.5667212   -2.1555554    3.2384331  
O   -3.6226318   -3.0413663    3.1773122  
C   -1.9335634   -1.6236449    2.1344818  
H    1.0363952    0.8769718    4.3757045  
H   -0.8454472   -0.7142436    5.8013813  
H   -3.5178062   -2.9546422    5.2385129  
H   -3.8247440   -3.2102924    2.2519915  
H   -2.2566033   -1.8942483    1.1360343  
H    1.6567807    1.3889844    2.0042067  
