62

C    7.5592210   -4.2953458    0.6871679  
C    6.8510891   -3.4905653   -0.1750062  
C    5.4745403   -3.6110060    0.1788394  
C    5.4033165   -4.5102574    1.2734634  
N    6.6865127   -4.9083915    1.5554459  
C    4.1963923   -4.8645216    1.8838889  
C    3.0403377   -4.3004913    1.3803166  
O    1.8345590   -4.6116255    1.9391614  
C    3.0908984   -3.4014661    0.2885227  
O    1.8547955   -2.9255069   -0.0972950  
C    4.2811792   -3.0517334   -0.3143417  
H    7.2744824   -2.8913600   -0.9628412  
H    6.9501663   -5.5387524    2.2910481  
H    4.1353635   -5.5494174    2.7183908  
H    1.1684599   -4.1170869    1.4441780  
H    1.9779177   -2.3256518   -0.8393318  
H    8.6176288   -4.4816709    0.7505350  
C    4.2912332   -2.1143348   -1.4466323  
C    5.3462909   -1.6515572   -2.1654961  
C    4.8141506   -0.7557113   -3.1650566  
C    3.3521070   -0.7343355   -2.9681719  
N    3.0997470   -1.5788206   -1.9117396  
C    2.4861704   -0.0045255   -3.7159919  
C    3.0304430    0.8144036   -4.7863460  
O    2.3328579    1.5073002   -5.5154345  
C    4.5758847    0.8068266   -5.0129670  
O    5.0456349    1.4921002   -5.9112961  
C    5.4069283   -0.0204564   -4.1418632  
H    6.3794031   -1.9085775   -2.0130697  
H    6.4760574   -0.0199698   -4.3052245  
H    2.1903289   -1.7742811   -1.5351744  
C    0.0000000    0.0000000    0.0000000  
C    1.0521669   -0.0011848   -0.8862341  
C    0.4917221   -0.0011931   -2.1979130  
C   -0.9187427    0.0003100   -2.0478683  
N   -1.1833170   -0.0009472   -0.7007915  
C   -1.7951698    0.0010259   -3.1372090  
C   -1.2375835    0.0005161   -4.4010425  
O   -2.0474208    0.0015256   -5.4997580  
C    0.1673584   -0.0013557   -4.5711962  
O    0.5673529   -0.0020659   -5.8915551  
C    1.0325773   -0.0023359   -3.4969890  
H    2.0953059   -0.0030542   -0.6200560  
H   -2.0989777    0.0102265   -0.2891825  
H   -2.8710930    0.0020274   -3.0295514  
H   -1.4634881    0.0006427   -6.2693593  
H    1.5290715   -0.0033076   -5.9180042  
C    0.0000000    0.0000000    1.4700000  
C    1.0662921    0.0000102    2.3034270  
C    0.4961870   -0.0000064    3.6418889  
C   -0.9663858    0.0000850    3.4240247  
N   -1.2632773    0.0000084    2.1528658  
C   -1.8985362    0.0000517    4.5177257  
C   -1.3925775   -0.0004564    5.7720543  
O   -2.1456383   -0.0005410    6.8851312  
C    0.0786232   -0.0009323    6.0245000  
O    0.4683759   -0.0012588    7.1921102  
C    1.0143166   -0.0008442    4.8859032  
H    2.1107198   -0.0000632    2.0421868  
H   -2.9622183    0.0003270    4.3293377  
H   -1.5042274   -0.0009692    7.6184419  
H    2.0724152   -0.0013148    5.1109744  
