60

C    0.5558433   -2.7554628   -9.6493433  
C    1.0842134   -2.2273484  -10.8045005  
C    0.7712984   -0.8357031  -10.8072363  
C    0.0449305   -0.5700903   -9.6182172  
N   -0.0697690   -1.7576676   -8.9391587  
C   -0.4271068    0.7041193   -9.2890377  
C   -0.1607707    1.7289209  -10.1761812  
O   -0.5982434    2.9928097   -9.9037548  
C    0.5620737    1.4836880  -11.3678920  
O    0.7456665    2.6068387  -12.1477447  
C    1.0278199    0.2268488  -11.6934104  
H    1.6273055   -2.7776829  -11.5536181  
H   -0.5271500   -1.8779710   -8.0535452  
H   -0.3100167    3.5463848  -10.6411445  
H    1.2420675    2.3545381  -12.9323060  
H    1.5784706    0.0694628  -12.6134607  
H    0.5745093   -3.7652214   -9.2765209  
C    0.0063632   -0.7183650   -5.1315053  
C    0.1635205   -0.4995845   -6.4624867  
C   -0.8683531    0.4283168   -6.8613249  
C   -1.6451050    0.7344066   -5.6448723  
N   -1.0641734    0.0073898   -4.6315339  
C   -2.7096558    1.5750809   -5.6036142  
C   -3.1177654    2.2213966   -6.8398416  
O   -4.0639306    2.9951418   -6.9061054  
C   -2.3096737    1.9116343   -8.1401647  
O   -2.6441253    2.4496388   -9.1870427  
C   -1.1807017    0.9881992   -8.0592842  
H    0.9162680   -0.9383065   -7.0929690  
H   -3.2656673    1.7860234   -4.7006940  
H    0.5824087   -1.3488902   -4.4738586  
C    1.1319248    0.0015675   -0.8009270  
C    0.7969916    0.0034959   -2.1169404  
C   -0.6453336    0.0035703   -2.1842672  
C   -1.1266831    0.0015415   -0.7896027  
N    0.0000000    0.0000000    0.0000000  
C   -2.4346129    0.0013924   -0.4276297  
C   -3.4350110    0.0031352   -1.4820184  
O   -4.6384610    0.0030897   -1.2583919  
C   -2.9478958    0.0050460   -2.9661075  
O   -3.7809377    0.0062160   -3.8623775  
C   -1.5113821    0.0053068   -3.2312125  
H    1.4821240    0.0045436   -2.9459192  
H   -2.7664565    0.0000185    0.6013447  
H    2.1104318    0.0009428   -0.3488058  
C    0.8400945    0.7047457    2.2710304  
C    0.0000000    0.0000000    1.4700000  
C   -0.8844236   -0.7423113    2.3369512  
C   -0.4878984   -0.4098547    3.7186280  
N    0.5629682    0.4714286    3.6095011  
C   -1.0836927   -0.9095027    4.8308716  
C   -2.1891196   -1.8367527    4.6554461  
O   -2.7906899   -2.3413415    5.5944904  
C   -2.6257283   -2.2031529    3.2011665  
O   -3.5549479   -2.9829990    3.0410059  
C   -1.9068976   -1.5999348    2.0816745  
H   -0.7774656   -0.6525820    5.8354244  
H   -2.2155208   -1.8586617    1.0779135  
H    1.6384792    1.3747609    1.9961646  
H    1.0518368    0.8833920    4.3830260  
