60

C    5.2243018   -4.4189319   -8.5020307  
C    4.2454279   -3.5958465   -7.9952710  
C    4.3356546   -3.6679789   -6.5735626  
C    5.3971436   -4.5579826   -6.2685036  
N    5.9137842   -4.9973116   -7.4621078  
C    5.7709987   -4.8680102   -4.9574338  
C    5.0605372   -4.2684299   -3.9357066  
O    5.3839591   -4.5356887   -2.6368666  
C    3.9979656   -3.3779422   -4.2199417  
O    3.3881686   -2.8630143   -3.0946237  
C    3.6284256   -3.0718420   -5.5131045  
H    3.5509736   -3.0157562   -8.5785556  
H    6.6853340   -5.6318958   -7.5620651  
H    6.5789826   -5.5456311   -4.7182824  
H    4.7734794   -4.0219508   -2.0922078  
H    2.6825774   -2.2719336   -3.3745671  
H    5.4842846   -4.6402966   -9.5229938  
C    2.5185215   -2.1418780   -5.7664428  
C    2.0285777   -1.7344761   -6.9604104  
C    0.9435058   -0.8236405   -6.6295061  
C    0.9168304   -0.7971602   -5.1512739  
N    1.8378567   -1.5679052   -4.6397550  
C   -0.0307352   -0.0004646   -4.4215603  
C   -0.9113601    0.7365845   -5.1361187  
O   -1.8501211    1.5254496   -4.5861545  
C   -0.9094206    0.7313062   -6.6288105  
O   -1.7398708    1.4264157   -7.2139564  
C    0.0724707   -0.0942318   -7.3542764  
H    2.3623447   -2.0170704   -7.9441870  
H   -2.3197104    1.9176033   -5.3443459  
H    0.0410964   -0.0704039   -8.4353302  
C    3.2573670   -0.0002920   -1.5109380  
C    2.5379468   -0.0001709   -0.3591961  
C    1.1435043    0.0000332   -0.7338500  
C    1.1092609   -0.0000082   -2.2088477  
N    2.4227562    0.0001909   -2.6182613  
C   -0.0265532   -0.0002522   -2.9515663  
C   -1.3003035   -0.0002639   -2.2514981  
O   -2.3786784   -0.0004131   -2.8306429  
C   -1.2877725    0.0000312   -0.6895608  
O   -2.3539958    0.0003307   -0.0892036  
C    0.0000000    0.0000000    0.0000000  
H    2.9384091   -0.0000369    0.6389239  
H    4.3270394   -0.0004765   -1.6439446  
H    2.7280494   -0.0013406   -3.5742113  
C    0.0000000    0.0000000    1.4700000  
C    1.0662921    0.0000102    2.3034270  
C    0.4961870   -0.0000064    3.6418889  
C   -0.9663858    0.0000850    3.4240247  
N   -1.2632773    0.0000084    2.1528658  
C   -1.8985362    0.0000517    4.5177257  
C   -1.3925775   -0.0004564    5.7720543  
O   -2.1456383   -0.0005410    6.8851312  
C    0.0786232   -0.0009323    6.0245000  
O    0.4683759   -0.0012588    7.1921102  
C    1.0143166   -0.0008442    4.8859032  
H    2.1107198   -0.0000632    2.0421868  
H   -2.9622183    0.0003270    4.3293377  
H   -1.5042274   -0.0009692    7.6184419  
H    2.0724152   -0.0013148    5.1109744  
