64

C   -3.2578654    0.0024039   -2.9908509  
C   -4.0349373    0.0043588   -1.8556756  
C   -5.3958979    0.0056181   -2.2827405  
C   -5.3870306    0.0040491   -3.7011359  
N   -4.0729890    0.0040658   -4.0985153  
C   -6.5582196    0.0043938   -4.4647492  
C   -7.7602568    0.0060512   -3.7841020  
O   -8.9341430    0.0061074   -4.4805241  
C   -7.7896824    0.0080078   -2.3692002  
O   -9.0636548    0.0099264   -1.8397338  
C   -6.6346680    0.0079422   -1.6152321  
H   -3.6662215    0.0059256   -0.8442214  
H   -3.7546018   -0.0074431   -5.0506065  
H   -6.5582203    0.0033486   -5.5460455  
H   -9.6417817    0.0076768   -3.8228681  
H   -8.9942195    0.0111423   -0.8801604  
C    0.0000000    0.0000000    0.0000000  
C    1.0521666   -0.0011902   -0.8862343  
C    0.4917218   -0.0011958   -2.1979130  
C   -0.9187430    0.0003147   -2.0478683  
N   -1.1833172   -0.0009412   -0.7007915  
C   -1.7951704    0.0010350   -3.1372092  
C   -1.2375841    0.0005223   -4.4010425  
O   -2.0474217    0.0015359   -5.4997579  
C    0.1673583   -0.0013568   -4.5711966  
O    0.5673521   -0.0020690   -5.8915552  
C    1.0325768   -0.0023414   -3.4969890  
H    2.0953062   -0.0030650   -0.6200564  
H   -2.0989777    0.0102372   -0.2891825  
H   -1.4634887    0.0006496   -6.2693596  
H    1.5290715   -0.0033156   -5.9180049  
H    2.1042153   -0.0039611   -3.6584457  
C   -5.8903847    0.7292454    0.6939345  
C   -6.7078561    0.0102594   -0.1470570  
C   -7.6176173   -0.7160918    0.6771689  
C   -7.3047403   -0.3975781    2.0234908  
N   -6.2500987    0.4808819    1.9978785  
C   -8.0022886   -0.9349591    3.1095098  
C   -9.0346845   -1.8095796    2.8313473  
O   -9.7489665   -2.3631423    3.8542765  
C   -9.3617095   -2.1399992    1.4946741  
O  -10.4142005   -3.0248742    1.3824073  
C   -8.6738137   -1.6104480    0.4228063  
H   -5.8164919    0.8907985    2.8053036  
H   -7.7686567   -0.6963299    4.1379426  
H  -10.4120360   -2.9350035    3.4461364  
H  -10.5701702   -3.1950613    0.4484301  
H   -8.9470274   -1.8823094   -0.5900729  
H   -5.0782649    1.3984663    0.4668573  
C    0.0000000    0.0000000    1.4700000  
C    1.0541688    0.0001722    2.3260392  
C    0.5103138    0.0000454    3.6635956  
C   -0.9576371   -0.0002459    3.5155732  
N   -1.2018458    0.0001392    2.1615969  
C   -1.8348311   -0.0008317    4.5510609  
C   -1.2972847   -0.0009736    5.9014604  
O   -2.0050672   -0.0014265    6.9001319  
C    0.2542623   -0.0004184    6.0817573  
O    0.7184670   -0.0002256    7.2139121  
C    1.0974552   -0.0000873    4.8889129  
H    2.0940752    0.0005483    2.0517982  
H   -2.9081052   -0.0011668    4.4207061  
H    2.1707277    0.0000911    5.0223670  
H   -2.1128194   -0.0014912    1.7406791  
