62

C    2.9566837   -3.0703660   -4.2486518  
C    4.0559620   -3.7479444   -4.7229310  
C    4.5728059   -4.5148814   -3.6369847  
C    3.7405097   -4.2630987   -2.5163534  
N    2.7704444   -3.3803698   -2.9217899  
C    3.9540749   -4.8545452   -1.2676056  
C    5.0272097   -5.7160896   -1.1480304  
O    5.2812695   -6.3211513    0.0487854  
C    5.8692532   -5.9796917   -2.2545085  
O    6.8948911   -6.8591842   -1.9753952  
C    5.6593228   -5.3963599   -3.4866533  
H    4.4389441   -3.6950021   -5.7276776  
H    2.0300281   -3.0259745   -2.3437164  
H    3.3234723   -4.6666707   -0.4095578  
H    6.0630824   -6.8727241   -0.0846364  
H    7.4156496   -6.9827092   -2.7748673  
H    6.3212775   -5.6173165   -4.3157927  
C    2.0485056   -2.1404837   -4.9352603  
C    2.0920573   -1.7327537   -6.2250042  
C    0.9665696   -0.8221926   -6.3687266  
C    0.3351122   -0.7962137   -5.0318759  
N    0.9649967   -1.5669924   -4.1874028  
C   -0.8287665    0.0000939   -4.7555305  
C   -1.3384142    0.7372510   -5.7685427  
O   -2.4204378    1.5257899   -5.6524723  
C   -0.7235773    0.7324753   -7.1287314  
O   -1.2406172    1.4276569   -8.0031529  
C    0.4698618   -0.0926709   -7.3871130  
H    2.8005015   -2.0149668   -6.9849641  
H   -2.5373023    1.9181283   -6.5365347  
H    0.8852515   -0.0684840   -8.3856599  
C    1.0672569   -0.0000698   -0.8321910  
C    0.0000000    0.0000000    0.0000000  
C   -1.1601223   -0.0000736   -0.8778472  
C   -0.5938729   -0.0000768   -2.2438435  
N    0.7113367   -0.0001553   -2.2234123  
C   -1.4286985   -0.0001877   -3.4135239  
C   -2.7683113   -0.0006798   -3.2270524  
O   -3.6653902   -0.0008302   -4.2276970  
C   -3.3702024   -0.0010610   -1.8610774  
O   -4.5974910   -0.0013779   -1.7662963  
C   -2.4926825   -0.0008943   -0.6770658  
H   -4.5324245   -0.0012258   -3.7833954  
H   -2.9677772   -0.0012974    0.2947961  
H    2.1134391   -0.0000547   -0.5705119  
C    0.0000000    0.0000000    1.4700000  
C    1.0521667    0.0011902    2.3562342  
C    0.4917218    0.0011957    3.6679131  
C   -0.9187428   -0.0003148    3.5178682  
N   -1.1833171    0.0009411    2.1707914  
C   -1.7951701   -0.0010350    4.6072090  
C   -1.2375837   -0.0005224    5.8710424  
O   -2.0474215   -0.0015360    6.9697579  
C    0.1673580    0.0013566    6.0411963  
O    0.5673524    0.0020687    7.3615553  
C    1.0325770    0.0023412    4.9669890  
H    2.0953057    0.0030649    2.0900562  
H   -2.0989778   -0.0102372    1.7591824  
H   -2.8710934   -0.0020419    4.4995513  
H   -1.4634884   -0.0006497    7.7393593  
H    1.5290710    0.0033153    7.3880045  
H    2.1042148    0.0039609    5.1284455  
