62

C    0.1586750   -3.2838298  -10.3686202  
C    0.1226313   -2.6009475   -9.1749537  
C   -0.1428555   -1.2342088   -9.4850209  
C   -0.2604823   -1.1426946  -10.8955941  
N   -0.0700682   -2.4047284  -11.4011929  
C   -0.5225143    0.0614007  -11.5561103  
C   -0.6687628    1.1936868  -10.7784746  
O   -0.9259662    2.3956203  -11.3719538  
C   -0.5545393    1.1226739   -9.3696714  
O   -0.7252914    2.3363465   -8.7362797  
C   -0.2957820   -0.0648084   -8.7174013  
H    0.2706946   -3.0343590   -8.2006714  
H   -0.1061885   -2.6519032  -12.3736021  
H   -0.6131866    0.1378298  -12.6308837  
H   -0.9901762    3.0440939  -10.6587752  
H   -0.6327417    2.2003979   -7.7883575  
H    0.3308720   -4.3281691  -10.5652473  
C    2.3338138   -2.1434179   -5.7798768  
C    1.7883284   -1.7365454   -6.9496968  
C    0.7199252   -0.8256235   -6.5685995  
C    0.7626764   -0.7985191   -5.0907561  
N    1.7067550   -1.5690024   -4.6227165  
C   -0.1496415   -0.0015615   -4.3176961  
C   -1.0628927    0.7351418   -4.9904334  
O   -1.9748537    1.5241931   -4.3973341  
C   -1.1310328    0.7292322   -6.4815680  
O   -1.9880866    1.4240533   -7.0273731  
C   -0.1842257   -0.0965645   -7.2519840  
H    2.0755614   -2.0195392   -7.9479394  
H   -2.4795473    1.9160027   -5.1328085  
H    3.1559295   -2.8255338   -5.6321686  
C    3.3003543    0.0005276   -1.4738987  
C    2.5232814    0.0003497   -2.6090747  
C    1.1623200   -0.0001320   -2.1820103  
C    1.1711883    0.0000582   -0.7636140  
N    2.4852300   -0.0014919   -0.3662360  
C    0.0000000    0.0000000    0.0000000  
C   -1.2020384    0.0000519   -0.6806477  
O   -2.3759249    0.0003493    0.0157743  
C   -1.2314656   -0.0005115   -2.0955510  
O   -2.5054392   -0.0008039   -2.6250180  
C   -0.0764516   -0.0007274   -2.8495195  
H    2.8919955   -0.0005620   -3.6205304  
H    2.8036267    0.0088183    0.5858662  
H   -3.0835638    0.0000347   -0.6418818  
H   -2.4360047   -0.0011529   -3.5845921  
H    4.3715549    0.0004895   -1.3667136  
C    0.0000000    0.0000000    1.4700000  
C    1.0541688    0.0001722    2.3260392  
C    0.5103138    0.0000454    3.6635956  
C   -0.9576371   -0.0002459    3.5155732  
N   -1.2018458    0.0001392    2.1615969  
C   -1.8348311   -0.0008317    4.5510609  
C   -1.2972847   -0.0009736    5.9014604  
O   -2.0050672   -0.0014265    6.9001319  
C    0.2542623   -0.0004184    6.0817573  
O    0.7184670   -0.0002256    7.2139121  
C    1.0974552   -0.0000873    4.8889129  
H    2.0940752    0.0005483    2.0517982  
H   -2.9081052   -0.0011668    4.4207061  
H    2.1707277    0.0000911    5.0223670  
H   -2.1128194   -0.0014912    1.7406791  
