64

C    0.5659894   -0.9686798   -9.5203895  
C    0.8632074   -0.5520658  -10.7973246  
C    0.6093533    0.8506671  -10.8473076  
C    0.1555982    1.2376373   -9.5603389  
N    0.1392288    0.1085667   -8.7796035  
C   -0.1894998    2.5552287   -9.2446653  
C   -0.0741488    3.4994303  -10.2463421  
O   -0.3976023    4.8009044   -9.9922633  
C    0.3763746    3.1327592  -11.5368445  
O    0.4367793    4.1868887  -12.4248238  
C    0.7167372    1.8330640  -11.8490502  
H    1.2181497   -1.1819283  -11.5949972  
H   -0.5361294    2.8565817   -8.2657703  
H   -0.2476483    5.2850794  -10.8146691  
H    0.7500030    3.8538984  -13.2713537  
H    1.0585188    1.5821942  -12.8464111  
H    0.6232865   -1.9492806   -9.0798251  
C    1.7926684   -2.1130094   -5.2695613  
C    1.5709109   -1.6116993   -6.5312979  
C    0.4476588   -0.7372601   -6.4404054  
C    0.0227367   -0.7448287   -5.0871465  
N    0.8596940   -1.5918116   -4.4039633  
C   -1.0641734    0.0073898   -4.6315339  
C   -1.7341473    0.7815828   -5.5588619  
O   -2.8023666    1.5359045   -5.1678131  
C   -1.3255169    0.8020851   -6.9136385  
O   -2.0941824    1.6220710   -7.7137133  
C   -0.2535111    0.0600469   -7.3638698  
H    2.1470956   -1.8481325   -7.4094229  
H    0.8086761   -1.7900692   -3.4210735  
H   -3.1188183    1.9917711   -5.9585775  
H   -1.7518077    1.5785013   -8.6117590  
H    2.5416451   -2.8022204   -4.9188739  
C    1.1319248    0.0015675   -0.8009270  
C    0.7969916    0.0034959   -2.1169404  
C   -0.6453336    0.0035703   -2.1842672  
C   -1.1266831    0.0015415   -0.7896027  
N    0.0000000    0.0000000    0.0000000  
C   -2.4346129    0.0013924   -0.4276297  
C   -3.4350110    0.0031352   -1.4820184  
O   -4.6384610    0.0030897   -1.2583919  
C   -2.9478958    0.0050460   -2.9661075  
O   -3.7809377    0.0062160   -3.8623775  
C   -1.5113821    0.0053068   -3.2312125  
H    1.4821240    0.0045436   -2.9459192  
H   -2.7664565    0.0000185    0.6013447  
H    2.1104318    0.0009428   -0.3488058  
C    2.5285572    2.1210227    2.9438989  
C    1.9331703    1.6216660    4.0790748  
C    0.8903039    0.7472258    3.6520102  
C    0.8972198    0.7527806    2.2336141  
N    1.9028376    1.5986179    1.8362361  
C    0.0000000    0.0000000    1.4700000  
C   -0.9207814   -0.7726952    2.1506477  
O   -1.8198395   -1.5274828    1.4542253  
C   -0.9436862   -0.7911793    3.5655508  
O   -1.9197945   -1.6098497    4.0950179  
C   -0.0590329   -0.0485852    4.3195194  
H    2.2150357    1.8593692    5.0905303  
H    2.1533708    1.7953814    0.8841339  
H   -2.3621246   -1.9821033    2.1118817  
H   -1.8668290   -1.5649508    5.0545920  
H   -0.1007624   -0.0827977    5.4019087  
H    3.3491200    2.8096064    2.8367138  
