62

C    5.0574960   -0.6157222   -8.7353340  
C    4.5354156    0.6282781   -8.4663312  
C    5.0542917    1.5195500   -9.4517261  
C    5.8940501    0.7561033  -10.3025373  
N    5.8751006   -0.5356837   -9.8382696  
C    6.5753298    1.3118725  -11.3896297  
C    6.4055488    2.6628876  -11.6222464  
O    7.0472065    3.2566216  -12.6704688  
C    5.5721590    3.4414473  -10.7843204  
O    5.5063652    4.7710772  -11.1463971  
C    4.8999676    2.8938889   -9.7115367  
H    6.3699796   -1.3070427  -10.2482464  
H    7.2169388    0.7354551  -12.0417651  
H    6.7950544    4.1890115  -12.6522328  
H    4.9237299    5.2255950  -10.5303177  
H    4.2686998    3.5153694   -9.0872448  
H    4.9124751   -1.5534777   -8.2268646  
C    4.4071362   -0.7184468   -4.2557783  
C    3.2973506   -0.0000934   -3.8752374  
C    2.8597412    0.7281416   -5.0210001  
C    3.7486366    0.4113760   -6.0799855  
N    4.6772282   -0.4679008   -5.5807786  
C    3.6188206    0.9508687   -7.3632956  
C    2.5724309    1.8258429   -7.5816216  
O    2.3991140    2.3814369   -8.8162436  
C    1.6752946    2.1545390   -6.5376283  
O    0.6861525    3.0400265   -6.9129342  
C    1.8029169    1.6229037   -5.2712938  
H    5.4295972   -0.8769507   -6.1048022  
H    1.6230841    2.9531877   -8.7518675  
H    0.1239561    3.2089557   -6.1506995  
H    1.1004520    1.8934780   -4.4916716  
H    5.0282469   -1.3886014   -3.6865038  
C    3.3321174    0.0004714   -1.3379332  
C    2.6974186    0.0000115   -2.5332308  
C    1.2800441   -0.0002119   -2.2052838  
C    1.2395035    0.0000643   -0.7271293  
N    2.4394063    0.0005458   -0.2131034  
C    0.0000000    0.0000000    0.0000000  
C   -1.1468701    0.0000634   -0.7169542  
O   -2.3742201    0.0000072   -0.1695492  
C   -1.1388767    0.0001606   -2.2096354  
O   -2.2206229    0.0000903   -2.7970413  
C    0.1454526    0.0001815   -2.9324239  
H   -2.9844344    0.0001023   -0.9290168  
H    0.1083580    0.0003680   -4.0135594  
H    4.3940040    0.0007617   -1.1498630  
C    0.0000000    0.0000000    1.4700000  
C    1.0541688    0.0001722    2.3260392  
C    0.5103138    0.0000454    3.6635956  
C   -0.9576371   -0.0002459    3.5155732  
N   -1.2018458    0.0001392    2.1615969  
C   -1.8348311   -0.0008317    4.5510609  
C   -1.2972847   -0.0009736    5.9014604  
O   -2.0050672   -0.0014265    6.9001319  
C    0.2542623   -0.0004184    6.0817573  
O    0.7184670   -0.0002256    7.2139121  
C    1.0974552   -0.0000873    4.8889129  
H    2.0940752    0.0005483    2.0517982  
H   -2.9081052   -0.0011668    4.4207061  
H    2.1707277    0.0000911    5.0223670  
H   -2.1128194   -0.0014912    1.7406791  
