62

C    1.2606613   -1.0658939   -7.6956373  
C    2.3123978   -1.9516784   -7.7369014  
C    2.5880018   -2.2069652   -9.1129367  
C    1.6646730   -1.4424347   -9.8711471  
N    0.8721597   -0.7629277   -8.9796250  
C    1.6452002   -1.4492717  -11.2691325  
C    2.5749535   -2.2421099  -11.9134493  
O    2.6003801   -2.2856946  -13.2774384  
C    3.5041285   -3.0123641  -11.1744234  
O    4.3648396   -3.7499178  -11.9608923  
C    3.5237404   -3.0063142   -9.7952555  
H    2.8179685   -2.3640500   -6.8805485  
H    0.1320021   -0.1308024   -9.2257259  
H    0.9439651   -0.8689572  -11.8528335  
H    3.3141448   -2.8906083  -13.5180330  
H    4.9587049   -4.2404740  -11.3844527  
H    4.2472076   -3.6068790   -9.2563730  
C    0.8693952   -0.7179713   -5.2245448  
C    0.0139741    0.0003876   -4.4216236  
C   -0.8554504    0.7289891   -5.2864016  
C   -0.4799914    0.4124312   -6.6170959  
N    0.5715134   -0.4670800   -6.5435098  
C   -1.1253124    0.9522982   -7.7337399  
C   -2.1688612    1.8274400   -7.5028483  
O   -2.8338443    2.3833989   -8.5572304  
C   -2.5579890    2.1559335   -6.1824366  
O   -3.6138122    3.0416267   -6.1181839  
C   -1.9216383    1.6239290   -5.0803672  
H   -0.8438655    0.7151683   -8.7504785  
H   -3.5148416    2.9552100   -8.1796864  
H   -3.8133083    3.2103987   -5.1922676  
H   -2.2418644    1.8943553   -4.0809657  
H    1.6693707   -1.3883490   -4.9607419  
C    3.2798085    0.0005853   -1.4499648  
C    2.5571144    0.0005562   -2.5996554  
C    1.1637436    0.0001546   -2.2210360  
C    1.1336965   -0.0000201   -0.7459470  
N    2.4483513   -0.0001430   -0.3402717  
C    0.0000000    0.0000000    0.0000000  
C   -1.2757367   -0.0000188   -0.6964414  
O   -2.3524597   -0.0000640   -0.1142313  
C   -1.2676494   -0.0000875   -2.2584081  
O   -2.3355762   -0.0004102   -2.8557294  
C    0.0181562    0.0001757   -2.9516296  
H    2.9547357    0.0006072   -3.5989105  
H    4.3498550    0.0008609   -1.3200021  
H    2.7563627    0.0012824    0.6148063  
C    2.3971438    2.0127888    3.1728260  
C    1.9431056    1.6308205    1.9564670  
C    0.8496017    0.7127664    2.2356185  
C    0.7794028    0.6545384    3.7115134  
N    1.6840587    1.4146091    4.2663826  
C   -0.1885723   -0.1578550    4.3957118  
C   -1.0476298   -0.8789867    3.6398520  
O   -2.0015663   -1.6796266    4.1448486  
C   -1.0022026   -0.8410666    2.1483229  
O   -1.8147390   -1.5232959    1.5241687  
C    0.0000000    0.0000000    1.4700000  
H    2.3054237    1.9346118    0.9892483  
H   -0.2170646   -0.1815267    5.4753125  
H   -2.4487139   -2.0549881    3.3649027  
H    3.2048689    2.6911772    3.3971983  
