64

C   -0.0354185    0.8369843   -9.3264564  
C    1.0690535    0.0354861   -9.5002633  
C    1.4675517    0.1656488  -10.8636630  
C    0.5613745    1.0676141  -11.4778514  
N   -0.3394620    1.4546943  -10.5169782  
C    0.6526477    1.4314842  -12.8247205  
C    1.6775508    0.8749177  -13.5649807  
O    1.8130898    1.1961041  -14.8846326  
C    2.5914119   -0.0272403  -12.9701812  
O    3.5554097   -0.4954853  -13.8389712  
C    2.5018090   -0.3868665  -11.6415855  
H    1.5300602   -0.5695191   -8.7384011  
H   -1.0955801    2.1002412  -10.6567493  
H   -0.0349211    2.1182765  -13.2988182  
H    2.5796387    0.7049801  -15.2078444  
H    4.1311716   -1.0980524  -13.3583315  
H    3.2162841   -1.0804022  -11.2137868  
C    0.2278209   -0.7147625   -5.1416693  
C    0.4566675   -0.4621635   -6.4744444  
C   -0.5486867    0.4544093   -6.9031138  
C   -1.3693887    0.7276740   -5.7789690  
N   -0.8712826    0.0001710   -4.7267111  
C   -2.4649408    1.5944991   -5.8352552  
C   -2.7367723    2.1966658   -7.0483839  
O   -3.7944961    3.0522199   -7.1591140  
C   -1.9297522    1.9363859   -8.1814286  
O   -2.3297834    2.6120112   -9.3158227  
C   -0.8489680    1.0811454   -8.1266973  
H    1.2499005   -0.8871914   -7.0653132  
H   -3.0944363    1.8068462   -4.9821163  
H   -3.8051348    3.3559881   -8.0761065  
H   -1.7327652    2.3807986  -10.0339546  
H    0.7607900   -1.3494474   -4.4545900  
C    1.0965514    0.0001359   -0.8010305  
C    0.0000000    0.0000000    0.0000000  
C   -1.1546563    0.0001470   -0.8669513  
C   -0.6372014    0.0003519   -2.2486282  
N    0.7342871    0.0007337   -2.1395014  
C   -1.4147739    0.0001352   -3.3608717  
C   -2.8576049   -0.0001048   -3.1854462  
O   -3.6427779   -0.0002494   -4.1244907  
C   -3.4275840   -0.0000725   -1.7311666  
O   -4.6406831    0.0000333   -1.5710060  
C   -2.4891867   -0.0001091   -0.6116744  
H   -2.8919122   -0.0002918    0.3920866  
H    2.1388272    0.0000663   -0.5261648  
H    1.3735872   -0.0006099   -2.9130262  
C    2.5285572    2.1210227    2.9438989  
C    1.9331703    1.6216660    4.0790748  
C    0.8903039    0.7472258    3.6520102  
C    0.8972198    0.7527806    2.2336141  
N    1.9028376    1.5986179    1.8362361  
C    0.0000000    0.0000000    1.4700000  
C   -0.9207814   -0.7726952    2.1506477  
O   -1.8198395   -1.5274828    1.4542253  
C   -0.9436862   -0.7911793    3.5655508  
O   -1.9197945   -1.6098497    4.0950179  
C   -0.0590329   -0.0485852    4.3195194  
H    2.2150357    1.8593692    5.0905303  
H    2.1533708    1.7953814    0.8841339  
H   -2.3621246   -1.9821033    2.1118817  
H   -1.8668290   -1.5649508    5.0545920  
H   -0.1007624   -0.0827977    5.4019087  
H    3.3491200    2.8096064    2.8367138  
