62

C   -1.0639420    3.1241589   -1.4738985  
C   -0.8133848    2.3885884   -2.6090745  
C   -0.3743990    1.1003696   -2.1820103  
C   -0.3774365    1.1087036   -0.7636145  
N   -0.7993802    2.3531600   -0.3662358  
C    0.0000000    0.0000000    0.0000000  
C    0.3872721   -1.1379440   -0.6806483  
O    0.7652412   -2.2493168    0.0157741  
C    0.3972869   -1.1656204   -2.0955512  
O    0.8080646   -2.3715516   -2.6250183  
C    0.0253222   -0.0721398   -2.8495194  
H   -0.9117343    2.6512524    0.5858664  
H    0.9935546   -2.9191118   -0.6418821  
H    0.7860215   -2.3057081   -3.5845925  
H    0.0432905   -0.1230218   -3.9319087  
H   -1.4090689    4.1382384   -1.3667130  
C    0.0136432    6.2000864   -4.7661442  
C   -0.0762724    5.2782262   -3.7793977  
C   -0.6425735    4.0998195   -4.4174887  
C   -0.8379886    4.4975078   -5.8282474  
N   -0.4550441    5.7275800   -6.0386398  
C   -1.3869096    3.5962995   -6.8037454  
C   -1.7248734    2.3541349   -6.3888456  
O   -2.2473147    1.4110569   -7.1911550  
C   -1.5394186    1.9227843   -4.9719107  
O   -1.8691672    0.7772945   -4.6647631  
C   -0.9744325    2.8655993   -3.9901700  
H    0.2068231    5.3847023   -2.7461525  
H   -1.5189094    3.9136428   -7.8278444  
H   -2.3808890    0.6390740   -6.6120579  
C    0.5198734    7.5771624   -4.6750852  
C    1.0096939    8.2395171   -3.5955309  
C    1.3696654    9.5645405   -4.0422619  
C    1.0470700    9.6202479   -5.4808795  
N    0.5360077    8.3840566   -5.8026493  
C    1.2409761   10.7065620   -6.2708323  
C    1.8052546   11.9005020   -5.6636802  
O    2.0179204   12.9298636   -6.2909675  
C    2.1546599   11.8638795   -4.1417143  
O    2.6305310   12.8629682   -3.6195759  
C    1.9000445   10.6347378   -3.3945643  
H    1.1078261    7.8448617   -2.5999250  
H    0.9973815   10.7266012   -7.3240036  
H    2.1445622   10.6176540   -2.3411680  
H    0.2211596    8.1108393   -6.7154855  
C    2.5311839    2.1237619    3.0120429  
C    1.9795631    1.6616747    1.8395852  
C    0.9223175    0.7739173    2.1983588  
C    0.8753926    0.7337535    3.6154372  
N    1.8668922    1.5631002    4.0777464  
C   -0.0496243   -0.0427881    4.3197917  
C   -0.9437528   -0.7922060    3.5801400  
O   -1.8685244   -1.5680278    4.2172520  
C   -0.9124520   -0.7656372    2.1655264  
O   -1.8671164   -1.5663939    1.5732860  
C    0.0000000    0.0000000    1.4700000  
H    2.3005065    1.9304404    0.8477417  
H    2.0679347    1.7444845    5.0445261  
H   -0.0904770   -0.0778569    5.3997470  
H   -2.3849669   -2.0011402    3.5251786  
H   -1.7775064   -1.4909735    0.6183591  
H    3.3468514    2.8078103    3.1724291  
