62

C   -3.3002205   -0.0299019   -1.4738972  
C   -2.5231801   -0.0228079   -2.6090738  
C   -1.1622769   -0.0102133   -2.1820096  
C   -1.1711424   -0.0104823   -0.7636139  
N   -2.4851454   -0.0206275   -0.3662349  
C    0.0000000    0.0000000    0.0000000  
C    1.2019904    0.0106464   -0.6806491  
O    2.3758334    0.0207970    0.0157732  
C    1.2314107    0.0114715   -2.0955517  
O    2.5053305    0.0231027   -2.6250194  
C    0.0764403    0.0014074   -2.8495195  
H   -2.8034370   -0.0337709    0.5858677  
H    3.0834411    0.0274098   -0.6418835  
H    2.4358956    0.0228335   -3.5845934  
H    0.1303898    0.0025024   -3.9319089  
H   -4.3713785   -0.0393977   -1.3667116  
C   -3.0266341   -0.0260441   -3.9901686  
C   -4.3138277   -0.0375801   -4.4079945  
C   -4.2366310   -0.0353511   -5.8607632  
C   -2.7879630   -0.0214595   -6.1569930  
N   -2.0736861   -0.0160336   -5.0643967  
C   -2.2868059   -0.0154109   -7.5038007  
C   -3.1917273   -0.0232886   -8.5089829  
O   -2.8654564   -0.0189650   -9.8126576  
C   -4.6603411   -0.0377195   -8.2422880  
O   -5.4263915   -0.0441662   -9.2057948  
C   -5.1494512   -0.0436466   -6.8520862  
H   -5.2055717   -0.0465907   -3.8048470  
H   -1.2229836   -0.0050333   -7.6911079  
H   -3.7191916   -0.0268494  -10.2819418  
C   -7.7734719    2.0226031   -3.9639103  
C   -6.7054026    1.5710446   -4.6705914  
C   -7.2166149    0.6702661   -5.6766207  
C   -8.6805625    0.6338141   -5.4968458  
N   -8.9538138    1.4745314   -4.4426077  
C   -9.5302516   -0.1038708   -6.2554992  
C   -8.9651866   -0.9163176   -7.3200025  
O   -9.6471220   -1.6155253   -8.0578187  
C   -7.4173131   -0.8931740   -7.5282264  
O   -6.9300749   -1.5733481   -8.4210996  
C   -6.6050017   -0.0580547   -6.6469899  
H   -5.6767999    1.8383153   -4.5058000  
H  -10.6011057   -0.1163266   -6.1070884  
H   -7.7975953    2.7094886   -3.1335513  
H   -9.8698079    1.6627088   -4.0784782  
C    2.5285572    2.1210227    2.9438989  
C    1.9331703    1.6216660    4.0790748  
C    0.8903039    0.7472258    3.6520102  
C    0.8972198    0.7527806    2.2336141  
N    1.9028376    1.5986179    1.8362361  
C    0.0000000    0.0000000    1.4700000  
C   -0.9207814   -0.7726952    2.1506477  
O   -1.8198395   -1.5274828    1.4542253  
C   -0.9436862   -0.7911793    3.5655508  
O   -1.9197945   -1.6098497    4.0950179  
C   -0.0590329   -0.0485852    4.3195194  
H    2.2150357    1.8593692    5.0905303  
H    2.1533708    1.7953814    0.8841339  
H   -2.3621246   -1.9821033    2.1118817  
H   -1.8668290   -1.5649508    5.0545920  
H   -0.1007624   -0.0827977    5.4019087  
H    3.3491200    2.8096064    2.8367138  
