62

C   10.2319373    2.0697923   -2.2029236  
C   11.4395022    1.5585339   -1.7871488  
C   11.1672037    0.6848529   -0.6930120  
C    9.7642359    0.7031156   -0.4849880  
N    9.2270146    1.5554589   -1.4174689  
C    9.1383572   -0.0454680    0.5163545  
C    9.9434003   -0.8269540    1.3221855  
O    9.3841940   -1.5781510    2.3151641  
C   11.3452163   -0.8581616    1.1304743  
O   12.0087807   -1.6844326    2.0138208  
C   11.9633707   -0.1197152    0.1429985  
H   12.3987653    1.7880171   -2.2185952  
H    8.2498214    1.7614745   -1.5205797  
H   10.1121422   -2.0402457    2.7508530  
H   12.9496389   -1.6479616    1.8161864  
H   13.0392285   -0.1637322    0.0202375  
H   10.0081146    2.7617426   -2.9966903  
C    5.6607710   -0.0084428   -2.2933928  
C    6.9286313   -0.0216963   -1.7597063  
C    6.7831040   -0.0221735   -0.3407554  
C    5.3917941   -0.0090797   -0.0650520  
N    4.7390840    0.0009613   -1.2727298  
C    4.8785171   -0.0061458    1.2354581  
C    5.7862931   -0.0169277    2.2766136  
O    5.3393781   -0.0149873    3.5662943  
C    7.1783061   -0.0296907    2.0217529  
O    7.9524028   -0.0389772    3.1636948  
C    7.6853791   -0.0323190    0.7390227  
H    7.8455927   -0.0288938   -2.3237303  
H    3.8192266    0.0039564    1.4522609  
H    6.1255180   -0.0233901    4.1277015  
H    8.8785315   -0.0473412    2.9032746  
H    5.3410171   -0.0035083   -3.3213484  
C    3.2798077    0.0005856   -1.4499661  
C    2.5571132    0.0005565   -2.5996564  
C    1.1637425    0.0001547   -2.2210366  
C    1.1336959   -0.0000200   -0.7459475  
N    2.4483509   -0.0001429   -0.3402730  
C    0.0000000    0.0000000    0.0000000  
C   -1.2757370   -0.0000187   -0.6964411  
O   -2.3524597   -0.0000640   -0.1142306  
C   -1.2676502   -0.0000874   -2.2584078  
O   -2.3355774   -0.0004102   -2.8557287  
C    0.0181551    0.0001758   -2.9516297  
H    2.9547342    0.0006074   -3.5989118  
H    0.0150776    0.0003317   -4.0331632  
H    2.7563626    0.0012823    0.6148051  
C    2.3971438    2.0127888    3.1728260  
C    1.9431056    1.6308205    1.9564670  
C    0.8496017    0.7127664    2.2356185  
C    0.7794028    0.6545384    3.7115134  
N    1.6840587    1.4146091    4.2663826  
C   -0.1885723   -0.1578550    4.3957118  
C   -1.0476298   -0.8789867    3.6398520  
O   -2.0015663   -1.6796266    4.1448486  
C   -1.0022026   -0.8410666    2.1483229  
O   -1.8147390   -1.5232959    1.5241687  
C    0.0000000    0.0000000    1.4700000  
H    2.3054237    1.9346118    0.9892483  
H   -0.2170646   -0.1815267    5.4753125  
H   -2.4487139   -2.0549881    3.3649027  
H    3.2048689    2.6911772    3.3971983  
