60

C    5.1656983   -4.3746910   -8.6530030  
C    5.9510611   -5.0058545   -7.7163574  
C    5.4912862   -4.5826324   -6.4341369  
C    4.4141788   -3.6861134   -6.6532702  
N    4.2440748   -3.5807546   -8.0114236  
C    3.7172817   -3.0714990   -5.6085825  
C    4.1147658   -3.3675391   -4.3191853  
O    3.4684322   -2.7954185   -3.2618566  
C    5.1874109   -4.2592569   -4.0802520  
O    5.4630659   -4.4512908   -2.7421639  
C    5.8755432   -4.8657435   -5.1103849  
H    6.7569959   -5.6866116   -7.9309085  
H    3.5456420   -3.0217929   -8.4672025  
H    3.8979211   -3.1320541   -2.4646864  
H    6.1994060   -5.0660925   -2.6685014  
H    6.6930936   -5.5442336   -4.8965159  
H    5.1909603   -4.4269200   -9.7279882  
C    2.6001984   -2.1411815   -5.8266050  
C    2.0730541   -1.7332812   -7.0044489  
C    0.9991584   -0.8222828   -6.6393046  
C    1.0189896   -0.7962633   -5.1609565  
N    1.9554489   -1.5673972   -4.6788923  
C    0.0950446    0.0004351   -4.4015596  
C   -0.8074268    0.7379271   -5.0878437  
O   -1.7282262    1.5268496   -4.5083866  
C   -0.8524310    0.7331204   -6.5798599  
O   -1.7006936    1.4286195   -7.1383864  
C    0.1059489   -0.0924302   -7.3360995  
H    2.3756463   -2.0156467   -7.9983221  
H   -2.2213259    1.9193587   -5.2513147  
H    0.0405998   -0.0682527   -8.4156246  
C    3.3321173    0.0004713   -1.3379338  
C    2.6974181    0.0000116   -2.5332314  
C    1.2800438   -0.0002119   -2.2052841  
C    1.2395034    0.0000643   -0.7271299  
N    2.4394062    0.0005460   -0.2131038  
C    0.0000000    0.0000000    0.0000000  
C   -1.1468702    0.0000634   -0.7169543  
O   -2.3742203    0.0000074   -0.1695487  
C   -1.1388770    0.0001607   -2.2096355  
O   -2.2206234    0.0000905   -2.7970411  
C    0.1454522    0.0001815   -2.9324241  
H    3.1367984   -0.0000653   -3.5160950  
H   -2.9844346    0.0001026   -0.9290167  
H    4.3940038    0.0007618   -1.1498640  
C    2.5128556    2.1077716    2.9199648  
C    1.9592212    1.6432552    4.0696553  
C    0.8915788    0.7479214    3.6910360  
C    0.8684491    0.7287414    2.2159470  
N    1.8754542    1.5738793    1.8102719  
C    0.0000000    0.0000000    1.4700000  
C   -0.9772830   -0.8200135    2.1664417  
O   -1.8021297   -1.5120829    1.5842315  
C   -0.9711318   -0.8147624    3.7284083  
O   -1.7894187   -1.5009653    4.3257297  
C    0.0140216    0.0115358    4.4216297  
H    2.2638494    1.8988021    5.0689105  
H    0.0117648    0.0094386    5.5031631  
H    3.3327358    2.7953732    2.7900019  
H    2.1123206    1.7707734    0.8551938  
