60

C    3.5323377   -0.7141664   -6.1454935  
C    2.9287796    0.0029119   -7.1524612  
C    3.9579686    0.7311898   -7.8195304  
C    5.1789174    0.4157631   -7.1701343  
N    4.8843814   -0.4627911   -6.1572131  
C    6.4068001    0.9556659   -7.5645947  
C    6.4020959    1.8296808   -8.6342919  
O    7.5732948    2.3856210   -9.0611861  
C    5.1940893    2.1570359   -9.2948792  
O    5.3548340    3.0416880  -10.3412513  
C    3.9823502    1.6249957   -8.9061036  
H    5.5537275   -0.8708644   -5.5299708  
H    7.3408360    0.7193947   -7.0737224  
H    7.3485145    2.9565648   -9.8073503  
H    4.4922058    3.2097315  -10.7327075  
H    3.0734677    1.8945361   -9.4312315  
H    3.1051640   -1.3839368   -5.4189340  
C   -0.8287671    0.0000935   -4.7555305  
C    0.4848184    0.0005134   -5.0812188  
C    0.5106014    0.0006415   -6.5358093  
C   -0.9135384    0.0001370   -6.9338159  
N   -1.7033612   -0.0001050   -5.8945040  
C   -1.3181679    0.0001429   -8.3127146  
C   -0.3443510    0.0010199   -9.2513378  
O   -0.5775765    0.0011265  -10.5748356  
C    1.1017796    0.0019175   -8.8813812  
O    1.9341176    0.0025664   -9.7882625  
C    1.4913207    0.0018489   -7.4600497  
H    1.3316906    0.0008020   -4.4164760  
H   -2.3661194   -0.0004384   -8.5748366  
H    0.3072628    0.0018575  -10.9825260  
C    1.0672566   -0.0000698   -0.8321912  
C    0.0000000    0.0000000    0.0000000  
C   -1.1601226   -0.0000736   -0.8778472  
C   -0.5938732   -0.0000770   -2.2438435  
N    0.7113365   -0.0001555   -2.2234123  
C   -1.4286989   -0.0001880   -3.4135239  
C   -2.7683117   -0.0006800   -3.2270522  
O   -3.6653907   -0.0008306   -4.2276967  
C   -3.3702026   -0.0010611   -1.8610771  
O   -4.5974909   -0.0013781   -1.7662957  
C   -2.4926826   -0.0008944   -0.6770655  
H   -4.5324249   -0.0012263   -3.7833950  
H   -2.9677773   -0.0012975    0.2947963  
H    2.1134390   -0.0000546   -0.5705121  
C    2.5128556    2.1077716    2.9199648  
C    1.9592212    1.6432552    4.0696553  
C    0.8915788    0.7479214    3.6910360  
C    0.8684491    0.7287414    2.2159470  
N    1.8754542    1.5738793    1.8102719  
C    0.0000000    0.0000000    1.4700000  
C   -0.9772830   -0.8200135    2.1664417  
O   -1.8021297   -1.5120829    1.5842315  
C   -0.9711318   -0.8147624    3.7284083  
O   -1.7894187   -1.5009653    4.3257297  
C    0.0140216    0.0115358    4.4216297  
H    2.2638494    1.8988021    5.0689105  
H    0.0117648    0.0094386    5.5031631  
H    3.3327358    2.7953732    2.7900019  
H    2.1123206    1.7707734    0.8551938  
