62

C    4.5265206   -0.6975844   -8.9134695  
C    5.2980541   -0.6526785  -10.0515322  
C    5.2666082    0.6931658  -10.5230341  
C    4.4534188    1.4301137   -9.6243917  
N    4.0186401    0.5550906   -8.6600682  
C    4.1998998    2.7961978   -9.7803735  
C    4.7780657    3.4299468  -10.8630854  
O    4.5637192    4.7630762  -11.0626731  
C    5.5921786    2.7116998  -11.7709161  
O    6.0948042    3.4839964  -12.7976915  
C    5.8424919    1.3639509  -11.6178085  
H    5.8185039   -1.4875119  -10.4887730  
H    3.5809186    3.3635428   -9.0990623  
H    5.0509016    5.0012666  -11.8621631  
H    6.6329376    2.9232071  -13.3647302  
H    6.4700645    0.8403808  -12.3294989  
H    4.2971577   -1.5243675   -8.2632530  
C    4.0903622   -0.7060771   -4.4543997  
C    3.0267438   -0.0008951   -3.9901699  
C    2.4927472    0.7404274   -5.1082597  
C    3.3384965    0.4069149   -6.2702698  
N    4.2884152   -0.4739734   -5.8070423  
C    3.1596787    0.9054494   -7.5197467  
C    2.0610435    1.8325297   -7.7343588  
O    1.8174799    2.3361499   -8.8230937  
C    1.1527698    2.2000357   -6.5178950  
O    0.2249100    2.9797499   -6.6863677  
C    1.4446979    1.5979726   -5.2193767  
H    0.8109659    1.8574607   -4.3822547  
H    4.7463091   -1.3756296   -3.9221190  
H    5.0126350   -0.8864511   -6.3659837  
C    3.3003547    0.0005277   -1.4738986  
C    2.5232816    0.0003497   -2.6090746  
C    1.1623203   -0.0001319   -2.1820102  
C    1.1711884    0.0000584   -0.7636141  
N    2.4852301   -0.0014919   -0.3662359  
C    0.0000000    0.0000000    0.0000000  
C   -1.2020383    0.0000520   -0.6806479  
O   -2.3759248    0.0003493    0.0157745  
C   -1.2314655   -0.0005115   -2.0955511  
O   -2.5054388   -0.0008040   -2.6250184  
C   -0.0764513   -0.0007274   -2.8495195  
H    2.8036266    0.0088183    0.5858662  
H   -3.0835639    0.0000346   -0.6418822  
H   -2.4360043   -0.0011529   -3.5845924  
H   -0.1304091   -0.0013423   -3.9319089  
H    4.3715553    0.0004897   -1.3667133  
C    0.8681109    0.7263879    2.2709268  
C    0.6127770    0.5096195    3.5869401  
C   -0.4920590   -0.4175482    3.6542670  
C   -0.8620974   -0.7254003    2.2596025  
N    0.0000000    0.0000000    1.4700000  
C   -1.8641242   -1.5660088    1.8976294  
C   -2.6293522   -2.2103885    2.9520183  
O   -3.5512764   -2.9839180    2.7283916  
C   -2.2549728   -1.8987399    4.4361073  
O   -2.8923672   -2.4351063    5.3323774  
C   -1.1543735   -0.9755647    4.7012123  
H    1.1382914    0.9492124    4.4159191  
H   -2.1192137   -1.7782617    0.8686553  
H   -0.9013378   -0.7652422    5.7314848  
H    1.6172880    1.3558399    1.8188057  
