64

C   -2.4861723   -0.0028427   -3.7159923  
C   -3.5192700   -0.0034901   -2.8076001  
C   -4.7328130   -0.0050762   -3.5572067  
C   -4.3743080   -0.0056192   -4.9295769  
N   -3.0028519   -0.0022812   -4.9905081  
C   -5.3209189   -0.0074425   -5.9585150  
C   -6.6537171   -0.0090482   -5.5954394  
O   -7.6195174   -0.0112138   -6.5599278  
C   -7.0312839   -0.0081627   -4.2315260  
O   -8.3964989   -0.0095664   -4.0327047  
C   -6.0979688   -0.0060910   -3.2159256  
H   -3.4114733   -0.0017874   -1.7364465  
H   -2.4594037   -0.0123786   -5.8346315  
H   -8.4675263   -0.0117475   -6.0971681  
H   -8.5659330   -0.0088702   -3.0856591  
H   -6.4172794   -0.0052748   -2.1803008  
C    0.0000000    0.0000000    0.0000000  
C   -1.0521655   -0.0019335   -0.8862343  
C   -0.4917230   -0.0002641   -2.1979132  
C    0.9187403    0.0024127   -2.0478682  
N    1.1833092    0.0044540   -0.7007915  
C    1.7951652    0.0042944   -3.1372092  
C    1.2375800    0.0031516   -4.4010424  
O    2.0474166    0.0045422   -5.4997579  
C   -0.1673613    0.0008597   -4.5711967  
O   -0.5673559    0.0003843   -5.8915554  
C   -1.0325791   -0.0007242   -3.4969893  
H   -2.0953050   -0.0031555   -0.6200560  
H    2.0989990   -0.0040058   -0.2891825  
H    2.8710864    0.0064815   -3.0295515  
H    1.4634843    0.0036949   -6.2693593  
H   -1.5290736   -0.0012242   -5.9180046  
C   -3.9287516   -0.7253557   -7.9467198  
C   -4.9582778   -0.0078213   -7.3830823  
C   -5.5853682    0.7192732   -8.4379238  
C   -4.8894577    0.4026880   -9.6326659  
N   -3.8884996   -0.4753877   -9.2984760  
C   -5.2364755    0.9412474  -10.8753734  
C   -6.3056762    1.8150852  -10.9127234  
O   -6.6872849    2.3697353  -12.1000534  
C   -7.0122730    2.1435839   -9.7313565  
O   -8.0518042    3.0278907   -9.9331468  
C   -6.6703158    1.6128692   -8.5050072  
H   -3.2359269   -0.8840502   -9.9427783  
H   -4.7100161    0.7040891  -11.7895928  
H   -7.4416165    2.9407863  -11.9047307  
H   -8.4761659    3.1967642   -9.0863868  
H   -7.2300422    1.8832649   -7.6172735  
H   -3.2190704   -1.3945587   -7.4912205  
C    3.3321173   -0.0004715    2.8079335  
C    2.6974184   -0.0000116    4.0032312  
C    1.2800439    0.0002118    3.6752840  
C    1.2395035   -0.0000644    2.1971295  
N    2.4394063   -0.0005460    1.6831036  
C    0.0000000    0.0000000    1.4700000  
C   -1.1468701   -0.0000635    2.1869543  
O   -2.3742202   -0.0000073    1.6395491  
C   -1.1388768   -0.0001607    3.6796354  
O   -2.2206231   -0.0000905    4.2670412  
C    0.1454524   -0.0001816    4.4024240  
H    3.1367986    0.0000651    4.9860947  
H   -2.9844344   -0.0001026    2.3990168  
H    0.1083576   -0.0003682    5.4835595  
H    4.3940039   -0.0007619    2.6198634  
