62

C    0.3404993   -0.9881350   -9.5654316  
C    0.6412014   -0.6002851  -10.8505854  
C    0.3995483    0.8032888  -10.9292232  
C   -0.0506964    1.2203913   -9.6504611  
N   -0.0768047    0.1076851   -8.8468324  
C   -0.3842933    2.5471053   -9.3617879  
C   -0.2608369    3.4696151  -10.3825288  
O   -0.5729364    4.7787697  -10.1551072  
C    0.1863531    3.0727629  -11.6652407  
O    0.2558319    4.1079732  -12.5745556  
C    0.5153704    1.7640526  -11.9508112  
H    0.9905740   -1.2493686  -11.6352008  
H   -0.7281922    2.8713889   -8.3892786  
H   -0.4188602    5.2447265  -10.9872179  
H    0.5660643    3.7550537  -13.4140845  
H    0.8548581    1.4899049  -12.9428137  
H    0.3893118   -1.9599953   -9.1049284  
C    1.5640652   -2.0395934   -5.3856075  
C    0.7230585   -1.5862625   -4.4205823  
C   -0.2043663   -0.6833979   -5.0605464  
C    0.1679207   -0.6476541   -6.4877522  
N    1.2472261   -1.4907315   -6.6189377  
C   -0.4698103    0.0915038   -7.4304339  
C   -1.5980270    0.9063960   -7.0113715  
O   -2.2374220    1.6070672   -7.7850216  
C   -2.0096055    0.8840405   -5.5047499  
O   -2.9576824    1.5662687   -5.1400911  
C   -1.2456329    0.0471727   -4.5828766  
H    0.7494879   -1.8536712   -3.3792333  
H    2.3887876   -2.7282964   -5.2995223  
H    1.7291275   -1.6799011   -7.4786076  
C    1.1243410    0.0099923   -0.7919003  
C    0.7474076    0.0234544   -2.1148543  
C   -0.6787381    0.0234490   -2.1414700  
C   -1.1201745    0.0098592   -0.7935546  
N    0.0000000    0.0000000    0.0000000  
C   -2.4730816    0.0063709   -0.4408240  
C   -3.3971958    0.0170982   -1.4675058  
O   -4.7313517    0.0146259   -1.1793471  
C   -2.9763648    0.0303504   -2.8186324  
O   -4.0166480    0.0395118   -3.7247624  
C   -1.6418562    0.0335260   -3.1673481  
H    1.4178717    0.0310972   -2.9571209  
H   -2.8160166   -0.0041111    0.5845966  
H   -5.1938818    0.0230867   -2.0274384  
H   -3.6464675    0.0482293   -4.6127343  
H    2.1062467    0.0052819   -0.3505407  
C    2.5128556    2.1077716    2.9199648  
C    1.9592212    1.6432552    4.0696553  
C    0.8915788    0.7479214    3.6910360  
C    0.8684491    0.7287414    2.2159470  
N    1.8754542    1.5738793    1.8102719  
C    0.0000000    0.0000000    1.4700000  
C   -0.9772830   -0.8200135    2.1664417  
O   -1.8021297   -1.5120829    1.5842315  
C   -0.9711318   -0.8147624    3.7284083  
O   -1.7894187   -1.5009653    4.3257297  
C    0.0140216    0.0115358    4.4216297  
H    2.2638494    1.8988021    5.0689105  
H    0.0117648    0.0094386    5.5031631  
H    3.3327358    2.7953732    2.7900019  
H    2.1123206    1.7707734    0.8551938  
