60

C    5.0145033   -4.2415836   -8.8066203  
C    5.8087616   -4.9053474   -7.9005090  
C    5.3618971   -4.5272947   -6.5997446  
C    4.2831346   -3.6234633   -6.7766256  
N    4.0996711   -3.4704938   -8.1284977  
C    3.5969099   -3.0457639   -5.7041758  
C    4.0069663   -3.3869232   -4.4299535  
O    3.3714054   -2.8521428   -3.3468622  
C    5.0814646   -4.2866499   -4.2330734  
O    5.3702319   -4.5255547   -2.9053380  
C    5.7590733   -4.8567359   -5.2906057  
H    6.6121889   -5.5782903   -8.1467728  
H    3.3970533   -2.8957714   -8.5574546  
H    3.8085796   -3.2166087   -2.5662806  
H    6.1069498   -5.1426829   -2.8605773  
H    6.5783501   -5.5424448   -5.1087699  
H    5.0291134   -4.2560707   -9.8829724  
C    2.4782017   -2.1081874   -5.8783654  
C    1.9212504   -1.6438934   -7.0265428  
C    0.8545976   -0.7486147   -6.6450169  
C    0.8356627   -0.7292241   -5.1698703  
N    1.8439050   -1.5742004   -4.7669405  
C   -0.0307352   -0.0004646   -4.4215603  
C   -1.0100803    0.8193482   -5.1153366  
O   -1.8333384    1.5114170   -4.5308816  
C   -1.0083727    0.8138725   -6.6773134  
O   -1.8284266    1.4999054   -7.2724030  
C   -0.0251105   -0.0124247   -7.3732162  
H    2.2230608   -1.8995533   -8.0266247  
H   -0.0304448   -0.0104835   -8.4547392  
H    2.0835082   -1.7709325   -3.8125117  
C    3.2573670   -0.0002920   -1.5109380  
C    2.5379468   -0.0001709   -0.3591961  
C    1.1435043    0.0000332   -0.7338500  
C    1.1092609   -0.0000082   -2.2088477  
N    2.4227562    0.0001909   -2.6182613  
C   -0.0265532   -0.0002522   -2.9515663  
C   -1.3003035   -0.0002639   -2.2514981  
O   -2.3786784   -0.0004131   -2.8306429  
C   -1.2877725    0.0000312   -0.6895608  
O   -2.3539958    0.0003307   -0.0892036  
C    0.0000000    0.0000000    0.0000000  
H    2.9384091   -0.0000369    0.6389239  
H    4.3270394   -0.0004765   -1.6439446  
H    2.7280494   -0.0013406   -3.5742113  
C    0.0000000    0.0000000    1.4700000  
C    1.0541688    0.0001722    2.3260392  
C    0.5103138    0.0000454    3.6635956  
C   -0.9576371   -0.0002459    3.5155732  
N   -1.2018458    0.0001392    2.1615969  
C   -1.8348311   -0.0008317    4.5510609  
C   -1.2972847   -0.0009736    5.9014604  
O   -2.0050672   -0.0014265    6.9001319  
C    0.2542623   -0.0004184    6.0817573  
O    0.7184670   -0.0002256    7.2139121  
C    1.0974552   -0.0000873    4.8889129  
H    2.0940752    0.0005483    2.0517982  
H   -2.9081052   -0.0011668    4.4207061  
H    2.1707277    0.0000911    5.0223670  
H   -2.1128194   -0.0014912    1.7406791  
