62

C    5.6407084    0.0170451   -0.6743878  
C    6.9070328    0.0276883   -1.2117678  
C    6.7574705    0.0178706   -2.6302651  
C    5.3653958    0.0014762   -2.9019005  
N    4.7161324   -0.0005436   -1.6923263  
C    4.8484260   -0.0112556   -4.2008880  
C    5.7532269   -0.0070596   -5.2446776  
O    5.3026480   -0.0186573   -6.5330319  
C    7.1459462    0.0088555   -4.9938830  
O    7.9167817    0.0107073   -6.1380644  
C    7.6566613    0.0211486   -3.7126557  
H    7.8255871    0.0397976   -0.6504254  
H    3.7885338   -0.0239203   -4.4145927  
H    6.0871799   -0.0135228   -7.0967235  
H    8.8436403    0.0218184   -5.8803511  
H    8.7282987    0.0330394   -3.5516247  
H    5.3238838    0.0191630    0.3544836  
C    3.2573666   -0.0002920   -1.5109384  
C    2.5379463   -0.0001710   -0.3591964  
C    1.1435039    0.0000331   -0.7338498  
C    1.1092600   -0.0000083   -2.2088476  
N    2.4227554    0.0001909   -2.6182613  
C   -0.0265538   -0.0002524   -2.9515660  
C   -1.3003040   -0.0002640   -2.2514976  
O   -2.3786789   -0.0004133   -2.8306420  
C   -1.2877727    0.0000311   -0.6895603  
O   -2.3539960    0.0003306   -0.0892032  
C    0.0000000    0.0000000    0.0000000  
H    2.9384090   -0.0000368    0.6389236  
H    2.7280484   -0.0013407   -3.5742118  
C    2.4938350   -2.1214409   -5.9023425  
C    1.8951689   -1.6223091   -7.0358914  
C    0.8534318   -0.7479144   -6.6059868  
C    0.8643842   -0.7532636   -5.1876154  
N    1.8712158   -1.5989402   -4.7929786  
C   -0.0307367   -0.0004647   -4.4215603  
C   -0.9535307    0.7720376   -5.0996962  
O   -1.8506812    1.5268336   -4.4008275  
C   -0.9804634    0.7903150   -6.5145312  
O   -1.9581587    1.6088088   -7.0413366  
C   -0.0978825    0.0477028   -7.2709070  
H    2.1741795   -1.8601295   -8.0481106  
H    2.1244775   -1.7955405   -3.8415648  
H   -2.3948824    1.9813035   -5.0570035  
H   -1.9079192    1.5637768   -8.0010512  
H   -0.1426953    0.0817547   -8.3531782  
H    3.3147702   -2.8099248   -5.7973932  
C    2.3971438    2.0127888    3.1728260  
C    1.9431056    1.6308205    1.9564670  
C    0.8496017    0.7127664    2.2356185  
C    0.7794028    0.6545384    3.7115134  
N    1.6840587    1.4146091    4.2663826  
C   -0.1885723   -0.1578550    4.3957118  
C   -1.0476298   -0.8789867    3.6398520  
O   -2.0015663   -1.6796266    4.1448486  
C   -1.0022026   -0.8410666    2.1483229  
O   -1.8147390   -1.5232959    1.5241687  
C    0.0000000    0.0000000    1.4700000  
H    2.3054237    1.9346118    0.9892483  
H   -0.2170646   -0.1815267    5.4753125  
H   -2.4487139   -2.0549881    3.3649027  
H    3.2048689    2.6911772    3.3971983  
