62

C    2.6948541   -3.2442535   -8.8856078  
C    2.3329750   -1.9917716   -8.4465178  
C    2.3897204   -1.1221800   -9.5757602  
C    2.7954090   -1.9069849  -10.6854561  
N    2.9740033   -3.1900784  -10.2311529  
C    2.9571243   -1.3758667  -11.9686363  
C    2.7044067   -0.0280001  -12.1346708  
O    2.8464445    0.5420680  -13.3666862  
C    2.2990794    0.7716376  -11.0396342  
O    2.0864285    2.0950285  -11.3663744  
C    2.1396022    0.2484037   -9.7734117  
H    3.2516819   -3.9723280  -10.7959189  
H    3.2662075   -1.9686407  -12.8185107  
H    2.6245496    1.4764933  -13.2623963  
H    1.8158291    2.5648404  -10.5716061  
H    1.8281863    0.8856576   -8.9540185  
H    2.7773117   -4.1716488   -8.3451476  
C    2.5563879   -2.1074458   -5.9371929  
C    1.9637245   -1.6426518   -7.0671445  
C    0.9098264   -0.7472303   -6.6519876  
C    0.9372953   -0.7283017   -5.1769702  
N    1.9574935   -1.5736538   -4.8062060  
C    0.0950446    0.0004351   -4.4015596  
C   -0.9054232    0.8207087   -5.0639425  
O   -1.7097170    1.5127956   -4.4536737  
C   -0.9528376    0.8157262   -6.6252025  
O   -1.7910235    1.5021491   -7.1939976  
C    0.0078422   -0.0105933   -7.3519361  
H   -0.0314996   -0.0083091   -8.4327557  
H    3.3801399   -2.7951868   -5.8355365  
H    2.2269416   -1.7707466   -3.8598452  
C    3.3321173    0.0004713   -1.3379338  
C    2.6974181    0.0000116   -2.5332314  
C    1.2800438   -0.0002119   -2.2052841  
C    1.2395034    0.0000643   -0.7271299  
N    2.4394062    0.0005460   -0.2131038  
C    0.0000000    0.0000000    0.0000000  
C   -1.1468702    0.0000634   -0.7169543  
O   -2.3742203    0.0000074   -0.1695487  
C   -1.1388770    0.0001607   -2.2096355  
O   -2.2206234    0.0000905   -2.7970411  
C    0.1454522    0.0001815   -2.9324241  
H    3.1367984   -0.0000653   -3.5160950  
H   -2.9844346    0.0001026   -0.9290167  
H    4.3940038    0.0007618   -1.1498640  
C    0.8576279    0.7185626    2.2703808  
C    0.0000000    0.0000000    1.4700000  
C   -0.8668858   -0.7285659    2.3373528  
C   -0.4876752   -0.4117774    3.6669281  
N    0.5635254    0.4678311    3.5902241  
C   -1.1297612   -0.9515493    4.7854808  
C   -2.1738724   -1.8268314    4.5576857  
O   -2.8357962   -2.3827064    5.6140350  
C   -2.5667212   -2.1555554    3.2384331  
O   -3.6226318   -3.0413663    3.1773122  
C   -1.9335634   -1.6236449    2.1344818  
H    1.0363952    0.8769718    4.3757045  
H   -0.8454472   -0.7142436    5.8013813  
H   -3.5178062   -2.9546422    5.2385129  
H   -3.8247440   -3.2102924    2.2519915  
H   -2.2566033   -1.8942483    1.1360343  
H    1.6567807    1.3889844    2.0042067  
