64

C    7.8897781   -3.6450744   -4.6482692  
C    6.8739519   -3.0464152   -3.9396290  
C    6.9742280   -3.5113243   -2.5948597  
C    8.0796364   -4.3986031   -2.5425625  
N    8.6117157   -4.4586017   -3.8066471  
C    8.4743862   -5.0465917   -1.3682237  
C    7.7400370   -4.7940459   -0.2258007  
O    8.0822542   -5.4000529    0.9483612  
C    6.6336204   -3.9122169   -0.2579905  
O    6.0044606   -3.7650693    0.9609631  
C    6.2434563   -3.2728227   -1.4162103  
H    9.4130888   -5.0011756   -4.0738503  
H    9.3158424   -5.7240877   -1.3217976  
H    7.4497723   -5.0906444    1.6097962  
H    5.2693421   -3.1540588    0.8520088  
H    5.3915903   -2.6029225   -1.4102248  
H    8.1555901   -3.5572365   -5.6877823  
C    5.8841826   -2.1091704   -4.4899278  
C    5.7577993   -1.6457868   -5.7601162  
C    4.6250707   -0.7504400   -5.7708532  
C    4.0981354   -0.7300177   -4.3929154  
N    4.9052813   -1.5745223   -3.6661298  
C    3.0267438   -0.0008951   -3.9901699  
C    2.3471068    0.8182473   -4.9799348  
O    1.3727578    1.5105721   -4.7160574  
C    2.8878454    0.8116756   -6.4453237  
O    2.3236379    1.4971373   -7.2873884  
C    4.0508235   -0.0149259   -6.7584747  
H    6.3862349   -1.9020922   -6.5943761  
H    4.4191183   -0.0137448   -7.7753722  
H    4.8007129   -1.7705397   -2.6875134  
C    3.3003547    0.0005277   -1.4738986  
C    2.5232816    0.0003497   -2.6090746  
C    1.1623203   -0.0001319   -2.1820102  
C    1.1711884    0.0000584   -0.7636141  
N    2.4852301   -0.0014919   -0.3662359  
C    0.0000000    0.0000000    0.0000000  
C   -1.2020383    0.0000520   -0.6806479  
O   -2.3759248    0.0003493    0.0157745  
C   -1.2314655   -0.0005115   -2.0955511  
O   -2.5054388   -0.0008040   -2.6250184  
C   -0.0764513   -0.0007274   -2.8495195  
H    2.8036266    0.0088183    0.5858662  
H   -3.0835639    0.0000346   -0.6418822  
H   -2.4360043   -0.0011529   -3.5845924  
H   -0.1304091   -0.0013423   -3.9319089  
H    4.3715553    0.0004897   -1.3667133  
C    2.5285572    2.1210227    2.9438989  
C    1.9331703    1.6216660    4.0790748  
C    0.8903039    0.7472258    3.6520102  
C    0.8972198    0.7527806    2.2336141  
N    1.9028376    1.5986179    1.8362361  
C    0.0000000    0.0000000    1.4700000  
C   -0.9207814   -0.7726952    2.1506477  
O   -1.8198395   -1.5274828    1.4542253  
C   -0.9436862   -0.7911793    3.5655508  
O   -1.9197945   -1.6098497    4.0950179  
C   -0.0590329   -0.0485852    4.3195194  
H    2.2150357    1.8593692    5.0905303  
H    2.1533708    1.7953814    0.8841339  
H   -2.3621246   -1.9821033    2.1118817  
H   -1.8668290   -1.5649508    5.0545920  
H   -0.1007624   -0.0827977    5.4019087  
H    3.3491200    2.8096064    2.8367138  
