62

C    4.3336694   -3.6500556   -6.7277463  
C    5.2996903   -4.4731036   -6.1968376  
C    5.1984068   -4.3724241   -4.7776111  
C    4.1437270   -3.4658445   -4.4988807  
N    3.6416178   -3.0445430   -5.7051181  
C    3.7622329   -3.1265773   -3.1972858  
C    4.4579090   -3.7134161   -2.1581354  
O    4.1265000   -3.4176603   -0.8675119  
C    5.5134936   -4.6200860   -2.4160289  
O    6.1085321   -5.1192482   -1.2758062  
C    5.8905651   -4.9550347   -3.6998325  
H    5.9929016   -5.0714995   -6.7628541  
H    2.9593761   -2.4362039   -2.9781801  
H    4.7270595   -3.9269298   -0.3078354  
H    6.8102444   -5.7228482   -1.5382416  
H    6.7031772   -5.6524722   -3.8663269  
H    4.0844947   -3.4459347   -7.7549777  
C    2.5229100   -2.1069158   -5.8790371  
C    1.9659589   -1.6422902   -7.0270804  
C    0.8993064   -0.7471212   -6.6452961  
C    0.8803717   -0.7281564   -5.1701439  
N    1.8886136   -1.5732492   -4.7674580  
C    0.0139741    0.0003876   -4.4216236  
C   -0.9653707    0.8204009   -5.1151633  
O   -1.7886285    1.5123013   -4.5305085  
C   -0.9636632    0.8153760   -6.6771416  
O   -1.7837169    1.5015809   -7.2720331  
C    0.0195986   -0.0107207   -7.3732829  
H    2.2677690   -1.8976616   -8.0272351  
H    0.0142642   -0.0084675   -8.4548052  
H    2.1282169   -1.7702569   -3.8130861  
C    3.2798085    0.0005853   -1.4499648  
C    2.5571144    0.0005562   -2.5996554  
C    1.1637436    0.0001546   -2.2210360  
C    1.1336965   -0.0000201   -0.7459470  
N    2.4483513   -0.0001430   -0.3402717  
C    0.0000000    0.0000000    0.0000000  
C   -1.2757367   -0.0000188   -0.6964414  
O   -2.3524597   -0.0000640   -0.1142313  
C   -1.2676494   -0.0000875   -2.2584081  
O   -2.3355762   -0.0004102   -2.8557294  
C    0.0181562    0.0001757   -2.9516296  
H    2.9547357    0.0006072   -3.5989105  
H    4.3498550    0.0008609   -1.3200021  
H    2.7563627    0.0012824    0.6148063  
C    2.5311839    2.1237619    3.0120429  
C    1.9795631    1.6616747    1.8395852  
C    0.9223175    0.7739173    2.1983588  
C    0.8753926    0.7337535    3.6154372  
N    1.8668922    1.5631002    4.0777464  
C   -0.0496243   -0.0427881    4.3197917  
C   -0.9437528   -0.7922060    3.5801400  
O   -1.8685244   -1.5680278    4.2172520  
C   -0.9124520   -0.7656372    2.1655264  
O   -1.8671164   -1.5663939    1.5732860  
C    0.0000000    0.0000000    1.4700000  
H    2.3005065    1.9304404    0.8477417  
H    2.0679347    1.7444845    5.0445261  
H   -0.0904770   -0.0778569    5.3997470  
H   -2.3849669   -2.0011402    3.5251786  
H   -1.7775064   -1.4909735    0.6183591  
H    3.3468514    2.8078103    3.1724291  
