62

C   -1.1187020    0.0190826   -0.8003806  
C    0.0000000    0.0000000    0.0000000  
C    1.1321912   -0.0210350   -0.8673528  
C    0.6381298   -0.0133224   -2.1969280  
N   -0.7323547    0.0091820   -2.1202234  
C    1.4768084   -0.0290089   -3.3154811  
C    2.8390601   -0.0526098   -3.0876859  
O    3.7032899   -0.0683351   -4.1440352  
C    3.3512313   -0.0610213   -1.7684335  
O    4.7292788   -0.0853843   -1.7073129  
C    2.5244384   -0.0458295   -0.6644819  
H   -1.3573172    0.0297682   -2.9057039  
H    4.5932365   -0.0839100   -3.7685137  
H    4.9926571   -0.0895601   -0.7819922  
H    2.9457816   -0.0529744    0.3339657  
H   -2.1616637    0.0375267   -0.5342067  
C    0.9734026   -0.0213666   -4.6965766  
C   -0.3136515    0.0008193   -5.1144027  
C   -0.2364710   -0.0017787   -6.5671706  
C    1.2120386   -0.0272940   -6.8634017  
N    1.9262407   -0.0389472   -5.7708041  
C    1.7131330   -0.0372395   -8.2102096  
C    0.8082924   -0.0227601   -9.2153900  
O    1.1345184   -0.0296592  -10.5190658  
C   -0.6601715    0.0026949   -8.9486941  
O   -1.4261515    0.0149606   -9.9122014  
C   -1.1492185    0.0125211   -7.5584926  
H   -1.2052965    0.0168647   -4.5112544  
H    2.7768449   -0.0557428   -8.3975169  
H    0.2808634   -0.0155420  -10.9883482  
C   -3.2684975    0.7547609   -6.4105635  
C   -2.6046254    0.0375317   -7.3533951  
C   -3.5990010   -0.6888236   -8.1073582  
C   -4.9059791   -0.3333996   -7.5223187  
N   -4.6363172    0.5445945   -6.4979656  
C   -6.0988114   -0.8133117   -7.9565298  
C   -6.0951405   -1.7420395   -9.0745576  
O   -7.1173833   -2.2298314   -9.5386490  
C   -4.7224507   -2.1325877   -9.7093808  
O   -4.7067996   -2.9138921  -10.6509637  
C   -3.5035129   -1.5493966   -9.1544657  
H   -7.0462937   -0.5397170   -7.5134353  
H   -2.5571795   -1.8247808   -9.5998209  
H   -2.8735644    1.4190111   -5.6591055  
H   -5.3269434    0.9690520   -5.9064267  
C    2.5311839    2.1237619    3.0120429  
C    1.9795631    1.6616747    1.8395852  
C    0.9223175    0.7739173    2.1983588  
C    0.8753926    0.7337535    3.6154372  
N    1.8668922    1.5631002    4.0777464  
C   -0.0496243   -0.0427881    4.3197917  
C   -0.9437528   -0.7922060    3.5801400  
O   -1.8685244   -1.5680278    4.2172520  
C   -0.9124520   -0.7656372    2.1655264  
O   -1.8671164   -1.5663939    1.5732860  
C    0.0000000    0.0000000    1.4700000  
H    2.3005065    1.9304404    0.8477417  
H    2.0679347    1.7444845    5.0445261  
H   -0.0904770   -0.0778569    5.3997470  
H   -2.3849669   -2.0011402    3.5251786  
H   -1.7775064   -1.4909735    0.6183591  
H    3.3468514    2.8078103    3.1724291  
