60

C    5.5391884   -1.1094536   -6.4930852  
C    6.5229956   -1.9937567   -6.1154636  
C    7.3169103   -2.2520903   -7.2719944  
C    6.7651860   -1.4908594   -8.3340928  
N    5.6859779   -0.8103038   -7.8273682  
C    7.2962487   -1.5012434   -9.6274046  
C    8.4046442   -2.2943014   -9.8525625  
O    8.9636641   -2.3412798  -11.0968712  
C    8.9692805   -3.0612953   -8.8057951  
O   10.0699790   -3.7995303   -9.1889587  
C    8.4457356   -3.0517455   -7.5297325  
H    6.6518408   -2.4032115   -5.1281751  
H    5.1016653   -0.1799135   -8.3461817  
H    6.8803234   -0.9234546  -10.4412648  
H    9.7148101   -2.9457226  -11.0360985  
H   10.3899752   -4.2877411   -8.4241991  
H    8.8997145   -3.6498640   -6.7483008  
C    4.2034617   -0.7255629   -4.3886928  
C    4.4527381   -0.5087794   -5.7058645  
C    3.4509045    0.4181870   -6.1769255  
C    2.5913899    0.7259044   -5.0179020  
N    3.1006054    0.0006263   -3.9654951  
C    1.5263758    1.5663104   -5.0520694  
C    1.2050786    2.2105986   -6.3146842  
O    0.2656531    2.9839469   -6.4477772  
C    2.1016895    1.8990894   -7.5551904  
O    1.8407280    2.4353806   -8.6236246  
C    3.2224932    0.9761306   -7.3945728  
H    0.9088868    1.7784673   -4.1903228  
H    3.8385531    0.7659037   -8.2582839  
H    4.7325143   -1.3548978   -3.6916057  
C    3.2798083    0.0005857   -1.4499652  
C    2.5571142    0.0005565   -2.5996556  
C    1.1637432    0.0001548   -2.2210361  
C    1.1336964   -0.0000200   -0.7459473  
N    2.4483512   -0.0001428   -0.3402723  
C    0.0000000    0.0000000    0.0000000  
C   -1.2757368   -0.0000186   -0.6964415  
O   -2.3524598   -0.0000639   -0.1142311  
C   -1.2676497   -0.0000872   -2.2584083  
O   -2.3355766   -0.0004101   -2.8557295  
C    0.0181558    0.0001758   -2.9516296  
H    0.0150788    0.0003319   -4.0331631  
H    4.3498547    0.0008612   -1.3200026  
H    2.7563626    0.0012823    0.6148059  
C    0.8681109    0.7263879    2.2709268  
C    0.6127770    0.5096195    3.5869401  
C   -0.4920590   -0.4175482    3.6542670  
C   -0.8620974   -0.7254003    2.2596025  
N    0.0000000    0.0000000    1.4700000  
C   -1.8641242   -1.5660088    1.8976294  
C   -2.6293522   -2.2103885    2.9520183  
O   -3.5512764   -2.9839180    2.7283916  
C   -2.2549728   -1.8987399    4.4361073  
O   -2.8923672   -2.4351063    5.3323774  
C   -1.1543735   -0.9755647    4.7012123  
H    1.1382914    0.9492124    4.4159191  
H   -2.1192137   -1.7782617    0.8686553  
H   -0.9013378   -0.7652422    5.7314848  
H    1.6172880    1.3558399    1.8188057  
