60

C    4.5318911    0.0286587   -6.6733989  
C    5.7175093   -0.6468390   -6.8479837  
C    6.2188837   -0.2827130   -8.1327550  
C    5.2889164    0.6255459   -8.7003402  
N    4.2757858    0.7911845   -7.7888870  
C    5.4622474    1.1929343   -9.9663639  
C    6.5951619    0.8371907  -10.6721460  
O    6.8140333    1.3619847  -11.9129924  
C    7.5344506   -0.0677426  -10.1229198  
O    8.6098379   -0.3220904  -10.9488678  
C    7.3639645   -0.6280812   -8.8741275  
H    6.1653070   -1.3201572   -6.1372708  
H    3.4774998    1.3877778   -7.9105303  
H    4.7571022    1.8856750  -10.4046371  
H    7.6483793    0.9876717  -12.2244770  
H    9.1956317   -0.9417527  -10.5033701  
H    8.1004463   -1.3183884   -8.4797308  
C    4.6190968   -2.0899186   -2.8279649  
C    3.4606683   -1.6280057   -2.2906061  
C    2.8761400   -0.7301693   -3.2586206  
C    3.7955633   -0.7067283   -4.4122677  
N    4.8319966   -1.5514032   -4.0878914  
C    3.5979915    0.0246979   -5.5381833  
C    2.3999527    0.8436571   -5.6190796  
O    2.1321345    1.5380350   -6.5908892  
C    1.4124498    0.8342977   -4.4088913  
O    0.4006154    1.5200499   -4.4654210  
C    1.7334695    0.0049281   -3.2500363  
H    3.0613135   -1.8865707   -1.3260992  
H    5.3352943   -2.7782578   -2.4094676  
H    5.6204863   -1.7480983   -4.6766545  
C    1.1319246    0.0015678   -0.8009268  
C    0.7969914    0.0034958   -2.1169401  
C   -0.6453340    0.0035696   -2.1842669  
C   -1.1266832    0.0015410   -0.7896025  
N    0.0000000    0.0000000    0.0000000  
C   -2.4346129    0.0013913   -0.4276292  
C   -3.4350111    0.0031335   -1.4820181  
O   -4.6384614    0.0030875   -1.2583914  
C   -2.9478961    0.0050442   -2.9661074  
O   -3.7809382    0.0062135   -3.8623773  
C   -1.5113825    0.0053055   -3.2312122  
H   -2.7664565    0.0000174    0.6013448  
H   -1.1823533    0.0068381   -4.2614848  
H    2.1104316    0.0009435   -0.3488059  
C    0.8681109    0.7263879    2.2709268  
C    0.6127770    0.5096195    3.5869401  
C   -0.4920590   -0.4175482    3.6542670  
C   -0.8620974   -0.7254003    2.2596025  
N    0.0000000    0.0000000    1.4700000  
C   -1.8641242   -1.5660088    1.8976294  
C   -2.6293522   -2.2103885    2.9520183  
O   -3.5512764   -2.9839180    2.7283916  
C   -2.2549728   -1.8987399    4.4361073  
O   -2.8923672   -2.4351063    5.3323774  
C   -1.1543735   -0.9755647    4.7012123  
H    1.1382914    0.9492124    4.4159191  
H   -2.1192137   -1.7782617    0.8686553  
H   -0.9013378   -0.7652422    5.7314848  
H    1.6172880    1.3558399    1.8188057  
