62

C   -3.9849596    0.7194519   -1.9554403  
C   -3.2941075    0.0012873   -2.9038235  
C   -4.2599432   -0.7263565   -3.6603265  
C   -5.5339713   -0.4094414   -3.1233509  
N   -5.3307339    0.4693513   -2.0884424  
C   -6.7219956   -0.9483828   -3.6262728  
C   -6.6220979   -1.8229489   -4.6908535  
O   -7.7507709   -2.3779977   -5.2209800  
C   -5.3599666   -2.1517858   -5.2401317  
O   -5.4269547   -3.0368199   -6.2963369  
C   -4.1875175   -1.6206946   -4.7443178  
H   -6.0533077    0.8783790   -1.5240270  
H   -7.6961102   -0.7109762   -3.2213776  
H   -7.4604453   -2.9495358   -5.9436967  
H   -4.5328204   -3.2058806   -6.6086603  
H   -3.2354103   -1.8913641   -5.1855753  
H   -3.6241065    1.3891889   -1.1937339  
C    0.0000000    0.0000000    0.0000000  
C    1.0541688   -0.0001722   -0.8560392  
C    0.5103135   -0.0000454   -2.1935954  
C   -0.9576375    0.0002459   -2.0455728  
N   -1.2018462   -0.0001392   -0.6915966  
C   -1.8348315    0.0008316   -3.0810604  
C   -1.2972851    0.0009737   -4.4314603  
O   -2.0050681    0.0014265   -5.4301316  
C    0.2542617    0.0004185   -4.6117570  
O    0.7184664    0.0002257   -5.7439119  
C    1.0974549    0.0000874   -3.4189129  
H    2.0940751   -0.0005482   -0.5817983  
H   -2.1128195    0.0014911   -0.2706785  
C    4.3984117   -2.1246599   -1.2791013  
C    3.1669344   -1.6622727   -1.6817543  
C    3.3926758   -0.7743705   -2.7750385  
C    4.7931421   -0.7344314   -2.9964555  
N    5.3741071   -1.5640457   -2.0697208  
C    5.3781191    0.0421725   -4.0011828  
C    4.5339313    0.7918849   -4.7970824  
O    5.0522092    1.5677802   -5.7932689  
C    3.1339856    0.7655435   -4.5914717  
O    2.4286225    1.5665821   -5.4656248  
C    2.5562209   -0.0001551   -3.6003007  
H    2.2222225   -1.9309367   -1.2409230  
H    6.3582717   -1.7456283   -1.9895396  
H    6.4447867    0.0770710   -4.1749763  
H    4.3017806    2.0011062   -6.2202937  
H    1.4920363    1.4913019   -5.2588811  
H    4.6580915   -2.8088921   -0.4895750  
C    3.2573670    0.0002920    2.9809380  
C    2.5379467    0.0001709    1.8291961  
C    1.1435042   -0.0000331    2.2038498  
C    1.1092607    0.0000083    3.6788474  
N    2.4227561   -0.0001909    4.0882609  
C   -0.0265533    0.0002524    4.4215661  
C   -1.3003036    0.0002640    3.7214979  
O   -2.3786784    0.0004133    4.3006425  
C   -1.2877726   -0.0000311    2.1595606  
O   -2.3539958   -0.0003306    1.5592035  
C    0.0000000    0.0000000    1.4700000  
H    2.9384090    0.0000368    0.8310761  
H   -0.0296291    0.0004086    5.5027230  
H    4.3270393    0.0004765    3.1139444  
H    2.7280493    0.0013407    5.0442112  
