62

C   -0.2276025   -1.1455806   -9.6311287  
C   -0.3742253   -0.0620427   -8.7963141  
C   -0.6222585    1.0718116   -9.6254424  
C   -0.6157692    0.6149022  -10.9682436  
N   -0.3714249   -0.7356055  -10.9359595  
C   -0.8281571    1.4653115  -12.0575031  
C   -1.0514600    2.8012519  -11.7862526  
O   -1.2649324    3.6753653  -12.8125899  
C   -1.0613472    3.2762891  -10.4531893  
O   -1.2969890    4.6315404  -10.3477855  
C   -0.8516268    2.4379571   -9.3781338  
H   -0.3196781   -1.3353880  -11.7394299  
H   -0.8243095    1.1233206  -13.0832846  
H   -1.3969657    4.5431633  -12.4091572  
H   -1.2873043    4.8703598   -9.4158659  
H   -0.8647864    2.8307065   -8.3681574  
H   -0.0303903   -2.1781676   -9.3991156  
C    2.2088376   -2.1426205   -5.8191636  
C    1.6816910   -1.7351242   -6.9971456  
C    0.6077899   -0.8240080   -6.6323121  
C    0.6276207   -0.7974855   -5.1539730  
N    1.5640846   -1.5684500   -4.6716456  
C   -0.2963293   -0.0005341   -4.3948471  
C   -1.1988048    0.7367190   -5.0813825  
O   -2.1196088    1.5258329   -4.5021932  
C   -1.2438086    0.7314045   -6.5733969  
O   -2.0920753    1.4267087   -7.1321599  
C   -0.2854235   -0.0943979   -7.3293552  
H    1.9842853   -2.0178258   -7.9909228  
H   -2.6127106    1.9180864   -5.2452551  
H    3.0283493   -2.8250551   -5.6589865  
C    3.1301146   -0.0010313   -1.7028256  
C    2.5367765   -0.0002766   -0.4864669  
C    1.1089901    0.0001027   -0.7656184  
C    1.0177865   -0.0004150   -2.2415133  
N    2.1993571   -0.0011612   -2.7963824  
C   -0.2459219   -0.0002879   -2.9257116  
C   -1.3675326   -0.0000606   -2.1698520  
O   -2.6129318    0.0000865   -2.6748483  
C   -1.3083588    0.0000910   -0.6783229  
O   -2.3693264    0.0004206   -0.0541685  
C    0.0000000    0.0000000    0.0000000  
H    3.0096016   -0.0001007    0.4807518  
H   -3.1967444    0.0002093   -1.8949026  
H    4.1849275   -0.0015114   -1.9271979  
C    0.8576279    0.7185626    2.2703808  
C    0.0000000    0.0000000    1.4700000  
C   -0.8668858   -0.7285659    2.3373528  
C   -0.4876752   -0.4117774    3.6669281  
N    0.5635254    0.4678311    3.5902241  
C   -1.1297612   -0.9515493    4.7854808  
C   -2.1738724   -1.8268314    4.5576857  
O   -2.8357962   -2.3827064    5.6140350  
C   -2.5667212   -2.1555554    3.2384331  
O   -3.6226318   -3.0413663    3.1773122  
C   -1.9335634   -1.6236449    2.1344818  
H    1.0363952    0.8769718    4.3757045  
H   -0.8454472   -0.7142436    5.8013813  
H   -3.5178062   -2.9546422    5.2385129  
H   -3.8247440   -3.2102924    2.2519915  
H   -2.2566033   -1.8942483    1.1360343  
H    1.6567807    1.3889844    2.0042067  
