62

C   -0.9536164    0.5956998   -0.7919006  
C   -0.6429510    0.3818130   -2.1148545  
C    0.5598355   -0.3844744   -2.1414698  
C    0.9394359   -0.6102039   -0.7935548  
N    0.0000000    0.0000000    0.0000000  
C    2.0823259   -1.3342012   -0.4408233  
C    2.8559419   -1.8397907   -1.4675052  
O    3.9824716   -2.5545700   -1.1793458  
C    2.4939008   -1.6248488   -2.8186318  
O    3.3663330   -2.1915363   -3.7247611  
C    1.3666961   -0.9104731   -3.1673475  
H    2.3771826   -1.5096255    0.5845978  
H    4.3680143   -2.8102312   -2.0274369  
H    3.0494461   -1.9999853   -4.6127335  
H    1.1149312   -0.7620032   -4.2109230  
H   -1.7792052    1.1272666   -0.3505410  
C   -2.8171550    4.1400399   -3.1213380  
C   -2.0801542    3.2253386   -2.4492285  
C   -2.0016982    2.0784518   -3.3408532  
C   -2.7676311    2.4845757   -4.5387653  
N   -3.2479727    3.6921232   -4.4159196  
C   -2.9292811    1.6132228   -5.6700035  
C   -2.3516816    0.3918258   -5.6075336  
O   -2.4214444   -0.5225463   -6.5899277  
C   -1.5720916   -0.0470831   -4.4126446  
O   -1.0738760   -1.1726316   -4.4245744  
C   -1.4206624    0.8649179   -3.2649303  
H   -1.6435827    3.3175401   -1.4694428  
H   -3.4944238    1.9359625   -6.5321888  
H   -1.9163146   -1.2853252   -6.2550165  
C   -2.0292133    6.4139599    0.5806701  
C   -2.0726195    5.4593096   -0.3841266  
C   -2.8471830    5.9995504   -1.4763841  
C   -3.2543683    7.3569381   -1.0659099  
N   -2.7269875    7.5469419    0.1905371  
C   -4.0008123    8.1983591   -1.8252095  
C   -4.4321285    7.7361543   -3.1339751  
O   -5.1075193    8.4194409   -3.8924390  
C   -4.0126426    6.3020139   -3.5890337  
O   -4.3701437    5.9018410   -4.6887226  
C   -3.2064710    5.4879974   -2.6827682  
H   -1.6144899    4.4874966   -0.3360543  
H   -4.2885061    9.1902492   -1.5053693  
H   -1.5463644    6.3850527    1.5439515  
H   -2.8310661    8.3810187    0.7387430  
C    2.5311839    2.1237619    3.0120429  
C    1.9795631    1.6616747    1.8395852  
C    0.9223175    0.7739173    2.1983588  
C    0.8753926    0.7337535    3.6154372  
N    1.8668922    1.5631002    4.0777464  
C   -0.0496243   -0.0427881    4.3197917  
C   -0.9437528   -0.7922060    3.5801400  
O   -1.8685244   -1.5680278    4.2172520  
C   -0.9124520   -0.7656372    2.1655264  
O   -1.8671164   -1.5663939    1.5732860  
C    0.0000000    0.0000000    1.4700000  
H    2.3005065    1.9304404    0.8477417  
H    2.0679347    1.7444845    5.0445261  
H   -0.0904770   -0.0778569    5.3997470  
H   -2.3849669   -2.0011402    3.5251786  
H   -1.7775064   -1.4909735    0.6183591  
H    3.3468514    2.8078103    3.1724291  
