62

C    1.1188645    0.0008227   -0.8003808  
C    0.0000000    0.0000000    0.0000000  
C   -1.1323862    0.0008891   -0.8673529  
C   -0.6382656    0.0019670   -2.1969285  
N    0.7324021    0.0038481   -2.1202242  
C   -1.4770907    0.0027303   -3.3154814  
C   -2.8395473    0.0020921   -3.0876861  
O   -3.7039194    0.0024395   -4.1440351  
C   -3.3517865    0.0013906   -1.7684336  
O   -4.7300498    0.0012335   -1.7073130  
C   -2.5248545    0.0009106   -0.6644821  
H   -1.1067563    0.0036973   -4.3313815  
H   -4.5940026    0.0021793   -3.7685137  
H   -4.9934603    0.0007230   -0.7819922  
H   -2.9462574    0.0005583    0.3339649  
H    2.1619895    0.0009367   -0.5342067  
C    4.4769682   -2.1470614   -2.7027275  
C    4.8409703   -1.7539531   -3.9455258  
C    3.7877276   -0.8472118   -4.3756414  
C    2.8430658   -0.8072129   -3.2387164  
N    3.2418508   -1.5671421   -2.2551171  
C    1.6478439   -0.0100096   -3.2702999  
C    1.4074693    0.7146090   -4.3867595  
O    0.3314540    1.5023744   -4.5530626  
C    2.3418723    0.6955152   -5.5506700  
O    2.0597584    1.3797242   -6.5342805  
C    3.5612161   -0.1302649   -5.4939929  
H    0.4389873    1.8844054   -5.4428046  
H    4.2123698   -0.1166587   -6.3577315  
H    4.9959845   -2.8222013   -2.0410771  
C    6.0359662   -2.1492457   -4.7048870  
C    7.0256588   -2.9897531   -4.3232665  
C    7.9468183   -3.0201038   -5.4488969  
C    7.3414566   -2.1161273   -6.4503698  
N    6.2212184   -1.6026229   -6.0198240  
C    7.9576544   -1.8713618   -7.7253118  
C    9.1257147   -2.5007441   -7.9876966  
O    9.8101229   -2.3646747   -9.1362225  
C    9.7619086   -3.4187111   -6.9973660  
O   10.8253602   -3.9577398   -7.3035351  
C    9.1102242   -3.6534943   -5.6965553  
H    7.1191134   -3.5231944   -3.3927921  
H    7.4929477   -1.2060378   -8.4382645  
H   10.5942539   -2.9323138   -9.0263275  
H    9.6032143   -4.3253043   -5.0067279  
C    0.8576279    0.7185626    2.2703808  
C    0.0000000    0.0000000    1.4700000  
C   -0.8668858   -0.7285659    2.3373528  
C   -0.4876752   -0.4117774    3.6669281  
N    0.5635254    0.4678311    3.5902241  
C   -1.1297612   -0.9515493    4.7854808  
C   -2.1738724   -1.8268314    4.5576857  
O   -2.8357962   -2.3827064    5.6140350  
C   -2.5667212   -2.1555554    3.2384331  
O   -3.6226318   -3.0413663    3.1773122  
C   -1.9335634   -1.6236449    2.1344818  
H    1.0363952    0.8769718    4.3757045  
H   -0.8454472   -0.7142436    5.8013813  
H   -3.5178062   -2.9546422    5.2385129  
H   -3.8247440   -3.2102924    2.2519915  
H   -2.2566033   -1.8942483    1.1360343  
H    1.6567807    1.3889844    2.0042067  
