66

C    4.9188921   -1.1103924   -6.8239961  
C    5.9395065   -1.9968481   -6.5690277  
C    6.5785870   -2.2657262   -7.8155761  
C    5.8988378   -1.5084128   -8.8036772  
N    4.8955482   -0.8199450   -8.1680355  
C    6.2607012   -1.5289821  -10.1540182  
C    7.3284057   -2.3283868  -10.5133755  
O    7.7241073   -2.3853811  -11.8184366  
C    8.0189862   -3.0916136   -9.5420878  
O    9.0591231   -3.8371131  -10.0575371  
C    7.6623777   -3.0720163   -8.2098073  
H    6.1916023   -2.4009326   -5.6035454  
H    4.2522294   -0.1900515   -8.6122837  
H    5.7465973   -0.9542262  -10.9120124  
H    8.4746203   -2.9928392  -11.8499148  
H    9.4721565   -4.3221550   -9.3366059  
H    8.2100163   -3.6674686   -7.4886930  
C    3.8706492   -0.7380877   -4.5561748  
C    2.8310662   -0.0116220   -4.0232752  
C    2.2320931    0.7087009   -5.0988988  
C    2.9547298    0.3789711   -6.2740583  
N    3.9438703   -0.5000829   -5.9087061  
C    2.6394088    0.9080278   -7.5292320  
C    1.5750126    1.7857026   -7.5994170  
O    1.2238682    2.3314681   -8.8001884  
C    0.8420582    2.1272704   -6.4379846  
O   -0.1887477    3.0138620   -6.6719459  
C    1.1527393    1.6059352   -5.1993504  
H    3.1863417    0.6608350   -8.4286544  
H    0.4675002    2.9071616   -8.6277090  
H   -0.6323006    3.1917836   -5.8369559  
H    0.5733112    1.8862638   -4.3274803  
H    4.5665931   -1.4060752   -4.0782484  
C    3.3041270    0.0001177   -1.5420434  
C    2.5845372   -0.0004781   -0.3695856  
C    1.2040006   -0.0000008   -0.7283592  
C    1.1422371    0.0006037   -2.1454375  
N    2.4348636    0.0026109   -2.6077467  
C   -0.0655183    0.0008798   -2.8497920  
C   -1.2321770    0.0002326   -2.1101400  
O   -2.4392818    0.0001147   -2.7472520  
C   -1.1911210   -0.0000007   -0.6955263  
O   -2.4371527   -0.0002320   -0.1032859  
C    0.0000000    0.0000000    0.0000000  
H    3.0031533   -0.0000660    0.6222577  
H   -0.1193553    0.0014844   -3.9297472  
H   -3.1132989   -0.0000648   -2.0551784  
H   -2.3200282   -0.0004069    0.8516410  
H    4.3686624    0.0004070   -1.7024294  
C    2.5311839    2.1237619    3.0120429  
C    1.9795631    1.6616747    1.8395852  
C    0.9223175    0.7739173    2.1983588  
C    0.8753926    0.7337535    3.6154372  
N    1.8668922    1.5631002    4.0777464  
C   -0.0496243   -0.0427881    4.3197917  
C   -0.9437528   -0.7922060    3.5801400  
O   -1.8685244   -1.5680278    4.2172520  
C   -0.9124520   -0.7656372    2.1655264  
O   -1.8671164   -1.5663939    1.5732860  
C    0.0000000    0.0000000    1.4700000  
H    2.3005065    1.9304404    0.8477417  
H    2.0679347    1.7444845    5.0445261  
H   -0.0904770   -0.0778569    5.3997470  
H   -2.3849669   -2.0011402    3.5251786  
H   -1.7775064   -1.4909735    0.6183591  
H    3.3468514    2.8078103    3.1724291  
