62

C   -5.7034205    0.7188916    0.8707209  
C   -6.5599413    0.0018031    0.0678360  
C   -7.4304800   -0.7254232    0.9326504  
C   -7.0545358   -0.4093740    2.2633288  
N   -6.0016856    0.4685224    2.1896987  
C   -7.7006820   -0.9481968    3.3799998  
C   -8.7455695   -1.8217508    3.1491528  
O   -9.4114027   -2.3766387    4.2035624  
C   -9.1352004   -2.1497145    1.8287572  
O  -10.1923787   -3.0337931    1.7645493  
C   -8.4980364   -1.6187397    0.7266616  
H   -5.5303848    0.8768193    2.9765599  
H   -7.4188721   -0.7114467    4.3967274  
H  -10.0932752   -2.9474256    3.8260486  
H  -10.3921341   -3.2023056    0.8386416  
H   -8.8186772   -1.8887253   -0.2727262  
H   -4.9024200    1.3880303    0.6068842  
C   -3.2941076    0.0012874   -2.9038237  
C   -4.0168013    0.0014134   -1.7541332  
C   -5.4101722    0.0018616   -2.1327521  
C   -5.4402197    0.0019579   -3.6078411  
N   -4.1255649    0.0019955   -4.0135163  
C   -6.5739167    0.0019521   -4.3537877  
C   -7.8496532    0.0020696   -3.6573458  
O   -8.9263768    0.0021352   -4.2395556  
C   -7.8415653    0.0022225   -2.0953793  
O   -8.9094926    0.0026291   -1.4980574  
C   -6.5557596    0.0019351   -1.4021581  
H   -3.6191800    0.0013975   -0.7548779  
H   -6.5739168    0.0018934   -5.4349496  
H   -3.8175538    0.0005039   -4.9685944  
C    0.0000000    0.0000000    0.0000000  
C    1.0541688   -0.0001722   -0.8560393  
C    0.5103135   -0.0000454   -2.1935957  
C   -0.9576374    0.0002459   -2.0455730  
N   -1.2018460   -0.0001391   -0.6915968  
C   -1.8348314    0.0008317   -3.0810607  
C   -1.2972851    0.0009737   -4.4314604  
O   -2.0050676    0.0014265   -5.4301315  
C    0.2542619    0.0004184   -4.6117571  
O    0.7184666    0.0002257   -5.7439121  
C    1.0974550    0.0000874   -3.4189130  
H    2.0940752   -0.0005483   -0.5817984  
H    2.1707276   -0.0000911   -3.5523671  
H   -2.1128194    0.0014912   -0.2706789  
C    3.3041272   -0.0001177    3.0120429  
C    2.5845372    0.0004780    1.8395852  
C    1.2040006    0.0000008    2.1983588  
C    1.1422373   -0.0006037    3.6154372  
N    2.4348639   -0.0026109    4.0777464  
C   -0.0655181   -0.0008797    4.3197917  
C   -1.2321768   -0.0002324    3.5801400  
O   -2.4392816   -0.0001146    4.2172520  
C   -1.1911209    0.0000007    2.1655264  
O   -2.4371527    0.0002320    1.5732860  
C    0.0000000    0.0000000    1.4700000  
H    3.0031534    0.0000661    0.8477417  
H    2.7054629    0.0071099    5.0445261  
H   -0.1193549   -0.0014844    5.3997470  
H   -3.1132988    0.0000648    3.5251786  
H   -2.3200282    0.0004071    0.6183591  
H    4.3686625   -0.0004071    3.1724291  
