62

C    7.2229154   -3.3866961   -6.9869517  
C    6.7270327   -2.1230168   -6.7640572  
C    7.2436215   -1.2849779   -7.7962518  
C    8.0550468   -2.0996857   -8.6267737  
N    8.0221825   -3.3694539   -8.1059794  
C    8.7264532   -1.6041142   -9.7485635  
C    8.5757446   -0.2617093  -10.0373776  
O    9.2088771    0.2741883  -11.1213391  
C    7.7707175    0.5674198   -9.2204982  
O    7.7213149    1.8809589   -9.6394461  
C    7.1082849    0.0792626   -8.1135160  
H    8.4964752   -4.1666783   -8.4899868  
H    9.3464955   -2.2197953  -10.3854971  
H    8.9730826    1.2108443  -11.1398073  
H    7.1575057    2.3722497   -9.0341721  
H    6.4988613    0.7385584   -7.5065484  
H    7.0708574   -4.2986451   -6.4354218  
C    5.8833910   -2.1427757   -4.3709413  
C    5.8356981   -1.7363035   -5.6609362  
C    4.7031565   -0.8254389   -5.7255535  
C    4.1678913   -0.7979256   -4.3473962  
N    4.8557055   -1.5681393   -3.5488520  
C    3.0267438   -0.0008951   -3.9901699  
C    2.4469276    0.7354873   -4.9653053  
O    1.3760859    1.5245623   -4.7737362  
C    2.9639695    0.7291613   -6.3655868  
O    2.3865732    1.4237044   -7.2019148  
C    4.1358654   -0.0967023   -6.7069580  
H    1.1970817    1.9160958   -5.6476994  
H    4.4795601   -0.0736389   -7.7324192  
H    6.5833960   -2.8247270   -3.9149717  
C    3.3003547    0.0005277   -1.4738986  
C    2.5232816    0.0003497   -2.6090746  
C    1.1623203   -0.0001319   -2.1820102  
C    1.1711884    0.0000584   -0.7636141  
N    2.4852301   -0.0014919   -0.3662359  
C    0.0000000    0.0000000    0.0000000  
C   -1.2020383    0.0000520   -0.6806479  
O   -2.3759248    0.0003493    0.0157745  
C   -1.2314655   -0.0005115   -2.0955511  
O   -2.5054388   -0.0008040   -2.6250184  
C   -0.0764513   -0.0007274   -2.8495195  
H    2.8036266    0.0088183    0.5858662  
H   -3.0835639    0.0000346   -0.6418822  
H   -2.4360043   -0.0011529   -3.5845924  
H   -0.1304091   -0.0013423   -3.9319089  
H    4.3715553    0.0004897   -1.3667133  
C    2.5128556    2.1077716    2.9199648  
C    1.9592212    1.6432552    4.0696553  
C    0.8915788    0.7479214    3.6910360  
C    0.8684491    0.7287414    2.2159470  
N    1.8754542    1.5738793    1.8102719  
C    0.0000000    0.0000000    1.4700000  
C   -0.9772830   -0.8200135    2.1664417  
O   -1.8021297   -1.5120829    1.5842315  
C   -0.9711318   -0.8147624    3.7284083  
O   -1.7894187   -1.5009653    4.3257297  
C    0.0140216    0.0115358    4.4216297  
H    2.2638494    1.8988021    5.0689105  
H    0.0117648    0.0094386    5.5031631  
H    3.3327358    2.7953732    2.7900019  
H    2.1123206    1.7707734    0.8551938  
