60

C   -0.0671592    0.0182948   -8.8430377  
C    0.7336713   -0.6573747   -9.7344460  
C    0.2975638   -0.2951574  -11.0433425  
C   -0.7813424    0.6121681  -10.8863451  
N   -0.9779632    0.7791094   -9.5379813  
C   -1.4579395    1.1776506  -11.9713499  
C   -1.0375346    0.8209257  -13.2379147  
O   -1.6629727    1.3438555  -14.3326223  
C    0.0368006   -0.0831014  -13.4149916  
O    0.3360470   -0.3386173  -14.7373017  
C    0.7045629   -0.6415600  -12.3450643  
H    1.5330424   -1.3295804   -9.4734117  
H   -1.6702180    1.3754556   -9.1218860  
H   -2.2810735    1.8696716  -11.8583899  
H   -1.2200930    0.9691356  -15.1050915  
H    1.0719430   -0.9575582  -14.7684922  
H    1.5237443   -1.3312115  -12.5117999  
C    2.4602721   -2.0944455   -5.9392888  
C    1.9124732   -1.6318086   -4.7860506  
C    0.8432456   -0.7354855   -5.1577935  
C    0.8127886   -0.7137216   -6.6327140  
N    1.8180307   -1.5578236   -7.0448669  
C   -0.0596369    0.0159820   -7.3730587  
C   -1.0334825    0.8347249   -6.6703356  
O   -1.8613772    1.5276083   -7.2472273  
C   -1.0192492    0.8271228   -5.1084314  
O   -1.8341905    1.5127102   -4.5058520  
C   -0.0307352   -0.0004646   -4.4215603  
H    2.2221962   -1.8889424   -3.7887704  
H    3.2792594   -2.7820942   -6.0745265  
H    2.0482142   -1.7553496   -8.0014469  
C    3.2573670   -0.0002920   -1.5109380  
C    2.5379468   -0.0001709   -0.3591961  
C    1.1435043    0.0000332   -0.7338500  
C    1.1092609   -0.0000082   -2.2088477  
N    2.4227562    0.0001909   -2.6182613  
C   -0.0265532   -0.0002522   -2.9515663  
C   -1.3003035   -0.0002639   -2.2514981  
O   -2.3786784   -0.0004131   -2.8306429  
C   -1.2877725    0.0000312   -0.6895608  
O   -2.3539958    0.0003307   -0.0892036  
C    0.0000000    0.0000000    0.0000000  
H    2.9384091   -0.0000369    0.6389239  
H    4.3270394   -0.0004765   -1.6439446  
H    2.7280494   -0.0013406   -3.5742113  
C    0.0000000    0.0000000    1.4700000  
C    1.0662921    0.0000102    2.3034270  
C    0.4961870   -0.0000064    3.6418889  
C   -0.9663858    0.0000850    3.4240247  
N   -1.2632773    0.0000084    2.1528658  
C   -1.8985362    0.0000517    4.5177257  
C   -1.3925775   -0.0004564    5.7720543  
O   -2.1456383   -0.0005410    6.8851312  
C    0.0786232   -0.0009323    6.0245000  
O    0.4683759   -0.0012588    7.1921102  
C    1.0143166   -0.0008442    4.8859032  
H    2.1107198   -0.0000632    2.0421868  
H   -2.9622183    0.0003270    4.3293377  
H   -1.5042274   -0.0009692    7.6184419  
H    2.0724152   -0.0013148    5.1109744  
