64

C    0.6936372   -0.7066098   -5.1527421  
C    0.3462083   -0.4553046   -6.4598787  
C   -0.7528342    0.4534776   -6.4312306  
C   -1.0341482    0.7235432   -5.0674658  
N   -0.1387070    0.0017013   -4.3179684  
C   -2.0601479    1.5827598   -4.6626690  
C   -2.8157351    2.1804671   -5.6526247  
O   -3.8298697    3.0285541   -5.3130773  
C   -2.5506555    1.9232734   -7.0187878  
O   -3.3906528    2.5937316   -7.8837928  
C   -1.5388163    1.0755371   -7.4188522  
H   -2.2797240    1.7926340   -3.6249113  
H   -4.2227231    3.3302832   -6.1424691  
H   -3.1443855    2.3650593   -8.7852724  
H   -1.3595338    0.8977364   -8.4727604  
H    1.4683932   -1.3361784   -4.7498089  
C    3.3041277    0.0001175   -1.5420422  
C    2.5845373   -0.0004777   -0.3695845  
C    1.2040010   -0.0000009   -0.7283586  
C    1.1422380    0.0006035   -2.1454370  
N    2.4348647    0.0026109   -2.6077458  
C   -0.0655174    0.0008795   -2.8497917  
C   -1.2321761    0.0002322   -2.1101407  
O   -2.4392807    0.0001143   -2.7472526  
C   -1.1911206   -0.0000008   -0.6955265  
O   -2.4371526   -0.0002321   -0.1032868  
C    0.0000000    0.0000000    0.0000000  
H    3.0031533   -0.0000657    0.6222591  
H    2.7054639   -0.0071099   -3.5745255  
H   -3.1132983   -0.0000652   -2.0551796  
H   -2.3200280   -0.0004072    0.8516408  
H    4.3686629    0.0004073   -1.7024280  
C    1.4381335   -2.3284271   -7.7658637  
C    1.0002456   -1.0299874   -7.6443086  
C    1.3049202   -0.3711633   -8.8722031  
C    1.9332337   -1.3259977   -9.7121074  
N    2.0000700   -2.5031149   -9.0088683  
C    2.3708252   -1.0240489  -11.0052159  
C    2.1702140    0.2652058  -11.4588183  
O    2.5779079    0.6138699  -12.7139016  
C    1.5455172    1.2320687  -10.6355651  
O    1.4183479    2.4702178  -11.2306773  
C    1.1138138    0.9349648   -9.3596781  
H    2.3863892   -3.3635609   -9.3529203  
H    2.8505116   -1.7472252  -11.6502890  
H    2.3461237    1.5448011  -12.8275164  
H    0.9871150    3.0639009  -10.6084376  
H    0.6387421    1.6964754   -8.7523177  
H    1.3953672   -3.1433676   -7.0637226  
C    0.8400945    0.7047457    2.2710304  
C    0.0000000    0.0000000    1.4700000  
C   -0.8844236   -0.7423113    2.3369512  
C   -0.4878984   -0.4098547    3.7186280  
N    0.5629682    0.4714286    3.6095011  
C   -1.0836927   -0.9095027    4.8308716  
C   -2.1891196   -1.8367527    4.6554461  
O   -2.7906899   -2.3413415    5.5944904  
C   -2.6257283   -2.2031529    3.2011665  
O   -3.5549479   -2.9829990    3.0410059  
C   -1.9068976   -1.5999348    2.0816745  
H   -0.7774656   -0.6525820    5.8354244  
H   -2.2155208   -1.8586617    1.0779135  
H    1.6384792    1.3747609    1.9961646  
H    1.0518368    0.8833920    4.3830260  
