60

C    6.0886507   -0.0139753   -6.7909840  
C    6.7747930   -0.0240465   -7.9832816  
C    8.1649066   -0.0139176   -7.6637811  
C    8.2667145    0.0020685   -6.2491065  
N    6.9876832    0.0035562   -5.7504159  
C    9.4938924    0.0149549   -5.5792861  
C   10.6391588    0.0113362   -6.3516392  
O   11.8637859    0.0231085   -5.7490084  
C   10.5581171   -0.0041649   -7.7644410  
O   11.7868909   -0.0054598   -8.3917024  
C    9.3478167   -0.0166102   -8.4259116  
H    6.3282984   -0.0359839   -8.9628201  
H    9.5782439    0.0273103   -4.5013559  
H   12.5179566    0.0183874   -6.4598557  
H   11.6428109   -0.0163185   -9.3428735  
H    9.3171702   -0.0281743   -9.5091501  
H    5.0290864   -0.0164648   -6.6005214  
C    6.6317369    0.0027576   -4.3241610  
C    5.4016569    0.0020952   -3.7488537  
C    5.6054514    0.0015083   -2.3194121  
C    7.0655604    0.0019149   -2.1075790  
N    7.6303537    0.0022712   -3.3621301  
C    7.6659162    0.0019589   -0.8905025  
C    6.8173807    0.0013544    0.2895491  
O    7.2622814    0.0012815    1.4298840  
C    5.2683488    0.0006644    0.0887880  
O    4.5438178   -0.0001546    1.0748484  
C    4.7390840    0.0009613   -1.2727298  
H    4.4591020    0.0018433   -4.2667371  
H    8.7388158    0.0023904   -0.7570945  
H    8.6161390    0.0041519   -3.5499372  
C    3.2798077    0.0005856   -1.4499661  
C    2.5571132    0.0005565   -2.5996564  
C    1.1637425    0.0001547   -2.2210366  
C    1.1336959   -0.0000200   -0.7459475  
N    2.4483509   -0.0001429   -0.3402730  
C    0.0000000    0.0000000    0.0000000  
C   -1.2757370   -0.0000187   -0.6964411  
O   -2.3524597   -0.0000640   -0.1142306  
C   -1.2676502   -0.0000874   -2.2584078  
O   -2.3355774   -0.0004102   -2.8557287  
C    0.0181551    0.0001758   -2.9516297  
H    2.9547342    0.0006074   -3.5989118  
H    0.0150776    0.0003317   -4.0331632  
H    2.7563626    0.0012823    0.6148051  
C    2.5528530    2.1414826    2.8079335  
C    2.0663498    1.7338582    4.0032312  
C    0.9804344    0.8229586    3.6752840  
C    0.9495562    0.7966882    2.1971295  
N    1.8690446    1.5676019    1.6831036  
C    0.0000000    0.0000000    1.4700000  
C   -0.8785127   -0.7372425    2.1869543  
O   -1.8187535   -1.5261249    1.6395491  
C   -0.8723269   -0.7321790    3.6796354  
O   -1.7010379   -1.4274584    4.2670412  
C    0.1115397    0.0933559    4.4024240  
H    2.4028853    2.0163452    4.9860947  
H   -2.2861435   -1.9184361    2.3990168  
H    0.0832434    0.0693689    5.4835595  
H    3.3664920    2.8238276    2.6198634  
