62

C   -5.4389463   -0.7037789   -6.7662152  
C   -5.6199714   -0.4527687   -8.1066222  
C   -6.7131463    0.4569665   -8.2159392  
C   -7.1625384    0.7278907   -6.8981484  
N   -6.3684997    0.0056222   -6.0423165  
C   -8.2303232    1.5881682   -6.6251180  
C   -8.8556512    2.1860736   -7.7019902  
O   -9.9035159    3.0351819   -7.4922092  
C   -8.4220544    1.9280342   -9.0241957  
O   -9.1466879    2.5988192   -9.9876773  
C   -7.3689001    1.0792514   -9.2943057  
H   -5.0366568   -0.8744448   -8.9072018  
H   -8.5777517    1.7987004   -5.6230339  
H  -10.1893023    3.3368714   -8.3643191  
H   -8.7898354    2.3695280  -10.8512087  
H   -7.0594004    0.9008195  -10.3174621  
H   -4.7212266   -1.3338279   -6.2693506  
C   -3.2578655    0.0024039   -2.9908504  
C   -3.9809873    0.0031289   -1.8468775  
C   -5.3695593    0.0043912   -2.2808881  
C   -5.2983968    0.0043641   -3.7578851  
N   -4.0631144    0.0031210   -4.1798626  
C   -6.4794715    0.0054029   -4.5765110  
C   -7.6771926    0.0060336   -3.9481810  
O   -8.8597161    0.0070290   -4.5866776  
C   -7.7819059    0.0057080   -2.4591560  
O   -8.9049090    0.0064460   -1.9550883  
C   -6.5558062    0.0046821   -1.6414745  
H   -3.6170584    0.0027521   -0.8336497  
H   -9.5255212    0.0072469   -3.8754433  
H   -6.6744111    0.0043600   -0.5662243  
C    0.0000000    0.0000000    0.0000000  
C    1.0521667   -0.0011902   -0.8862342  
C    0.4917216   -0.0011957   -2.1979129  
C   -0.9187429    0.0003148   -2.0478680  
N   -1.1833171   -0.0009412   -0.7007912  
C   -1.7951702    0.0010350   -3.1372088  
C   -1.2375841    0.0005225   -4.4010424  
O   -2.0474217    0.0015360   -5.4997576  
C    0.1673577   -0.0013567   -4.5711964  
O    0.5673522   -0.0020688   -5.8915554  
C    1.0325769   -0.0023413   -3.4969890  
H    2.0953057   -0.0030649   -0.6200562  
H   -2.0989779    0.0102372   -0.2891821  
H   -1.4634887    0.0006498   -6.2693588  
H    1.5290708   -0.0033153   -5.9180049  
H    2.1042148   -0.0039610   -3.6584453  
C    1.0672568    0.0000697    2.3021913  
C    0.0000000    0.0000000    1.4700000  
C   -1.1601224    0.0000736    2.3478473  
C   -0.5938729    0.0000769    3.7138435  
N    0.7113367    0.0001554    3.6934124  
C   -1.4286986    0.0001879    4.8835240  
C   -2.7683114    0.0006799    4.6970523  
O   -3.6653903    0.0008304    5.6976972  
C   -3.3702025    0.0010610    3.3310774  
O   -4.5974910    0.0013779    3.2362962  
C   -2.4926826    0.0008943    2.1470656  
H   -0.9878360   -0.0000190    5.8697035  
H   -4.5324246    0.0012261    5.2533954  
H   -2.9677772    0.0012974    1.1752040  
H    2.1134392    0.0000545    2.0405121  
