60

C    3.1054117   -0.6967404   -6.4842829  
C    4.4497681   -0.4456939   -6.6331085  
C    4.5852388    0.4641254   -7.7232810  
C    3.2785926    0.7350609   -8.2041096  
N    2.4039879    0.0127183   -7.4308672  
C    3.0312191    1.5954143   -9.2780686  
C    4.1227591    2.1933848   -9.8773600  
O    3.9381398    3.0425680  -10.9298878  
C    5.4341970    1.9353350   -9.4122154  
O    6.4147591    2.6061913  -10.1134966  
C    5.6790010    1.0864777   -8.3529515  
H    5.2361437   -0.8674001   -6.0308036  
H    2.0377467    1.8059553   -9.6493996  
H    4.8168435    3.3442940  -11.1946663  
H    7.2694926    2.3768877   -9.7360655  
H    6.6944492    0.9080400   -8.0190307  
H    2.5914982   -1.3268517   -5.7787258  
C   -1.0641738    0.0073911   -4.6315339  
C    0.2051250    0.0079405   -5.1010654  
C    0.0692344    0.0101845   -6.5495227  
C   -1.3902928    0.0106356   -6.7869340  
N   -2.0598284    0.0090848   -5.6663498  
C   -1.9455301    0.0127602   -8.1123750  
C   -1.0819568    0.0147505   -9.1533229  
O   -1.4606988    0.0168498  -10.4427381  
C    0.3963100    0.0147277   -8.9462282  
O    1.1228030    0.0164809   -9.9399210  
C    0.9412638    0.0124825   -7.5769419  
H    1.1205720    0.0070362   -4.5344688  
H   -3.0161069    0.0128371   -8.2565139  
H   -0.6265995    0.0179429  -10.9461568  
C    1.1319245    0.0015656   -0.8009271  
C    0.7969914    0.0034943   -2.1169404  
C   -0.6453340    0.0035712   -2.1842672  
C   -1.1266833    0.0015434   -0.7896027  
N    0.0000000    0.0000000    0.0000000  
C   -2.4346131    0.0013965   -0.4276296  
C   -3.4350110    0.0031409   -1.4820182  
O   -4.6384610    0.0030975   -1.2583916  
C   -2.9478961    0.0050507   -2.9661073  
O   -3.7809383    0.0062220   -3.8623773  
C   -1.5113824    0.0053091   -3.2312124  
H    1.4821237    0.0045409   -2.9459193  
H   -2.7664564    0.0000233    0.6013449  
H    2.1104315    0.0009392   -0.3488061  
C    0.0000000    0.0000000    1.4700000  
C    1.0662921    0.0000102    2.3034270  
C    0.4961870   -0.0000064    3.6418889  
C   -0.9663858    0.0000850    3.4240247  
N   -1.2632773    0.0000084    2.1528658  
C   -1.8985362    0.0000517    4.5177257  
C   -1.3925775   -0.0004564    5.7720543  
O   -2.1456383   -0.0005410    6.8851312  
C    0.0786232   -0.0009323    6.0245000  
O    0.4683759   -0.0012588    7.1921102  
C    1.0143166   -0.0008442    4.8859032  
H    2.1107198   -0.0000632    2.0421868  
H   -2.9622183    0.0003270    4.3293377  
H   -1.5042274   -0.0009692    7.6184419  
H    2.0724152   -0.0013148    5.1109744  
