60

C    6.9876832    0.0035562   -5.7504159  
C    6.1814204    0.0052028   -6.8650479  
C    7.0427971    0.0059343   -8.0019857  
C    8.3749568    0.0043759   -7.5148769  
N    8.3054759    0.0049062   -6.1438229  
C    9.4890762    0.0042683   -8.3595829  
C    9.2541076    0.0054543   -9.7208198  
O   10.3058887    0.0050568  -10.5907439  
C    7.9321758    0.0073923  -10.2261016  
O    7.8637970    0.0088122  -11.6040224  
C    6.8325960    0.0077727   -9.3933655  
H    5.1048714    0.0069082   -6.8593762  
H    9.0942218   -0.0064740   -5.5227507  
H   10.5069132    0.0032285   -7.9946040  
H    9.9256844    0.0063474  -11.4788364  
H    6.9371022    0.0100504  -11.8625550  
H    5.8319439    0.0094547   -9.8095038  
C    6.6317369    0.0027576   -4.3241610  
C    5.4016569    0.0020952   -3.7488537  
C    5.6054514    0.0015083   -2.3194121  
C    7.0655604    0.0019149   -2.1075790  
N    7.6303537    0.0022712   -3.3621301  
C    7.6659162    0.0019589   -0.8905025  
C    6.8173807    0.0013544    0.2895491  
O    7.2622814    0.0012815    1.4298840  
C    5.2683488    0.0006644    0.0887880  
O    4.5438178   -0.0001546    1.0748484  
C    4.7390840    0.0009613   -1.2727298  
H    4.4591020    0.0018433   -4.2667371  
H    8.7388158    0.0023904   -0.7570945  
H    8.6161390    0.0041519   -3.5499372  
C    3.2798077    0.0005856   -1.4499661  
C    2.5571132    0.0005565   -2.5996564  
C    1.1637425    0.0001547   -2.2210366  
C    1.1336959   -0.0000200   -0.7459475  
N    2.4483509   -0.0001429   -0.3402730  
C    0.0000000    0.0000000    0.0000000  
C   -1.2757370   -0.0000187   -0.6964411  
O   -2.3524597   -0.0000640   -0.1142306  
C   -1.2676502   -0.0000874   -2.2584078  
O   -2.3355774   -0.0004102   -2.8557287  
C    0.0181551    0.0001758   -2.9516297  
H    2.9547342    0.0006074   -3.5989118  
H    0.0150776    0.0003317   -4.0331632  
H    2.7563626    0.0012823    0.6148051  
C    2.5128556    2.1077716    2.9199648  
C    1.9592212    1.6432552    4.0696553  
C    0.8915788    0.7479214    3.6910360  
C    0.8684491    0.7287414    2.2159470  
N    1.8754542    1.5738793    1.8102719  
C    0.0000000    0.0000000    1.4700000  
C   -0.9772830   -0.8200135    2.1664417  
O   -1.8021297   -1.5120829    1.5842315  
C   -0.9711318   -0.8147624    3.7284083  
O   -1.7894187   -1.5009653    4.3257297  
C    0.0140216    0.0115358    4.4216297  
H    2.2638494    1.8988021    5.0689105  
H    0.0117648    0.0094386    5.5031631  
H    3.3327358    2.7953732    2.7900019  
H    2.1123206    1.7707734    0.8551938  
