60

C    2.5263060    0.0005353   -8.0873975  
C    3.5670579   -0.0002313   -7.1877853  
C    4.7742117   -0.0009718   -7.9476399  
C    4.4041003   -0.0003256   -9.3169249  
N    3.0321733   -0.0013670   -9.3662421  
C    5.3419664   -0.0004802  -10.3538424  
C    6.6777918   -0.0009951  -10.0020642  
O    7.6353934   -0.0008161  -10.9746964  
C    7.0668921   -0.0020191   -8.6413968  
O    8.4337423   -0.0028510   -8.4541417  
C    6.1422081   -0.0021404   -7.6179301  
H    3.4683322   -0.0013590   -6.1157569  
H    2.4816155    0.0093399  -10.2057374  
H    5.0663546   -0.0001346  -11.3994240  
H    8.4872894   -0.0015466  -10.5191333  
H    8.6111877   -0.0034865   -7.5085644  
H    6.4702741   -0.0031169   -6.5850458  
C    0.0950448    0.0004350   -4.4015596  
C    1.1192393    0.0002597   -5.2932436  
C    0.5298386    0.0006950   -6.6113645  
C   -0.9321731    0.0011707   -6.4130916  
N   -1.1298097    0.0005870   -5.0515376  
C   -1.8443588    0.0020606   -7.4178909  
C   -1.3534348    0.0023586   -8.7859287  
O   -2.0950458    0.0030849   -9.7597423  
C    0.1910172    0.0016126   -9.0193235  
O    0.6161266    0.0015487  -10.1667301  
C    1.0746177    0.0009552   -7.8560944  
H    2.1679381   -0.0003125   -5.0548232  
H   -2.9125319    0.0025267   -7.2508092  
H   -2.0258137    0.0022750   -4.5996293  
C    3.3321173    0.0004714   -1.3379336  
C    2.6974184    0.0000115   -2.5332313  
C    1.2800437   -0.0002119   -2.2052840  
C    1.2395034    0.0000643   -0.7271298  
N    2.4394063    0.0005459   -0.2131037  
C    0.0000000    0.0000000    0.0000000  
C   -1.1468702    0.0000634   -0.7169544  
O   -2.3742202    0.0000072   -0.1695489  
C   -1.1388770    0.0001606   -2.2096356  
O   -2.2206231    0.0000903   -2.7970412  
C    0.1454523    0.0001814   -2.9324241  
H    3.1367986   -0.0000653   -3.5160949  
H   -2.9844345    0.0001025   -0.9290168  
H    4.3940040    0.0007618   -1.1498638  
C    2.5128556    2.1077716    2.9199648  
C    1.9592212    1.6432552    4.0696553  
C    0.8915788    0.7479214    3.6910360  
C    0.8684491    0.7287414    2.2159470  
N    1.8754542    1.5738793    1.8102719  
C    0.0000000    0.0000000    1.4700000  
C   -0.9772830   -0.8200135    2.1664417  
O   -1.8021297   -1.5120829    1.5842315  
C   -0.9711318   -0.8147624    3.7284083  
O   -1.7894187   -1.5009653    4.3257297  
C    0.0140216    0.0115358    4.4216297  
H    2.2638494    1.8988021    5.0689105  
H    0.0117648    0.0094386    5.5031631  
H    3.3327358    2.7953732    2.7900019  
H    2.1123206    1.7707734    0.8551938  
