66

C    5.0719494   -2.3226006   -4.8596203  
C    4.6817179   -1.0174616   -5.0514505  
C    5.7226775   -0.3752197   -5.7852954  
C    6.7304601   -1.3466053   -6.0148806  
N    6.3043832   -2.5172203   -5.4380480  
C    7.9089049   -1.0635670   -6.7119797  
C    8.0728504    0.2234466   -7.1862106  
O    9.2046246    0.5539679   -7.8738584  
C    7.0788433    1.2066420   -6.9669099  
O    7.3897721    2.4401637   -7.5008503  
C    5.9161525    0.9281961   -6.2790553  
H    6.8073987   -3.3860404   -5.4484765  
H    8.6808954   -1.7994201   -6.8901748  
H    9.1178366    1.4865893   -8.1103948  
H    6.6672984    3.0456839   -7.3085452  
H    5.1728296    1.7019321   -6.1264740  
H    4.5693158   -3.1296896   -4.3547188  
C    2.8320538   -0.6842456   -3.3638059  
C    1.6628945    0.0339172   -3.2649299  
C    1.5251281    0.7739968   -4.4765002  
C    2.6497193    0.4643213   -5.2835458  
N    3.4240288   -0.4223169   -4.5771928  
C    2.8441969    1.0160059   -6.5534315  
C    1.8857962    1.8961092   -7.0171817  
O    2.0260207    2.4635770   -8.2506036  
C    0.7569684    2.2178777   -6.2265926  
O   -0.1068580    3.1097672   -6.8279914  
C    0.5646022    1.6742131   -4.9736163  
H    3.6992245    0.7841687   -7.1734167  
H    1.2587957    3.0370503   -8.3761385  
H   -0.8411892    3.2733616   -6.2283263  
H   -0.3098411    1.9397110   -4.3910885  
H    3.2912530   -1.3614893   -2.6642087  
C    1.1243410    0.0100105   -0.7919003  
C    0.7474072    0.0234665   -2.1148542  
C   -0.6787384    0.0234379   -2.1414698  
C   -1.1201748    0.0098411   -0.7935547  
N    0.0000000    0.0000000    0.0000000  
C   -2.4730818    0.0063307   -0.4408240  
C   -3.3971962    0.0170429   -1.4675058  
O   -4.7313520    0.0145490   -1.1793468  
C   -2.9763654    0.0303020   -2.8186325  
O   -4.0166484    0.0394464   -3.7247625  
C   -1.6418567    0.0334992   -3.1673480  
H   -2.8160166   -0.0041569    0.5845966  
H   -5.1938823    0.0230023   -2.0274386  
H   -3.6464680    0.0481700   -4.6127343  
H   -1.3497475    0.0435647   -4.2109234  
H    2.1062466    0.0053162   -0.3505405  
C    2.5311839    2.1237619    3.0120429  
C    1.9795631    1.6616747    1.8395852  
C    0.9223175    0.7739173    2.1983588  
C    0.8753926    0.7337535    3.6154372  
N    1.8668922    1.5631002    4.0777464  
C   -0.0496243   -0.0427881    4.3197917  
C   -0.9437528   -0.7922060    3.5801400  
O   -1.8685244   -1.5680278    4.2172520  
C   -0.9124520   -0.7656372    2.1655264  
O   -1.8671164   -1.5663939    1.5732860  
C    0.0000000    0.0000000    1.4700000  
H    2.3005065    1.9304404    0.8477417  
H    2.0679347    1.7444845    5.0445261  
H   -0.0904770   -0.0778569    5.3997470  
H   -2.3849669   -2.0011402    3.5251786  
H   -1.7775064   -1.4909735    0.6183591  
H    3.3468514    2.8078103    3.1724291  
