62

C    6.8376860   -1.8262263   -2.4456797  
C    7.5945807   -2.6330641   -1.6280059  
C    8.9458033   -2.5254280   -2.0720891  
C    8.9521051   -1.6310670   -3.1730003  
N    7.6557684   -1.2266585   -3.3744470  
C   10.1191675   -1.2887418   -3.8626144  
C   11.3014495   -1.8594333   -3.4328477  
O   12.4705193   -1.5594642   -4.0702695  
C   11.3154750   -2.7543114   -2.3365753  
O   12.5704958   -3.2385736   -2.0303785  
C   10.1644815   -3.0926859   -1.6559567  
H    7.2188501   -3.2270836   -0.8125540  
H    7.3522775   -0.5815560   -4.0813537  
H   10.1306416   -0.6078477   -4.7025275  
H   13.1637517   -2.0575025   -3.6178847  
H   12.4915545   -3.8348772   -1.2795163  
H   10.2063031   -3.7811198   -0.8200214  
C    4.4878226   -2.1225243   -1.5677351  
C    3.2260915   -1.6607473   -1.8631397  
C    3.3567347   -0.7724508   -2.9714996  
C    4.7330248   -0.7316536   -3.3122138  
N    5.3917970   -1.5611584   -2.4389681  
C    5.2292372    0.0455299   -4.3631890  
C    4.3194783    0.7949499   -5.0835267  
O    4.7499702    1.5713844   -6.1202723  
C    2.9423430    0.7677547   -4.7586014  
O    2.1641572    1.5685999   -5.5687981  
C    2.4521483    0.0014840   -3.7217481  
H    2.3228223   -1.9300608   -1.3429786  
H    6.2770470    0.0810834   -4.6278253  
H    3.9654403    2.0043827   -6.4812289  
H    1.2487978    1.4927308   -5.2825018  
H    4.8146445   -2.8067987   -0.8035913  
C    0.0000000    0.0000000    0.0000000  
C    1.0662923   -0.0000101   -0.8334270  
C    0.4961873    0.0000065   -2.1718887  
C   -0.9663854   -0.0000848   -1.9540250  
N   -1.2632773   -0.0000083   -0.6828660  
C   -1.8985359   -0.0000514   -3.0477261  
C   -1.3925770    0.0004566   -4.3020547  
O   -2.1456378    0.0005414   -5.4151314  
C    0.0786240    0.0009326   -4.5545000  
O    0.4683767    0.0012591   -5.7221100  
C    1.0143171    0.0008444   -3.4159031  
H    2.1107200    0.0000633   -0.5721865  
H   -2.9622181   -0.0003268   -2.8593381  
H   -1.5042265    0.0009697   -6.1484419  
C    0.0000000    0.0000000    1.4700000  
C    1.0541688    0.0001722    2.3260392  
C    0.5103138    0.0000454    3.6635956  
C   -0.9576371   -0.0002459    3.5155732  
N   -1.2018458    0.0001392    2.1615969  
C   -1.8348311   -0.0008317    4.5510609  
C   -1.2972847   -0.0009736    5.9014604  
O   -2.0050672   -0.0014265    6.9001319  
C    0.2542623   -0.0004184    6.0817573  
O    0.7184670   -0.0002256    7.2139121  
C    1.0974552   -0.0000873    4.8889129  
H    2.0940752    0.0005483    2.0517982  
H   -2.9081052   -0.0011668    4.4207061  
H    2.1707277    0.0000911    5.0223670  
H   -2.1128194   -0.0014912    1.7406791  
