64

C   -7.9552242   -0.8338953   -3.2685757  
C   -8.4046479   -0.0323082   -2.2448845  
C   -9.8246369   -0.1619839   -2.2072339  
C  -10.1877578   -1.0637574   -3.2401297  
N   -9.0290711   -1.4511967   -3.8661889  
C  -11.5135011   -1.4271542   -3.4953469  
C  -12.4904465   -0.8703025   -2.6930553  
O  -13.8011455   -1.1910240   -2.8985274  
C  -12.1480327    0.0316706   -1.6576737  
O  -13.2337586    0.5002439   -0.9470547  
C  -10.8403861    0.3908298   -1.4055012  
H   -7.7853194    0.5724423   -1.6048053  
H   -8.9716349   -2.0967140   -4.6329945  
H  -11.7968334   -2.1137979   -4.2811245  
H  -14.3089720   -0.6997674   -2.2397063  
H  -12.9156190    1.1026576   -0.2677252  
H  -10.6086810    1.0842340   -0.6055127  
C   -3.9753714    0.7163944   -1.9468227  
C   -5.3225294    0.4642674   -2.0654138  
C   -5.4809794   -0.4521810   -3.1469017  
C   -4.1848137   -0.7258598   -3.6538345  
N   -3.2941076    0.0012878   -2.9038237  
C   -3.9601734   -1.5926933   -4.7275785  
C   -5.0640885   -2.1944423   -5.2998084  
O   -4.9017347   -3.0499846   -6.3508565  
C   -6.3653756   -1.9337457   -4.8083752  
O   -7.3604937   -2.6089842   -5.4844948  
C   -6.5877575   -1.0784968   -3.7493088  
H   -6.0959917    0.8895222   -1.4490475  
H   -2.9747908   -1.8053548   -5.1187280  
H   -5.7858045   -3.3534324   -6.5949950  
H   -8.2070442   -2.3775054   -5.0903208  
H   -3.4466937    1.3508526   -1.2562276  
C    0.0000000    0.0000000    0.0000000  
C    1.0541688   -0.0001723   -0.8560392  
C    0.5103136   -0.0000455   -2.1935956  
C   -0.9576373    0.0002461   -2.0455730  
N   -1.2018460   -0.0001389   -0.6915968  
C   -1.8348314    0.0008319   -3.0810607  
C   -1.2972851    0.0009739   -4.4314603  
O   -2.0050676    0.0014268   -5.4301316  
C    0.2542619    0.0004184   -4.6117572  
O    0.7184666    0.0002257   -5.7439122  
C    1.0974551    0.0000873   -3.4189129  
H    2.0940752   -0.0005484   -0.5817983  
H    2.1707276   -0.0000912   -3.5523673  
H   -2.1128194    0.0014915   -0.2706789  
C    1.1243417   -0.0099156    2.2619005  
C    0.7474090   -0.0234034    3.5848544  
C   -0.6787367   -0.0234952    3.6114698  
C   -1.1201739   -0.0099357    2.2635546  
N    0.0000000    0.0000000    1.4700000  
C   -2.4730812   -0.0065396    1.9108239  
C   -3.3971947   -0.0173298    2.9375057  
O   -4.7313508   -0.0149487    2.6493466  
C   -2.9763630   -0.0305536    4.2886322  
O   -4.0166453   -0.0397858    5.1947621  
C   -1.6418541   -0.0336380    4.6373480  
H    1.4178735   -0.0310004    4.4271209  
H   -2.8160170    0.0039190    0.8854031  
H   -5.1938803   -0.0234410    3.4974381  
H   -3.6464643   -0.0484781    6.0827341  
H   -1.3497443   -0.0436789    5.6809233  
H    2.1062470   -0.0051382    1.8205408  
