64

C    5.0967800   -1.0502097   -6.7331350  
C    6.1107072   -1.9351278   -6.4479336  
C    6.8127381   -2.1709102   -7.6670146  
C    6.1765089   -1.3959235   -8.6702762  
N    5.1374997   -0.7292187   -8.0697935  
C    6.6047849   -1.3830262  -10.0011421  
C    7.6953810   -2.1665153  -10.3250590  
O    8.1555125   -2.1908345  -11.6098566  
C    8.3433064   -2.9469533   -9.3381820  
O    9.4136436   -3.6731699   -9.8181120  
C    7.9211790   -2.9603719   -8.0251119  
H    6.3180724   -2.3594538   -5.4804936  
H    4.5118241   -0.0938199   -8.5310733  
H    6.1241072   -0.7946594  -10.7705415  
H    8.9115631   -2.7921578  -11.6177762  
H    9.7944813   -4.1717050   -9.0887085  
H    8.4373388   -3.5683502   -7.2913415  
C    3.9370048   -0.7184850   -4.5079678  
C    4.0728231   -0.4678501   -5.8537774  
C    3.0408019    0.4490220   -6.2127731  
C    2.3004594    0.7244849   -5.0346653  
N    2.8699641   -0.0020530   -4.0185824  
C    1.2043122    1.5921808   -5.0158398  
C    0.8492525    2.1929739   -6.2079631  
O   -0.2129520    3.0492937   -6.2460638  
C    1.5753378    1.9304957   -7.3940167  
O    1.0979198    2.6049620   -8.4987839  
C    2.6566531    1.0743953   -7.4133823  
H    0.6358232    1.8062018   -4.1212913  
H   -0.2870896    3.3518555   -7.1605175  
H    1.6433828    2.3722826   -9.2563680  
H    3.1933392    0.8927014   -8.3371977  
H    4.5159686   -1.3527191   -3.8587321  
C    3.2573670   -0.0002921   -1.5109382  
C    2.5379468   -0.0001711   -0.3591962  
C    1.1435043    0.0000330   -0.7338498  
C    1.1092608   -0.0000085   -2.2088474  
N    2.4227562    0.0001906   -2.6182610  
C   -0.0265533   -0.0002525   -2.9515663  
C   -1.3003033   -0.0002641   -2.2514979  
O   -2.3786785   -0.0004132   -2.8306425  
C   -1.2877724    0.0000310   -0.6895608  
O   -2.3539956    0.0003306   -0.0892035  
C    0.0000000    0.0000000    0.0000000  
H    2.9384091   -0.0000370    0.6389240  
H   -0.0296290   -0.0004088   -4.0327231  
H    4.3270394   -0.0004767   -1.6439445  
C    2.5285572    2.1210227    2.9438989  
C    1.9331703    1.6216660    4.0790748  
C    0.8903039    0.7472258    3.6520102  
C    0.8972198    0.7527806    2.2336141  
N    1.9028376    1.5986179    1.8362361  
C    0.0000000    0.0000000    1.4700000  
C   -0.9207814   -0.7726952    2.1506477  
O   -1.8198395   -1.5274828    1.4542253  
C   -0.9436862   -0.7911793    3.5655508  
O   -1.9197945   -1.6098497    4.0950179  
C   -0.0590329   -0.0485852    4.3195194  
H    2.2150357    1.8593692    5.0905303  
H    2.1533708    1.7953814    0.8841339  
H   -2.3621246   -1.9821033    2.1118817  
H   -1.8668290   -1.5649508    5.0545920  
H   -0.1007624   -0.0827977    5.4019087  
H    3.3491200    2.8096064    2.8367138  
