62

C   -3.9846534    0.7173437   -1.8067787  
C   -3.3460098   -0.0004261   -2.7913644  
C   -4.3511567   -0.7286177   -3.4942278  
C   -5.5942658   -0.4124284   -2.8887285  
N   -5.3355279    0.4664778   -1.8663802  
C   -6.8075837   -0.9520445   -3.3262933  
C   -6.7652526   -1.8265514   -4.3947613  
O   -7.9207781   -2.3822411   -4.8627191  
C   -5.5346850   -2.1546694   -5.0118978  
O   -5.6585305   -3.0397397   -6.0629245  
C   -4.3373009   -1.6229124   -4.5805841  
H   -6.0265586    0.8750933   -1.2634780  
H   -7.7583635   -0.7151928   -2.8689968  
H   -7.6698755   -2.9536129   -5.6001788  
H   -4.7826150   -3.2082910   -6.4234334  
H   -3.4104553   -1.8930392   -5.0729928  
H   -3.5832772    1.3872843   -1.0658091  
C    0.0000000    0.0000000    0.0000000  
C    1.0662918   -0.0000103   -0.8334272  
C    0.4961866    0.0000066   -2.1718888  
C   -0.9663862   -0.0000848   -1.9540246  
N   -1.2632777   -0.0000084   -0.6828658  
C   -1.8985367   -0.0000514   -3.0477256  
C   -1.3925783    0.0004569   -4.3020543  
O   -2.1456389    0.0005417   -5.4151310  
C    0.0786225    0.0009329   -4.5544999  
O    0.4683752    0.0012595   -5.7221105  
C    1.0143159    0.0008446   -3.4159033  
H    2.1107193    0.0000632   -0.5721869  
H   -1.5042282    0.0009699   -6.1484418  
C    4.3939396   -2.1065674   -1.5664987  
C    5.4031200   -1.6413500   -2.3470130  
C    4.8103411   -0.7457939   -3.3121184  
C    3.3627131   -0.7272474   -3.0278289  
N    3.1757271   -1.5729267   -1.9588331  
C    2.4521470    0.0014842   -3.7217487  
C    2.9297292    0.8221550   -4.8221804  
O    2.1884013    1.5142701   -5.5075349  
C    4.4587960    0.8175813   -5.1411459  
O    4.8725544    1.5043408   -6.0654977  
C    5.3421059   -0.0087724   -4.3221493  
H    6.4439778   -1.8965724   -2.2570680  
H    6.3995012   -0.0062037   -4.5493776  
H    4.4376443   -2.7945227   -0.7378267  
H    2.2909007   -1.7703223   -1.5285262  
C    1.1188642   -0.0008217    2.2703808  
C    0.0000000    0.0000000    1.4700000  
C   -1.1323862   -0.0008904    2.3373528  
C   -0.6382662   -0.0019682    3.6669281  
N    0.7324016   -0.0038477    3.5902241  
C   -1.4770914   -0.0027325    4.7854808  
C   -2.8395474   -0.0020958    4.5576857  
O   -3.7039201   -0.0024443    5.6140350  
C   -3.3517868   -0.0013946    3.2384331  
O   -4.7300496   -0.0012389    3.1773122  
C   -2.5248543   -0.0009135    2.1344818  
H    1.3576314    0.0056174    4.3757045  
H   -1.1067570   -0.0036993    5.8013813  
H   -4.5940033   -0.0021850    5.2385129  
H   -4.9934601   -0.0007286    2.2519915  
H   -2.9462578   -0.0005617    1.1360343  
H    2.1619896   -0.0009344    2.0042067  
