62

C   10.0537937    0.7086752   -1.7429719  
C   11.3271578    0.4577477   -1.2868501  
C   11.2064687   -0.4512000   -0.1942167  
C    9.8239655   -0.7217512   -0.0286465  
N    9.1522031   -0.0000269   -0.9838772  
C    9.3345891   -1.5812461    0.9595685  
C   10.2576809   -2.1787373    1.7956819  
O    9.8343164   -3.0270792    2.7775634  
C   11.6412123   -1.9210594    1.6464887  
O   12.4327197   -2.5913544    2.5561944  
C   12.1246858   -1.0730489    0.6719852  
H   12.2316587    0.8789726   -1.6911283  
H    8.2821103   -1.7914902    1.0910489  
H   10.6278245   -3.3285934    3.2387564  
H   13.3516422   -2.3623528    2.3866558  
H   13.1898799   -0.8948780    0.5820098  
H    9.7172467    1.3382225   -2.5488039  
C    6.4260942    0.0030629   -4.5098896  
C    7.5522593    0.0028889   -3.7593360  
C    7.0848231    0.0018025   -2.3816561  
C    5.6099772    0.0015410   -2.4884881  
N    5.2179714    0.0021962   -3.7336068  
C    4.7630507    0.0004755   -1.3275395  
C    5.3622564   -0.0006826   -0.1149860  
O    4.6953711   -0.0017513    1.0517634  
C    6.8483164   -0.0008252    0.0256772  
O    7.3251007   -0.0017842    1.1605324  
C    7.6953859    0.0003257   -1.1803065  
H    8.5739863    0.0033403   -4.0986751  
H    5.3903103   -0.0024423    1.7345607  
H    6.3446838    0.0037692   -5.5852243  
C    3.3003548    0.0005276   -1.4738982  
C    2.5232817    0.0003497   -2.6090743  
C    1.1623204   -0.0001319   -2.1820101  
C    1.1711886    0.0000583   -0.7636140  
N    2.4852302   -0.0014919   -0.3662356  
C    0.0000000    0.0000000    0.0000000  
C   -1.2020379    0.0000520   -0.6806479  
O   -2.3759249    0.0003495    0.0157742  
C   -1.2314652   -0.0005112   -2.0955511  
O   -2.5054384   -0.0008036   -2.6250184  
C   -0.0764510   -0.0007271   -2.8495195  
H    2.8919962   -0.0005619   -3.6205297  
H    2.8036267    0.0088181    0.5858667  
H   -3.0835636    0.0000348   -0.6418823  
H   -2.4360038   -0.0011526   -3.5845925  
H   -0.1304090   -0.0013420   -3.9319089  
C    0.8400945    0.7047457    2.2710304  
C    0.0000000    0.0000000    1.4700000  
C   -0.8844236   -0.7423113    2.3369512  
C   -0.4878984   -0.4098547    3.7186280  
N    0.5629682    0.4714286    3.6095011  
C   -1.0836927   -0.9095027    4.8308716  
C   -2.1891196   -1.8367527    4.6554461  
O   -2.7906899   -2.3413415    5.5944904  
C   -2.6257283   -2.2031529    3.2011665  
O   -3.5549479   -2.9829990    3.0410059  
C   -1.9068976   -1.5999348    2.0816745  
H   -0.7774656   -0.6525820    5.8354244  
H   -2.2155208   -1.8586617    1.0779135  
H    1.6384792    1.3747609    1.9961646  
H    1.0518368    0.8833920    4.3830260  
