62

C    5.7628300   -0.0004871   -2.0437087  
C    4.7795897    0.0008677   -1.0815734  
C    5.4361691    0.0009685    0.1847220  
C    6.8315416   -0.0000818   -0.0699538  
N    6.9950513   -0.0028992   -1.4329922  
C    7.7866665    0.0000164    0.9510879  
C    7.3247556    0.0015035    2.2529380  
O    8.2141752    0.0020178    3.2882866  
C    5.9363884    0.0021922    2.5272558  
O    5.6358413    0.0032536    3.8737380  
C    4.9935670    0.0018226    1.5204719  
H    7.8775303    0.0063591   -1.9116633  
H    8.8515841   -0.0009246    0.7635968  
H    7.6891817    0.0027716    4.0992401  
H    4.6787630    0.0036911    3.9717400  
H    3.9369292    0.0021876    1.7612928  
H    5.6826508   -0.0013696   -3.1172679  
C    3.3321166    0.0004717   -1.3379342  
C    2.6974176    0.0000121   -2.5332317  
C    1.2800432   -0.0002115   -2.2052842  
C    1.2395033    0.0000645   -0.7271297  
N    2.4394059    0.0005461   -0.2131042  
C    0.0000000    0.0000000    0.0000000  
C   -1.1468704    0.0000636   -0.7169540  
O   -2.3742206    0.0000073   -0.1695488  
C   -1.1388774    0.0001610   -2.2096351  
O   -2.2206238    0.0000908   -2.7970408  
C    0.1454514    0.0001820   -2.9324241  
H    3.1367977   -0.0000646   -3.5160953  
H   -2.9844351    0.0001027   -0.9290163  
C    2.5715456   -2.1234220   -6.0298475  
C    2.0605222   -1.6614582   -4.8390864  
C    0.9917280   -0.7734878   -5.1612466  
C    0.8962441   -0.7330728   -6.5758759  
N    1.8711841   -1.5624814   -7.0720511  
C   -0.0522662    0.0437226   -7.2479663  
C   -0.9203941    0.7931407   -6.4779637  
O   -1.8663535    1.5692047   -7.0828595  
C   -0.8406075    0.7663233   -5.0652597  
O   -1.7742830    1.5671143   -4.4404973  
C    0.0950440    0.0004357   -4.4015596  
H    2.4152481   -1.9304409   -3.8588769  
H    2.0389299   -1.7437276   -8.0451865  
H   -0.1301221    0.0789836   -8.3258795  
H   -2.3586960    2.0022713   -6.3734119  
H   -1.6519917    1.4915163   -3.4892176  
H    3.3811317   -2.8075594   -6.2182237  
C    2.5528530    2.1414826    2.8079335  
C    2.0663498    1.7338582    4.0032312  
C    0.9804344    0.8229586    3.6752840  
C    0.9495562    0.7966882    2.1971295  
N    1.8690446    1.5676019    1.6831036  
C    0.0000000    0.0000000    1.4700000  
C   -0.8785127   -0.7372425    2.1869543  
O   -1.8187535   -1.5261249    1.6395491  
C   -0.8723269   -0.7321790    3.6796354  
O   -1.7010379   -1.4274584    4.2670412  
C    0.1115397    0.0933559    4.4024240  
H    2.4028853    2.0163452    4.9860947  
H   -2.2861435   -1.9184361    2.3990168  
H    0.0832434    0.0693689    5.4835595  
H    3.3664920    2.8238276    2.6198634  
