64

C    9.7142130   -0.7336080    1.5918025  
C    9.0579928   -0.0133847    0.6206585  
C   10.0523803    0.7002674   -0.1117991  
C   11.3073356    0.3730876    0.4626271  
N   11.0657492   -0.4980874    1.4957324  
C   12.5146701    0.8971008   -0.0091193  
C   12.4540553    1.7670147   -1.0804520  
O   13.6030018    2.3076016   -1.5811528  
C   11.2114625    2.1059280   -1.6668977  
O   11.3175294    2.9846348   -2.7251829  
C   10.0199800    1.5895668   -1.2018549  
H   11.7677638   -0.9115490    2.0824247  
H   13.4744136    0.6518155    0.4243881  
H   13.3392136    2.8782748   -2.3146460  
H   10.4343988    3.1612438   -3.0635503  
H    9.0836096    1.8676939   -1.6712523  
H    9.3249918   -1.3955607    2.3463116  
C    6.6540977   -0.0013090    1.3962728  
C    5.4018076   -0.0015694    0.8268551  
C    5.5874909   -0.0008947   -0.5874014  
C    6.9861188   -0.0005211   -0.8235502  
N    7.6043962    0.0011647    0.4021523  
C    7.5360617   -0.0001392   -2.1089883  
C    6.6581048   -0.0004414   -3.1754633  
O    7.1413992   -0.0004418   -4.4519583  
C    5.2593677   -0.0004399   -2.9601678  
O    4.5179016   -0.0003364   -4.1235989  
C    4.7161325   -0.0005435   -1.6923264  
H    4.4691981   -0.0010660    1.3646588  
H    8.6011207    0.0002906   -2.2956726  
H    6.3714457   -0.0003764   -5.0354278  
H    3.5847247   -0.0003701   -3.8895380  
H    6.9446144   -0.0012468    2.4328822  
C    3.2573665   -0.0002920   -1.5109385  
C    2.5379463   -0.0001709   -0.3591964  
C    1.1435038    0.0000331   -0.7338500  
C    1.1092599   -0.0000083   -2.2088477  
N    2.4227553    0.0001909   -2.6182613  
C   -0.0265539   -0.0002524   -2.9515660  
C   -1.3003040   -0.0002640   -2.2514977  
O   -2.3786790   -0.0004133   -2.8306421  
C   -1.2877727    0.0000311   -0.6895603  
O   -2.3539959    0.0003306   -0.0892030  
C    0.0000000    0.0000000    0.0000000  
H    2.9384091   -0.0000367    0.6389234  
H   -0.0296303   -0.0004086   -4.0327229  
H    2.7280482   -0.0013407   -3.5742119  
C    2.5285572    2.1210227    2.9438989  
C    1.9331703    1.6216660    4.0790748  
C    0.8903039    0.7472258    3.6520102  
C    0.8972198    0.7527806    2.2336141  
N    1.9028376    1.5986179    1.8362361  
C    0.0000000    0.0000000    1.4700000  
C   -0.9207814   -0.7726952    2.1506477  
O   -1.8198395   -1.5274828    1.4542253  
C   -0.9436862   -0.7911793    3.5655508  
O   -1.9197945   -1.6098497    4.0950179  
C   -0.0590329   -0.0485852    4.3195194  
H    2.2150357    1.8593692    5.0905303  
H    2.1533708    1.7953814    0.8841339  
H   -2.3621246   -1.9821033    2.1118817  
H   -1.8668290   -1.5649508    5.0545920  
H   -0.1007624   -0.0827977    5.4019087  
H    3.3491200    2.8096064    2.8367138  
