62

C    8.4204078   -0.7146304    0.1422300  
C    8.1075238    0.0024032   -0.9893326  
C    9.2773519    0.7308555   -1.3573801  
C   10.2806261    0.4155766   -0.4055578  
N    9.7264559   -0.4630614    0.4919433  
C   11.5691740    0.9556711   -0.4578415  
C   11.8501282    1.8297295   -1.4899576  
O   13.0927078    2.3858545   -1.5886325  
C   10.8623125    2.1569392   -2.4491086  
O   11.2964796    3.0416569   -3.4145702  
C    9.5908389    1.6247098   -2.3979929  
H   10.2040825   -0.8710647    1.2751340  
H   12.3382663    0.7195133    0.2646042  
H   13.0752351    2.9567968   -2.3677237  
H   10.5696671    3.2095936   -4.0221427  
H    8.8551278    1.8941416   -3.1467341  
H    7.8148448   -1.3844915    0.7283516  
C    5.5868526   -0.0000777   -1.0681558  
C    6.8043821    0.0011473   -1.6695671  
C    6.5701481    0.0006862   -3.0943372  
C    5.1058543   -0.0008902   -3.2749811  
N    4.5679461   -0.0016854   -2.0086701  
C    4.4796776   -0.0013368   -4.4789774  
C    5.3028523   -0.0004140   -5.6768575  
O    4.8337320   -0.0007817   -6.8074446  
C    6.8558133    0.0010067   -5.5091795  
O    7.5591489    0.0014858   -6.5104681  
C    7.4139942    0.0016530   -4.1592592  
H    3.4041775   -0.0023688   -4.5894723  
H    8.4901793    0.0028423   -4.0517873  
H    5.3482112   -0.0001581   -0.0169946  
C    3.1301149   -0.0010311   -1.7028252  
C    2.5367768   -0.0002767   -0.4864665  
C    1.1089904    0.0001028   -0.7656183  
C    1.0177872   -0.0004148   -2.2415132  
N    2.1993578   -0.0011611   -2.7963820  
C   -0.2459209   -0.0002877   -2.9257118  
C   -1.3675319   -0.0000605   -2.1698524  
O   -2.6129313    0.0000867   -2.6748490  
C   -1.3083584    0.0000910   -0.6783232  
O   -2.3693261    0.0004206   -0.0541692  
C    0.0000000    0.0000000    0.0000000  
H    3.0096017   -0.0001007    0.4807525  
H   -0.2829630   -0.0004687   -4.0053125  
H   -3.1967441    0.0002094   -1.8949034  
C    0.0000000    0.0000000    1.4700000  
C    1.0521667    0.0011902    2.3562342  
C    0.4917218    0.0011957    3.6679131  
C   -0.9187428   -0.0003148    3.5178682  
N   -1.1833171    0.0009411    2.1707914  
C   -1.7951701   -0.0010350    4.6072090  
C   -1.2375837   -0.0005224    5.8710424  
O   -2.0474215   -0.0015360    6.9697579  
C    0.1673580    0.0013566    6.0411963  
O    0.5673524    0.0020687    7.3615553  
C    1.0325770    0.0023412    4.9669890  
H    2.0953057    0.0030649    2.0900562  
H   -2.0989778   -0.0102372    1.7591824  
H   -2.8710934   -0.0020419    4.4995513  
H   -1.4634884   -0.0006497    7.7393593  
H    1.5290710    0.0033153    7.3880045  
H    2.1042148    0.0039609    5.1284455  
