64

C    3.5911238    0.6198066   -8.7195421  
C    4.6769229   -0.2118766   -8.8672265  
C    5.0545609   -0.1634456  -10.2418702  
C    4.1554940    0.7220669  -10.8895365  
N    3.2787327    1.1783834   -9.9368149  
C    4.2307662    1.0108679  -12.2554501  
C    5.2320651    0.3947566  -12.9806980  
O    5.3512340    0.6415253  -14.3178288  
C    6.1384781   -0.4921475  -12.3525000  
O    7.0783942   -1.0257942  -13.2098920  
C    6.0646467   -0.7777309  -11.0050888  
H    5.1391674   -0.7840333   -8.0811225  
H    2.5328454    1.8304794  -10.0993094  
H    3.5485012    1.6847367  -12.7550688  
H    6.1026200    0.1184184  -14.6261201  
H    7.6506137   -1.6129835  -12.7065264  
H    6.7728911   -1.4613682  -10.5517592  
C    3.9300170   -0.7219423   -4.5190964  
C    2.8699641   -0.0020530   -4.0185824  
C    2.3084609    0.7252952   -5.1095815  
C    3.0740002    0.4064308   -6.2603207  
N    4.0515276   -0.4731893   -5.8662066  
C    2.8029521    0.9445741   -7.5219558  
C    1.7395403    1.8203317   -7.6238416  
O    1.4306801    2.3746758   -8.8322794  
C    0.9641565    2.1511174   -6.4871012  
O   -0.0597838    3.0371510   -6.7513650  
C    1.2311458    1.6208143   -5.2421026  
H    4.7407068   -0.8835869   -6.4700174  
H    0.6670876    2.9472680   -8.6828511  
H   -0.5337215    3.2075142   -5.9316315  
H    0.6198247    1.8929813   -4.3896416  
H    4.6099243   -1.3920559   -4.0214686  
C    3.2573670   -0.0002921   -1.5109382  
C    2.5379468   -0.0001711   -0.3591962  
C    1.1435043    0.0000330   -0.7338498  
C    1.1092608   -0.0000085   -2.2088474  
N    2.4227562    0.0001906   -2.6182610  
C   -0.0265533   -0.0002525   -2.9515663  
C   -1.3003033   -0.0002641   -2.2514979  
O   -2.3786785   -0.0004132   -2.8306425  
C   -1.2877724    0.0000310   -0.6895608  
O   -2.3539956    0.0003306   -0.0892035  
C    0.0000000    0.0000000    0.0000000  
H    2.9384091   -0.0000370    0.6389240  
H   -0.0296290   -0.0004088   -4.0327231  
H    4.3270394   -0.0004767   -1.6439445  
C    2.5311839    2.1237619    3.0120429  
C    1.9795631    1.6616747    1.8395852  
C    0.9223175    0.7739173    2.1983588  
C    0.8753926    0.7337535    3.6154372  
N    1.8668922    1.5631002    4.0777464  
C   -0.0496243   -0.0427881    4.3197917  
C   -0.9437528   -0.7922060    3.5801400  
O   -1.8685244   -1.5680278    4.2172520  
C   -0.9124520   -0.7656372    2.1655264  
O   -1.8671164   -1.5663939    1.5732860  
C    0.0000000    0.0000000    1.4700000  
H    2.3005065    1.9304404    0.8477417  
H    2.0679347    1.7444845    5.0445261  
H   -0.0904770   -0.0778569    5.3997470  
H   -2.3849669   -2.0011402    3.5251786  
H   -1.7775064   -1.4909735    0.6183591  
H    3.3468514    2.8078103    3.1724291  
