62

C    0.2788584    1.0892571   -0.7919011  
C    0.1691227    0.7283993   -2.1148548  
C   -0.1968338   -0.6499936   -2.1414703  
C   -0.2969760   -1.0801360   -0.7935553  
N    0.0000000    0.0000000    0.0000000  
C   -0.6407726   -2.3886364   -0.4408246  
C   -0.8882761   -3.2790540   -1.4675065  
O   -1.2282433   -4.5691707   -1.1793471  
C   -0.7930956   -2.8689139   -2.8186328  
O   -1.0688958   -3.8720123   -3.7247626  
C   -0.4537180   -1.5782762   -3.1673486  
H    0.3337831    1.3783742   -2.9571216  
H   -0.7186418   -2.7227781    0.5845959  
H   -1.3551098   -5.0140418   -2.0274387  
H   -0.9823301   -3.5119908   -4.6127348  
H    0.5353768    2.0370749   -0.3505414  
C    2.2791674    0.9713418   -5.5953574  
C    1.7237879    0.3268239   -4.5428698  
C    0.5811685   -0.3823744   -5.0978094  
C    0.5962616   -0.0447872   -6.5373893  
N    1.5893976    0.7483754   -6.8349858  
C   -0.3886173   -0.5577328   -7.4495225  
C   -1.3448691   -1.3712698   -6.9464577  
O   -2.3256814   -1.9212720   -7.6823560  
C   -1.3866957   -1.7308209   -5.4983090  
O   -2.2858442   -2.4763995   -5.1098955  
C   -0.3652331   -1.1918188   -4.5828773  
H    2.0493462    0.3319462   -3.5166820  
H   -0.3536009   -0.2943646   -8.4965758  
H   -2.8466913   -2.4463370   -7.0483144  
C    4.9106230    2.1545045   -2.3299226  
C    5.8056637    2.9507867   -2.9595377  
C    5.3854881    2.9592778   -4.3523333  
C    4.1881473    2.0921873   -4.3857096  
N    3.9048956    1.6176261   -3.2031063  
C    3.4653149    1.8396235   -5.6017732  
C    3.9178185    2.4269086   -6.7329987  
O    3.3413363    2.2787733   -7.9378909  
C    5.1230889    3.3075231   -6.7316336  
O    5.4782903    3.8088833   -7.7982591  
C    5.8473674    3.5510879   -5.4714662  
H    6.6470451    3.4685358   -2.5316492  
H    3.8870722    2.8145703   -8.5414198  
H    6.7155563    4.1951247   -5.5126394  
H    4.8753374    1.8920293   -1.2845350  
C    0.8676693    0.7151171    2.2619005  
C    0.5875920    0.4624972    3.5848544  
C   -0.5048400   -0.4542819    3.6114698  
C   -0.8517165   -0.7276451    2.2635546  
N    0.0000000    0.0000000    1.4700000  
C   -1.8902865   -1.5946756    1.9108239  
C   -2.5912627   -2.1969500    2.9375057  
O   -3.6148162   -3.0527051    2.6493466  
C   -2.2603868   -1.9365747    4.2886322  
O   -3.0513550   -2.6123276    5.1947621  
C   -1.2361111   -1.0811317    4.6373480  
H    1.1060808    0.8876438    4.4271209  
H   -2.1597133   -1.8070987    0.8854031  
H   -3.9636755   -3.3565188    3.4974381  
H   -2.7621927   -2.3810384    6.0827341  
H   -1.0058879   -0.9010589    5.6809233  
H    1.6167816    1.3499334    1.8205408  
