60

C    5.8812584   -2.1171550   -1.4737528  
C    7.1589236   -1.6187427   -1.3659414  
C    7.3593750   -0.7436338   -2.4743652  
C    6.1591943   -0.7478259   -3.2303242  
N    5.2833239   -1.5935299   -2.5960899  
C    5.9974492    0.0059111   -4.3967323  
C    7.0666530    0.7781793   -4.8073193  
O    6.9625748    1.5338589   -5.9391897  
C    8.2724834    0.7953080   -4.0667141  
O    9.2439075    1.6137107   -4.6051347  
C    8.4328485    0.0517700   -2.9160794  
H    7.8605739   -1.8574887   -0.5851209  
H    4.3455058   -1.7894394   -2.8962523  
H    7.8088863    1.9879814   -6.0430820  
H   10.0248621    1.5678758   -4.0451227  
H    9.3683141    0.0849516   -2.3699283  
H    5.3496711   -2.8058381   -0.8396486  
C    1.7334697    0.0049246   -3.2500361  
C    3.0913864    0.0046114   -3.2383151  
C    3.5242791    0.0065426   -4.6157893  
C    2.2984623    0.0080465   -5.4368628  
N    1.2476587    0.0065694   -4.5487759  
C    2.2819768    0.0104505   -6.7938549  
C    3.5566110    0.0114101   -7.4923125  
O    3.6472560    0.0134890   -8.7130008  
C    4.8674248    0.0095965   -6.6428604  
O    5.9464914    0.0100765   -7.2198154  
C    4.7574564    0.0073252   -5.1862363  
H    3.7182529    0.0030074   -2.3644445  
H    1.3716378    0.0116508   -7.3771145  
H    0.2773175    0.0086319   -4.8046686  
C    1.1319247    0.0015655   -0.8009267  
C    0.7969916    0.0034943   -2.1169401  
C   -0.6453337    0.0035710   -2.1842668  
C   -1.1266832    0.0015433   -0.7896026  
N    0.0000000    0.0000000    0.0000000  
C   -2.4346130    0.0013964   -0.4276294  
C   -3.4350109    0.0031408   -1.4820183  
O   -4.6384610    0.0030973   -1.2583915  
C   -2.9478956    0.0050505   -2.9661075  
O   -3.7809378    0.0062218   -3.8623775  
C   -1.5113821    0.0053090   -3.2312122  
H   -2.7664565    0.0000232    0.6013446  
H   -1.1823527    0.0068407   -4.2614846  
H    2.1104317    0.0009391   -0.3488056  
C    0.0000000    0.0000000    1.4700000  
C    1.0662921    0.0000102    2.3034270  
C    0.4961870   -0.0000064    3.6418889  
C   -0.9663858    0.0000850    3.4240247  
N   -1.2632773    0.0000084    2.1528658  
C   -1.8985362    0.0000517    4.5177257  
C   -1.3925775   -0.0004564    5.7720543  
O   -2.1456383   -0.0005410    6.8851312  
C    0.0786232   -0.0009323    6.0245000  
O    0.4683759   -0.0012588    7.1921102  
C    1.0143166   -0.0008442    4.8859032  
H    2.1107198   -0.0000632    2.0421868  
H   -2.9622183    0.0003270    4.3293377  
H   -1.5042274   -0.0009692    7.6184419  
H    2.0724152   -0.0013148    5.1109744  
