64

C    1.9197874   -1.7500222   -7.8922595  
C    2.9953762   -2.5540702   -8.1907264  
C    3.2289487   -2.4335600   -9.5926972  
C    2.2565730   -1.5345831  -10.1008827  
N    1.4765927   -1.1399237   -9.0423504  
C    2.1871757   -1.1798695  -11.4514940  
C    3.1165025   -1.7426896  -12.3045850  
O    3.0942738   -1.4305323  -13.6331466  
C    4.0942007   -2.6419986  -11.8165624  
O    4.9478085   -3.1172832  -12.7906270  
C    4.1630851   -2.9925929  -10.4843223  
H    3.5434429   -3.1545383   -7.4849960  
H    0.7095172   -0.4943689   -9.0955965  
H    1.4484186   -0.4953993  -11.8451189  
H    3.8167121   -1.9247861  -14.0418780  
H    5.5763693   -3.7173445  -12.3777814  
H    4.9230479   -3.6841514  -10.1398205  
C    1.6071930   -2.0691458   -5.4061220  
C    0.7600336   -1.6164455   -4.4213127  
C   -0.1612456   -0.7224872   -5.0431512  
C    0.1755312   -0.6690408   -6.4199773  
N    1.2548208   -1.4967876   -6.6059504  
C   -0.5252821    0.1165511   -7.3400290  
C   -1.5855712    0.8615299   -6.8615194  
O   -2.3042730    1.6457772   -7.7167616  
C   -1.9367276    0.8217440   -5.4911463  
O   -3.0155714    1.6195946   -5.1704052  
C   -1.2456329    0.0471727   -4.5828766  
H    0.8017172   -1.8952901   -3.3823222  
H   -0.2735268    0.1617565   -8.3906376  
H   -2.9880781    2.0738671   -7.1853340  
H   -3.1866794    1.5350658   -4.2274414  
H    2.4357997   -2.7539200   -5.3473447  
C    1.1243410    0.0099923   -0.7919003  
C    0.7474076    0.0234544   -2.1148543  
C   -0.6787381    0.0234490   -2.1414700  
C   -1.1201745    0.0098592   -0.7935546  
N    0.0000000    0.0000000    0.0000000  
C   -2.4730816    0.0063709   -0.4408240  
C   -3.3971958    0.0170982   -1.4675058  
O   -4.7313517    0.0146259   -1.1793471  
C   -2.9763648    0.0303504   -2.8186324  
O   -4.0166480    0.0395118   -3.7247624  
C   -1.6418562    0.0335260   -3.1673481  
H    1.4178717    0.0310972   -2.9571209  
H   -2.8160166   -0.0041111    0.5845966  
H   -5.1938818    0.0230867   -2.0274384  
H   -3.6464675    0.0482293   -4.6127343  
H    2.1062467    0.0052819   -0.3505407  
C    2.4951002    2.0940188    2.9809380  
C    1.9440701    1.6314916    1.8291961  
C    0.8759964    0.7350050    2.2038498  
C    0.8497377    0.7130254    3.6788474  
N    1.8560616    1.5571714    4.0882609  
C   -0.0205033   -0.0168748    4.4215661  
C   -0.9962600   -0.8356168    3.7214979  
O   -1.8224391   -1.5286685    4.3006425  
C   -0.9864710   -0.8277881    2.1595606  
O   -1.8030528   -1.5133726    1.5592035  
C    0.0000000    0.0000000    1.4700000  
H    2.2509283    1.8888011    0.8310761  
H   -0.0229599   -0.0187323    5.5027230  
H    3.3143982    2.7817323    3.1139444  
H    2.0889452    1.7545833    5.0442112  
