66

C    0.6827523   -0.7107513   -5.1516729  
C    0.3353053   -0.4609409   -6.4590916  
C   -0.7638021    0.4477941   -6.4314643  
C   -1.0451356    0.7193730   -5.0680044  
N   -0.1496426   -0.0015617   -4.3176960  
C   -2.0711966    1.5789710   -4.6641734  
C   -2.8268263    2.1755102   -5.6548006  
O   -3.8410220    3.0239061   -5.3162067  
C   -2.5617293    1.9167998   -7.0206739  
O   -3.4017744    2.5862250   -7.8864316  
C   -1.5498296    1.0686867   -7.4197847  
H    0.8143244   -0.8827551   -7.3260440  
H   -2.2907869    1.7899956   -3.6266525  
H   -4.2338974    3.3246745   -6.1459368  
H   -3.1554909    2.3565568   -8.7876540  
H   -1.3705342    0.8897138   -8.4734928  
H    1.4575534   -1.3398112   -4.7480325  
C    3.3003539    0.0005272   -1.4738994  
C    2.5232807    0.0003493   -2.6090753  
C    1.1623195   -0.0001323   -2.1820106  
C    1.1711880    0.0000582   -0.7636143  
N    2.4852298   -0.0014922   -0.3662365  
C    0.0000000    0.0000000    0.0000000  
C   -1.2020387    0.0000519   -0.6806475  
O   -2.3759248    0.0003494    0.0157747  
C   -1.2314661   -0.0005114   -2.0955507  
O   -2.5054400   -0.0008040   -2.6250174  
C   -0.0764524   -0.0007276   -2.8495195  
H    2.8919944   -0.0005625   -3.6205309  
H    2.8036264    0.0088180    0.5858657  
H   -3.0835644    0.0000351   -0.6418811  
H   -2.4360058   -0.0011530   -3.5845915  
C    6.6264006    0.0033664   -4.4617189  
C    5.3881238    0.0033364   -3.8624382  
C    5.6076636    0.0015666   -2.4530411  
C    7.0115521    0.0008548   -2.2504962  
N    7.6002622    0.0000297   -3.4906726  
C    7.5921585   -0.0005658   -0.9786149  
C    6.7400256   -0.0009740    0.1086048  
O    7.2537883   -0.0019978    1.3731444  
C    5.3365284   -0.0006529   -0.0730905  
O    4.6231718   -0.0015559    1.1077843  
C    4.7630501    0.0004753   -1.3275413  
H    4.4428871    0.0033476   -4.3777254  
H    8.5891793    0.0099672   -3.6636621  
H    8.6613874   -0.0012585   -0.8175223  
H    6.4980468   -0.0024189    1.9749074  
H    3.6846509   -0.0012385    0.8961665  
H    6.8919784    0.0040583   -5.5049958  
C    2.5311839    2.1237619    3.0120429  
C    1.9795631    1.6616747    1.8395852  
C    0.9223175    0.7739173    2.1983588  
C    0.8753926    0.7337535    3.6154372  
N    1.8668922    1.5631002    4.0777464  
C   -0.0496243   -0.0427881    4.3197917  
C   -0.9437528   -0.7922060    3.5801400  
O   -1.8685244   -1.5680278    4.2172520  
C   -0.9124520   -0.7656372    2.1655264  
O   -1.8671164   -1.5663939    1.5732860  
C    0.0000000    0.0000000    1.4700000  
H    2.3005065    1.9304404    0.8477417  
H    2.0679347    1.7444845    5.0445261  
H   -0.0904770   -0.0778569    5.3997470  
H   -2.3849669   -2.0011402    3.5251786  
H   -1.7775064   -1.4909735    0.6183591  
H    3.3468514    2.8078103    3.1724291  
