62

C    3.7650651   -3.6315199    0.6092607  
C    4.6807935   -3.0330185   -0.2248289  
C    5.9702451   -3.4964415    0.1715970  
C    5.7768471   -4.3831327    1.2616892  
N    4.4266178   -4.4409752    1.5028371  
C    6.8349129   -5.0301418    1.9071852  
C    8.1114426   -4.7776731    1.4436024  
O    9.1808910   -5.3832869    2.0373401  
C    8.3247335   -3.8958505    0.3574570  
O    9.6527042   -3.7481321    0.0139219  
C    7.2814188   -3.2570034   -0.2796427  
H    3.9872066   -4.9988662    2.2125239  
H    6.6941711   -5.7069650    2.7386328  
H    9.9658569   -5.0735545    1.5670648  
H    9.7090094   -3.1372084   -0.7271619  
H    7.4756763   -2.5868150   -1.1088526  
H    2.6924797   -3.5439365    0.6383907  
C    4.3630985   -2.0949034   -1.3110658  
C    3.1522516   -1.6320801   -1.7156888  
C    3.3924174   -0.7354490   -2.8216762  
C    4.8529073   -0.7137072   -3.0297350  
N    5.3832068   -1.5581148   -2.0817647  
C    5.4827044    0.0162383   -3.9848463  
C    4.6677385    0.8352842   -4.8666226  
O    5.1406420    1.5283997   -5.7578315  
C    3.1189441    0.8277105   -4.6641776  
O    2.4225428    1.5135518   -5.4003219  
C    2.5562217   -0.0001543   -3.6003001  
H    2.1995754   -1.8892845   -1.2880585  
H    6.5552965    0.0179184   -4.1206912  
H    6.3605512   -1.7557290   -1.9686522  
C    0.0000000    0.0000000    0.0000000  
C    1.0541688   -0.0001719   -0.8560391  
C    0.5103141   -0.0000449   -2.1935955  
C   -0.9576367    0.0002461   -2.0455733  
N   -1.2018459   -0.0001392   -0.6915970  
C   -1.8348306    0.0008319   -3.0810611  
C   -1.2972842    0.0009739   -4.4314605  
O   -2.0050664    0.0014267   -5.4301321  
C    0.2542628    0.0004190   -4.6117571  
O    0.7184677    0.0002263   -5.7439119  
C    1.0974556    0.0000880   -3.4189127  
H    2.0940752   -0.0005479   -0.5817978  
H   -2.9081050    0.0011669   -2.9507065  
H   -2.1128195    0.0014911   -0.2706793  
C    3.3003543   -0.0005276    2.9438989  
C    2.5232812   -0.0003497    4.0790748  
C    1.1623199    0.0001319    3.6520102  
C    1.1711883   -0.0000583    2.2336141  
N    2.4852299    0.0014920    1.8362361  
C    0.0000000    0.0000000    1.4700000  
C   -1.2020384   -0.0000520    2.1506477  
O   -2.3759250   -0.0003494    1.4542253  
C   -1.2314658    0.0005113    3.5655508  
O   -2.5054393    0.0008037    4.0950179  
C   -0.0764518    0.0007272    4.3195194  
H    2.8919952    0.0005619    5.0905303  
H    2.8036267   -0.0088181    0.8841339  
H   -3.0835639   -0.0000348    2.1118817  
H   -2.4360050    0.0011527    5.0545920  
H   -0.1304098    0.0013421    5.4019087  
H    4.3715549   -0.0004895    2.8367138  
