62

C    6.4394095   -3.1330178   -5.1786110  
C    7.4838641   -3.0416042   -6.0692418  
C    7.5519096   -1.6812892   -6.4929320  
C    6.5152989   -0.9838536   -5.8214061  
N    5.8579152   -1.8952865   -5.0328923  
C    6.2852535    0.3836948   -5.9993945  
C    7.1170010    1.0595590   -6.8709340  
O    6.9369247    2.3960642   -7.0815032  
C    8.1565678    0.3811279   -7.5505276  
O    8.8979356    1.1927404   -8.3841962  
C    8.3839219   -0.9680370   -7.3756271  
H    8.1179380   -3.8555045   -6.3766683  
H    5.4968020    0.9210501   -5.4906754  
H    7.6137263    2.6661773   -7.7157309  
H    9.5780378    0.6572257   -8.8040629  
H    9.1878424   -1.4605388   -7.9100737  
H    6.0623315   -3.9834821   -4.6368717  
C    4.5278027   -2.1194571   -2.8837264  
C    3.3823332   -1.6458108   -2.3290793  
C    2.7856147   -0.7523487   -3.2936974  
C    3.6837619   -0.7442616   -4.4641916  
N    4.7207732   -1.5927452   -4.1518258  
C    3.4699945   -0.0209499   -5.5923884  
C    2.2757340    0.8048554   -5.6581402  
O    1.9943437    1.4928395   -6.6306613  
C    1.3106481    0.8117466   -4.4299842  
O    0.3021853    1.5033786   -4.4736757  
C    1.6478437   -0.0100096   -3.2702997  
H    2.9992252   -1.8938568   -1.3552645  
H    4.1413739   -0.0292834   -6.4397901  
H    5.2473348   -2.8088138   -2.4726898  
C    1.1188642    0.0008224   -0.8003808  
C    0.0000000    0.0000000    0.0000000  
C   -1.1323861    0.0008899   -0.8673529  
C   -0.6382661    0.0019681   -2.1969282  
N    0.7324017    0.0038483   -2.1202240  
C   -1.4770912    0.0027320   -3.3154810  
C   -2.8395474    0.0020946   -3.0876860  
O   -3.7039199    0.0024426   -4.1440353  
C   -3.3517867    0.0013927   -1.7684331  
O   -4.7300496    0.0012363   -1.7073125  
C   -2.5248543    0.0009121   -0.6644818  
H   -1.1067568    0.0036992   -4.3313814  
H   -4.5940031    0.0021828   -3.7685133  
H   -4.9934602    0.0007260   -0.7819919  
H   -2.9462579    0.0005600    0.3339656  
H    2.1619896    0.0009357   -0.5342065  
C    2.3971438    2.0127888    3.1728260  
C    1.9431056    1.6308205    1.9564670  
C    0.8496017    0.7127664    2.2356185  
C    0.7794028    0.6545384    3.7115134  
N    1.6840587    1.4146091    4.2663826  
C   -0.1885723   -0.1578550    4.3957118  
C   -1.0476298   -0.8789867    3.6398520  
O   -2.0015663   -1.6796266    4.1448486  
C   -1.0022026   -0.8410666    2.1483229  
O   -1.8147390   -1.5232959    1.5241687  
C    0.0000000    0.0000000    1.4700000  
H    2.3054237    1.9346118    0.9892483  
H   -0.2170646   -0.1815267    5.4753125  
H   -2.4487139   -2.0549881    3.3649027  
H    3.2048689    2.6911772    3.3971983  
