66

C    4.3849900   -2.1304618   -1.4422214  
C    3.1441139   -1.6666549   -1.8131356  
C    3.3426739   -0.7794831   -2.9122717  
C    4.7370041   -0.7414325   -3.1698023  
N    5.3406533   -1.5714197   -2.2580206  
C    5.2968250    0.0340154   -4.1896406  
C    4.4333178    0.7844919   -4.9637976  
O    4.9266820    1.5593197   -5.9733754  
C    3.0391174    0.7600316   -4.7220873  
O    2.3124332    1.5616242   -5.5780799  
C    2.4861704   -0.0045255   -3.7159919  
H    2.2107612   -1.9339278   -1.3479351  
H    6.3586912    0.0674737   -4.3909403  
H    4.1660274    1.9934379   -6.3810643  
H    1.3814038    1.4876304   -5.3471832  
H    4.6641030   -2.8147095   -0.6593677  
C    7.3482695   -3.0633822   -1.9059369  
C    8.7182329   -2.9387919   -1.8938762  
C    9.0143697   -1.5710646   -2.1699641  
C    7.7748422   -0.9035062   -2.3427721  
N    6.7838482   -1.8390910   -2.1777620  
C    7.6847447    0.4621069   -2.6287301  
C    8.8674810    1.1667209   -2.7420076  
O    8.8372101    2.5027339   -3.0197959  
C   10.1140695    0.5183411   -2.5733646  
O   11.2004723    1.3563959   -2.7173647  
C   10.2037134   -0.8288966   -2.2915127  
H    9.4180730   -3.7358993   -1.7099290  
H    6.7431288    0.9767672   -2.7617182  
H    9.7572617    2.7951654   -3.0552169  
H   12.0020172    0.8401863   -2.5883068  
H   11.1727829   -1.2980308   -2.1678368  
H    6.7291374   -3.9289858   -1.7435630  
C    0.0000000    0.0000000    0.0000000  
C    1.0521669   -0.0011848   -0.8862341  
C    0.4917221   -0.0011931   -2.1979130  
C   -0.9187427    0.0003100   -2.0478683  
N   -1.1833170   -0.0009472   -0.7007915  
C   -1.7951698    0.0010259   -3.1372090  
C   -1.2375835    0.0005161   -4.4010425  
O   -2.0474208    0.0015256   -5.4997580  
C    0.1673584   -0.0013557   -4.5711962  
O    0.5673529   -0.0020659   -5.8915551  
C    1.0325773   -0.0023359   -3.4969890  
H    2.0953059   -0.0030542   -0.6200560  
H   -2.0989777    0.0102265   -0.2891825  
H   -2.8710930    0.0020274   -3.0295514  
H   -1.4634881    0.0006427   -6.2693593  
H    1.5290715   -0.0033076   -5.9180042  
C    0.0000000    0.0000000    1.4700000  
C    1.0521667    0.0011902    2.3562342  
C    0.4917218    0.0011957    3.6679131  
C   -0.9187428   -0.0003148    3.5178682  
N   -1.1833171    0.0009411    2.1707914  
C   -1.7951701   -0.0010350    4.6072090  
C   -1.2375837   -0.0005224    5.8710424  
O   -2.0474215   -0.0015360    6.9697579  
C    0.1673580    0.0013566    6.0411963  
O    0.5673524    0.0020687    7.3615553  
C    1.0325770    0.0023412    4.9669890  
H    2.0953057    0.0030649    2.0900562  
H   -2.0989778   -0.0102372    1.7591824  
H   -2.8710934   -0.0020419    4.4995513  
H   -1.4634884   -0.0006497    7.7393593  
H    1.5290710    0.0033153    7.3880045  
H    2.1042148    0.0039609    5.1284455  
