60

C    3.7122936    0.5235594   -8.7425787  
C    4.7917245   -0.3276418   -8.7950401  
C    5.2429354   -0.3449572  -10.1480784  
C    4.3932445    0.5224112  -10.8813061  
N    3.4738511    1.0316257   -9.9981111  
C    4.5457249    0.7494572  -12.2524322  
C    5.5748966    0.0891012  -12.8950167  
O    5.7690339    0.2748735  -14.2332300  
C    6.4329413   -0.7806134  -12.1807527  
O    7.4091307   -1.3636605  -12.9620707  
C    6.2829360   -1.0052828  -10.8281468  
H    5.2026133   -0.8702803   -7.9609497  
H    2.7476583    1.6853552  -10.2288987  
H    3.9013925    1.4091951  -12.8170430  
H    6.5278141   -0.2709222  -14.4774121  
H    7.9446984   -1.9352404  -12.4034398  
H    6.9555332   -1.6771605  -10.3078860  
C    3.9015076   -0.6894961   -4.5616463  
C    2.8699641   -0.0020530   -4.0185824  
C    2.2908329    0.7423721   -5.1262550  
C    3.1193982    0.3762533   -6.2950240  
N    4.0651026   -0.4628707   -5.9702104  
C    2.8662853    0.9110770   -7.6045980  
C    1.8321942    1.7721970   -7.7404754  
O    1.4822272    2.3472699   -8.9035983  
C    0.9774043    2.1609343   -6.5801397  
O    0.0532401    2.9498370   -6.7770485  
C    1.2573310    1.5987280   -5.2469146  
H    0.7144377    2.9050450   -8.6832843  
H    0.6149061    1.9053320   -4.4323506  
H    4.5849524   -1.3616565   -4.0676043  
C    3.2573670   -0.0002921   -1.5109382  
C    2.5379468   -0.0001711   -0.3591962  
C    1.1435043    0.0000330   -0.7338498  
C    1.1092608   -0.0000085   -2.2088474  
N    2.4227562    0.0001906   -2.6182610  
C   -0.0265533   -0.0002525   -2.9515663  
C   -1.3003033   -0.0002641   -2.2514979  
O   -2.3786785   -0.0004132   -2.8306425  
C   -1.2877724    0.0000310   -0.6895608  
O   -2.3539956    0.0003306   -0.0892035  
C    0.0000000    0.0000000    0.0000000  
H    2.9384091   -0.0000370    0.6389240  
H   -0.0296290   -0.0004088   -4.0327231  
H    4.3270394   -0.0004767   -1.6439445  
C    0.0000000    0.0000000    1.4700000  
C    1.0662921    0.0000102    2.3034270  
C    0.4961870   -0.0000064    3.6418889  
C   -0.9663858    0.0000850    3.4240247  
N   -1.2632773    0.0000084    2.1528658  
C   -1.8985362    0.0000517    4.5177257  
C   -1.3925775   -0.0004564    5.7720543  
O   -2.1456383   -0.0005410    6.8851312  
C    0.0786232   -0.0009323    6.0245000  
O    0.4683759   -0.0012588    7.1921102  
C    1.0143166   -0.0008442    4.8859032  
H    2.1107198   -0.0000632    2.0421868  
H   -2.9622183    0.0003270    4.3293377  
H   -1.5042274   -0.0009692    7.6184419  
H    2.0724152   -0.0013148    5.1109744  
