64

C    2.6348749    0.0027816   -7.3363402  
C    3.2943740   -0.0004706   -6.1290635  
C    4.6912570   -0.0018410   -6.4177080  
C    4.8244603    0.0010004   -7.8298603  
N    3.5568133    0.0018154   -8.3568195  
C    6.0662253    0.0009146   -8.4723645  
C    7.1940662   -0.0017874   -7.6747769  
O    8.4317871   -0.0016460   -8.2501560  
C    7.0816670   -0.0050207   -6.2640427  
O    8.2962197   -0.0078747   -5.6096741  
C    5.8569621   -0.0052112   -5.6295173  
H    2.8262326   -0.0028088   -5.1596145  
H    3.3353643    0.0142916   -9.3359954  
H    6.1744983    0.0029272   -9.5482238  
H    9.0700171   -0.0040602   -7.5249513  
H    8.1310504   -0.0099240   -4.6618780  
H    5.8022657   -0.0079076   -4.5471686  
C   -0.9736295    0.0040466   -4.6965763  
C    0.3184311    0.0036280   -5.1688549  
C    0.2411196    0.0048063   -6.5931517  
C   -1.1354311    0.0062105   -6.9352522  
N   -1.8453657    0.0037555   -5.7602606  
C   -1.5857639    0.0079220   -8.2588778  
C   -0.6290481    0.0085284   -9.2553081  
O   -1.0136077    0.0105403  -10.5649346  
C    0.7492009    0.0067736   -8.9339915  
O    1.5772154    0.0072340  -10.0375024  
C    1.1941864    0.0048114   -7.6284235  
H    1.2073191    0.0014946   -4.5615108  
H   -2.8466241    0.0145838   -5.6871420  
H   -2.6334882    0.0088540   -8.5262246  
H   -0.2014085    0.0103304  -11.0880004  
H    2.4898295    0.0059921   -9.7329739  
C    1.1188642    0.0008216   -0.8003808  
C    0.0000000    0.0000000    0.0000000  
C   -1.1323861    0.0008904   -0.8673528  
C   -0.6382661    0.0019681   -2.1969280  
N    0.7324017    0.0038477   -2.1202241  
C   -1.4770913    0.0027323   -3.3154808  
C   -2.8395472    0.0020956   -3.0876858  
O   -3.7039201    0.0024441   -4.1440350  
C   -3.3517867    0.0013945   -1.7684332  
O   -4.7300494    0.0012387   -1.7073122  
C   -2.5248543    0.0009134   -0.6644817  
H    1.3576316   -0.0056175   -2.9057045  
H   -4.5940031    0.0021847   -3.7685129  
H   -4.9934602    0.0007284   -0.7819915  
H   -2.9462576    0.0005617    0.3339659  
H    2.1619896    0.0009343   -0.5342067  
C    2.4951002    2.0940188    2.9809380  
C    1.9440701    1.6314916    1.8291961  
C    0.8759964    0.7350050    2.2038498  
C    0.8497377    0.7130254    3.6788474  
N    1.8560616    1.5571714    4.0882609  
C   -0.0205033   -0.0168748    4.4215661  
C   -0.9962600   -0.8356168    3.7214979  
O   -1.8224391   -1.5286685    4.3006425  
C   -0.9864710   -0.8277881    2.1595606  
O   -1.8030528   -1.5133726    1.5592035  
C    0.0000000    0.0000000    1.4700000  
H    2.2509283    1.8888011    0.8310761  
H   -0.0229599   -0.0187323    5.5027230  
H    3.3143982    2.7817323    3.1139444  
H    2.0889452    1.7545833    5.0442112  
