62

C   -8.4320838    2.9520589   -2.2652489  
C   -7.5945812    1.9892385   -2.7790914  
C   -8.3244512    0.7637483   -2.7870977  
C   -9.6123749    1.0429334   -2.2624689  
N   -9.6434720    2.3802589   -1.9539053  
C  -10.6008573    0.0639744   -2.1234333  
C  -10.2835072   -1.2201518   -2.5215369  
O  -11.2116711   -2.2144491   -2.4079675  
C   -9.0037977   -1.5184884   -3.0470418  
O   -8.8418933   -2.8429155   -3.3977883  
C   -8.0280572   -0.5532763   -3.1842378  
H   -6.5817755    2.1501280   -3.1067059  
H  -10.4329436    2.8697637   -1.5729871  
H  -11.5843382    0.2702863   -1.7241809  
H  -10.7910179   -3.0195115   -2.7368912  
H   -7.9515800   -2.9593984   -3.7432987  
H   -8.2606923    4.0011325   -2.0948722  
C   -3.9706103    0.7078764   -2.0752018  
C   -3.2578655    0.0024282   -2.9908505  
C   -4.2092627   -0.7390177   -3.7845364  
C   -5.5442815   -0.4052871   -3.2524286  
N   -5.3302410    0.4758321   -2.2176800  
C   -6.7107872   -0.9038561   -3.7345060  
C   -6.6471651   -1.8312060   -4.8518735  
O   -7.6419124   -2.3348780   -5.3569421  
C   -5.2439270   -2.1989459   -5.4310929  
O   -5.1778117   -2.9788878   -6.3716140  
C   -4.0578617   -1.5968206   -4.8273161  
H   -3.0900594   -1.8564716   -5.2343343  
H   -3.6169908    1.3775867   -1.3081744  
H   -6.0508612    0.8884930   -1.6542400  
C    0.0000000    0.0000000    0.0000000  
C    1.0521666   -0.0011982   -0.8862343  
C    0.4917215   -0.0011996   -2.1979132  
C   -0.9187429    0.0003215   -2.0478682  
N   -1.1833171   -0.0009323   -0.7007913  
C   -1.7951703    0.0010483   -3.1372089  
C   -1.2375841    0.0005313   -4.4010422  
O   -2.0474218    0.0015510   -5.4997578  
C    0.1673576   -0.0013585   -4.5711963  
O    0.5673520   -0.0020735   -5.8915554  
C    1.0325768   -0.0023493   -3.4969892  
H    2.0953056   -0.0030808   -0.6200564  
H   -2.0989778    0.0102529   -0.2891822  
H   -1.4634888    0.0006601   -6.2693595  
H    1.5290707   -0.0033271   -5.9180047  
H    2.1042146   -0.0039770   -3.6584456  
C    1.1319247   -0.0015655    2.2709268  
C    0.7969915   -0.0034943    3.5869401  
C   -0.6453339   -0.0035710    3.6542670  
C   -1.1266833   -0.0015433    2.2596025  
N    0.0000000    0.0000000    1.4700000  
C   -2.4346130   -0.0013964    1.8976294  
C   -3.4350110   -0.0031408    2.9520183  
O   -4.6384611   -0.0030974    2.7283916  
C   -2.9478959   -0.0050506    4.4361073  
O   -3.7809380   -0.0062218    5.3323774  
C   -1.5113823   -0.0053090    4.7012123  
H    1.4821238   -0.0045407    4.4159191  
H   -2.7664565   -0.0000232    0.8686553  
H   -1.1823530   -0.0068408    5.7314848  
H    2.1104316   -0.0009391    1.8188057  
