64

C    1.1631245   -1.0317495   -7.3491564  
C    2.1774589   -1.9170362   -7.0665590  
C    2.8795980   -2.1489071   -8.2863276  
C    2.2430122   -1.3712644   -9.2873051  
N    1.2036962   -0.7068077   -8.6848644  
C    2.6712820   -1.3542537  -10.6181268  
C    3.7622385   -2.1362842  -10.9443465  
O    4.2223808   -2.1566107  -12.2292095  
C    4.4105231   -2.9193246   -9.9597696  
O    5.4811944   -3.6436331  -10.4418332  
C    3.9884020   -2.9368014   -8.6467452  
H    2.3850194   -2.3441118   -6.1003716  
H    0.5777282   -0.0703422   -9.1442733  
H    2.1903335   -0.7638467  -11.3857921  
H    4.9787082   -2.7575601  -12.2388977  
H    5.8622615   -4.1441372   -9.7138994  
H    4.5048417   -3.5466987   -7.9147664  
C    0.0031970   -0.7071078   -5.1230241  
C    0.1388997   -0.4524512   -6.4680901  
C   -0.8935435    0.4649982   -6.8243875  
C   -1.6340125    0.7366523   -5.6454751  
N   -1.0641734    0.0073898   -4.6315339  
C   -2.7305590    1.6037846   -5.6240978  
C   -3.0858951    2.2079197   -6.8144484  
O   -4.1484937    3.0638589   -6.8500304  
C   -2.3596892    1.9492668   -8.0012683  
O   -2.8374178    2.6267615   -9.1040466  
C   -1.2779801    1.0937250   -8.0231517  
H   -3.2991463    1.8149106   -4.7289240  
H   -4.2227706    3.3690762   -7.7635898  
H   -2.2918478    2.3965635   -9.8623115  
H   -0.7412105    0.9149973   -8.9474970  
H    0.5824525   -1.3429831   -4.4756569  
C    1.1319248    0.0015675   -0.8009270  
C    0.7969916    0.0034959   -2.1169404  
C   -0.6453336    0.0035703   -2.1842672  
C   -1.1266831    0.0015415   -0.7896027  
N    0.0000000    0.0000000    0.0000000  
C   -2.4346129    0.0013924   -0.4276297  
C   -3.4350110    0.0031352   -1.4820184  
O   -4.6384610    0.0030897   -1.2583919  
C   -2.9478958    0.0050460   -2.9661075  
O   -3.7809377    0.0062160   -3.8623775  
C   -1.5113821    0.0053068   -3.2312125  
H    1.4821240    0.0045436   -2.9459192  
H   -2.7664565    0.0000185    0.6013447  
H    2.1104318    0.0009428   -0.3488058  
C    2.5285572    2.1210227    2.9438989  
C    1.9331703    1.6216660    4.0790748  
C    0.8903039    0.7472258    3.6520102  
C    0.8972198    0.7527806    2.2336141  
N    1.9028376    1.5986179    1.8362361  
C    0.0000000    0.0000000    1.4700000  
C   -0.9207814   -0.7726952    2.1506477  
O   -1.8198395   -1.5274828    1.4542253  
C   -0.9436862   -0.7911793    3.5655508  
O   -1.9197945   -1.6098497    4.0950179  
C   -0.0590329   -0.0485852    4.3195194  
H    2.2150357    1.8593692    5.0905303  
H    2.1533708    1.7953814    0.8841339  
H   -2.3621246   -1.9821033    2.1118817  
H   -1.8668290   -1.5649508    5.0545920  
H   -0.1007624   -0.0827977    5.4019087  
H    3.3491200    2.8096064    2.8367138  
