60

C   -8.4466171    1.1495422   -2.0098157  
C   -9.7604506    0.7476335   -1.9406877  
C   -9.7809834   -0.6549126   -2.1996139  
C   -8.4389001   -1.0569295   -2.4212476  
N   -7.6547243    0.0633916   -2.3005597  
C   -8.0825202   -2.3785538   -2.7060143  
C   -9.0994596   -3.3113921   -2.7678753  
O   -8.8073258   -4.6161785   -3.0421062  
C  -10.4446847   -2.9296397   -2.5500455  
O  -11.3413062   -3.9737571   -2.6461298  
C  -10.7970221   -1.6259576   -2.2693374  
H  -10.6008033    1.3869297   -1.7306853  
H   -7.0615208   -2.6913538   -2.8760660  
H   -9.6486640   -5.0909434   -3.0384505  
H  -12.2257904   -3.6308480   -2.4858027  
H  -11.8359194   -1.3634414   -2.1072987  
H   -8.0118974    2.1253035   -1.8761450  
C   -4.3137496    2.1424313   -0.2077327  
C   -5.5591243    1.7353215   -0.5466749  
C   -5.3648109    0.8246408   -1.6644416  
C   -3.9011718    0.7979212   -1.8733214  
N   -3.2797688    1.5684041   -1.0223196  
C   -3.2941076    0.0012878   -2.9038237  
C   -4.1120066   -0.7354730   -3.6896733  
O   -3.6822295   -1.5242475   -4.6892565  
C   -5.5930509   -0.7299484   -3.5035596  
O   -6.2763273   -1.4248009   -4.2555796  
C   -6.1916588    0.0955201   -2.4395132  
H   -6.4941452    2.0180139   -0.0940188  
H   -4.4926448   -1.9161851   -5.0617686  
H   -4.0287171    2.8244781    0.5774694  
C    0.0000000    0.0000000    0.0000000  
C    1.0541688   -0.0001723   -0.8560392  
C    0.5103136   -0.0000455   -2.1935956  
C   -0.9576373    0.0002461   -2.0455730  
N   -1.2018460   -0.0001389   -0.6915968  
C   -1.8348314    0.0008319   -3.0810607  
C   -1.2972851    0.0009739   -4.4314603  
O   -2.0050676    0.0014268   -5.4301316  
C    0.2542619    0.0004184   -4.6117572  
O    0.7184666    0.0002257   -5.7439122  
C    1.0974551    0.0000873   -3.4189129  
H    2.0940752   -0.0005484   -0.5817983  
H    2.1707276   -0.0000912   -3.5523673  
H   -2.1128194    0.0014915   -0.2706789  
C    1.1319247   -0.0015655    2.2709268  
C    0.7969915   -0.0034943    3.5869401  
C   -0.6453339   -0.0035710    3.6542670  
C   -1.1266833   -0.0015433    2.2596025  
N    0.0000000    0.0000000    1.4700000  
C   -2.4346130   -0.0013964    1.8976294  
C   -3.4350110   -0.0031408    2.9520183  
O   -4.6384611   -0.0030974    2.7283916  
C   -2.9478959   -0.0050506    4.4361073  
O   -3.7809380   -0.0062218    5.3323774  
C   -1.5113823   -0.0053090    4.7012123  
H    1.4821238   -0.0045407    4.4159191  
H   -2.7664565   -0.0000232    0.8686553  
H   -1.1823530   -0.0068408    5.7314848  
H    2.1104316   -0.0009391    1.8188057  
