62

C    1.1243415    0.0100053   -0.7919006  
C    0.7474076    0.0234629   -2.1148549  
C   -0.6787379    0.0234402   -2.1414703  
C   -1.1201745    0.0098455   -0.7935549  
N    0.0000000    0.0000000    0.0000000  
C   -2.4730814    0.0063409   -0.4408250  
C   -3.3971956    0.0170567   -1.4675066  
O   -4.7313516    0.0145687   -1.1793477  
C   -2.9763648    0.0303141   -2.8186328  
O   -4.0166474    0.0394625   -3.7247629  
C   -1.6418562    0.0335056   -3.1673486  
H    1.4178715    0.0311137   -2.9571210  
H   -2.8160164   -0.0041451    0.5845958  
H   -5.1938818    0.0230239   -2.0274389  
H   -3.6464675    0.0481844   -4.6127350  
H    2.1062469    0.0053068   -0.3505407  
C   -0.2201812   -0.6516331   -5.1344351  
C   -1.2456329    0.0471566   -4.5828770  
C   -1.8642147    0.7990800   -5.6490865  
C   -1.1096938    0.4787544   -6.8758219  
N   -0.1264587   -0.4053975   -6.4958035  
C   -1.3840266    0.9897831   -8.1027271  
C   -2.4965360    1.9173553   -8.2230101  
O   -2.8231187    2.4317261   -9.2846443  
C   -3.3092523    2.2710212   -6.9368462  
O   -4.2478484    3.0510203   -7.0257244  
C   -2.9183109    1.6561379   -5.6707753  
H   -3.4862636    1.9060881   -4.7849544  
H    0.4750809   -1.3256101   -4.6608795  
H    0.5531280   -0.8110403   -7.1127824  
C   -0.6146594    0.6524099   -9.3090243  
C    0.4513707   -0.1785720   -9.4398869  
C    0.8326131   -0.1581673  -10.8323924  
C   -0.1054000    0.7594205  -11.5068967  
N   -0.9574705    1.2168322  -10.5283059  
C   -0.0774205    1.0501015  -12.8321992  
C    0.9446239    0.4167977  -13.6488299  
O    1.0525850    0.6138773  -14.8520777  
C    1.9483812   -0.5587057  -12.9555263  
O    2.8129911   -1.0980413  -13.6328954  
C    1.8182657   -0.7926163  -11.5194875  
H    0.9173466   -0.7417211   -8.6509993  
H   -0.7747438    1.7261566  -13.3071724  
H    2.5173073   -1.4692619  -11.0470302  
H   -1.7109037    1.8628937  -10.6765960  
C    2.5311839    2.1237619    3.0120429  
C    1.9795631    1.6616747    1.8395852  
C    0.9223175    0.7739173    2.1983588  
C    0.8753926    0.7337535    3.6154372  
N    1.8668922    1.5631002    4.0777464  
C   -0.0496243   -0.0427881    4.3197917  
C   -0.9437528   -0.7922060    3.5801400  
O   -1.8685244   -1.5680278    4.2172520  
C   -0.9124520   -0.7656372    2.1655264  
O   -1.8671164   -1.5663939    1.5732860  
C    0.0000000    0.0000000    1.4700000  
H    2.3005065    1.9304404    0.8477417  
H    2.0679347    1.7444845    5.0445261  
H   -0.0904770   -0.0778569    5.3997470  
H   -2.3849669   -2.0011402    3.5251786  
H   -1.7775064   -1.4909735    0.6183591  
H    3.3468514    2.8078103    3.1724291  
