62

C    5.6234052   -2.9840347   -8.4548744  
C    4.8621866   -1.9990546   -7.8693598  
C    5.1196184   -0.7927588   -8.5857252  
C    6.0536964   -1.1059528   -9.6061827  
N    6.3398852   -2.4441791   -9.4972578  
C    6.5358090   -0.1530277  -10.5085621  
C    6.0661940    1.1395485  -10.3786168  
O    6.5037432    2.1094063  -11.2335676  
C    5.1343322    1.4716777   -9.3666197  
O    4.7632562    2.8004535   -9.3670953  
C    4.6584901    0.5321634   -8.4758813  
H    4.2033413   -2.1332231   -7.0285777  
H    6.9647746   -2.9545295  -10.0947819  
H    7.2478806   -0.3853090  -11.2884347  
H    6.0583241    2.9256166  -10.9715246  
H    4.1328386    2.9404421   -8.6539473  
H    5.7130414   -4.0286455   -8.2105111  
C    4.3834955   -0.6859722   -4.3011933  
C    3.2973506   -0.0000934   -3.8752374  
C    2.8440573    0.7452243   -5.0395080  
C    3.7976377    0.3812809   -6.1094678  
N    4.7022577   -0.4574405   -5.6826203  
C    3.6909720    0.9175298   -7.4384316  
C    2.6775117    1.7779344   -7.6873016  
O    2.4582900    2.3541659   -8.8814286  
C    1.6987829    2.1644848   -6.6286089  
O    0.8014172    2.9528433   -6.9260092  
C    1.8294973    1.6008465   -5.2731940  
H    1.6702335    2.9110075   -8.7470890  
H    1.1002949    1.9058792   -4.5346484  
H    5.0085212   -1.3581665   -3.7350919  
C    3.3321174    0.0004714   -1.3379332  
C    2.6974186    0.0000115   -2.5332308  
C    1.2800441   -0.0002119   -2.2052838  
C    1.2395035    0.0000643   -0.7271293  
N    2.4394063    0.0005458   -0.2131034  
C    0.0000000    0.0000000    0.0000000  
C   -1.1468701    0.0000634   -0.7169542  
O   -2.3742201    0.0000072   -0.1695492  
C   -1.1388767    0.0001606   -2.2096354  
O   -2.2206229    0.0000903   -2.7970413  
C    0.1454526    0.0001815   -2.9324239  
H   -2.9844344    0.0001023   -0.9290168  
H    0.1083580    0.0003680   -4.0135594  
H    4.3940040    0.0007617   -1.1498630  
C    2.5285572    2.1210227    2.9438989  
C    1.9331703    1.6216660    4.0790748  
C    0.8903039    0.7472258    3.6520102  
C    0.8972198    0.7527806    2.2336141  
N    1.9028376    1.5986179    1.8362361  
C    0.0000000    0.0000000    1.4700000  
C   -0.9207814   -0.7726952    2.1506477  
O   -1.8198395   -1.5274828    1.4542253  
C   -0.9436862   -0.7911793    3.5655508  
O   -1.9197945   -1.6098497    4.0950179  
C   -0.0590329   -0.0485852    4.3195194  
H    2.2150357    1.8593692    5.0905303  
H    2.1533708    1.7953814    0.8841339  
H   -2.3621246   -1.9821033    2.1118817  
H   -1.8668290   -1.5649508    5.0545920  
H   -0.1007624   -0.0827977    5.4019087  
H    3.3491200    2.8096064    2.8367138  
