64

C    4.1084827    0.7215703   -7.7919037  
C    5.1222191    0.0024085   -7.2023174  
C    5.7754440   -0.7248397   -8.2410696  
C    5.1110156   -0.4066670   -9.4531873  
N    4.1028472    0.4724624   -9.1444068  
C    5.4893474   -0.9449169  -10.6868564  
C    6.5580736   -1.8200716  -10.6971317  
O    6.9695348   -2.3744888  -11.8745589  
C    7.2335159   -2.1501633   -9.4981170  
O    8.2768169   -3.0356513   -9.6735505  
C    6.8606553   -1.6197544   -8.2806742  
H    3.4676402    0.8823282   -9.8050894  
H    4.9869700   -0.7065512  -11.6142189  
H    7.7178624   -2.9466015  -11.6601801  
H    8.6789579   -3.2055636   -8.8162192  
H    7.3969329   -1.8913833   -7.3789516  
H    3.3881025    1.3913893   -7.3544642  
C    2.5562217   -0.0001551   -3.6003001  
C    3.5655128   -0.0017025   -2.6655294  
C    4.7980128   -0.0018122   -3.3835434  
C    4.4750737    0.0000059   -4.7647141  
N    3.1056446   -0.0009746   -4.8610468  
C    5.4479449    0.0007222   -5.7688602  
C    6.7709215   -0.0001109   -5.3714836  
O    7.7613129    0.0008838   -6.3107055  
C    7.1131347   -0.0023000   -3.9982744  
O    8.4727603   -0.0033100   -3.7642599  
C    6.1538986   -0.0032805   -3.0071182  
H    3.4300846   -0.0037426   -1.5975180  
H    2.5841971    0.0104552   -5.7189186  
H    8.5970863   -0.0002467   -5.8261986  
H    8.6176763   -0.0047535   -2.8131546  
H    6.4463530   -0.0051417   -1.9635927  
C    0.0000000    0.0000000    0.0000000  
C    1.0541688   -0.0001722   -0.8560390  
C    0.5103141   -0.0000453   -2.1935955  
C   -0.9576367    0.0002460   -2.0455731  
N   -1.2018459   -0.0001392   -0.6915969  
C   -1.8348307    0.0008318   -3.0810611  
C   -1.2972843    0.0009738   -4.4314606  
O   -2.0050665    0.0014267   -5.4301321  
C    0.2542628    0.0004186   -4.6117570  
O    0.7184676    0.0002258   -5.7439117  
C    1.0974555    0.0000874   -3.4189127  
H    2.0940752   -0.0005483   -0.5817978  
H   -2.9081051    0.0011670   -2.9507061  
H   -2.1128194    0.0014912   -0.2706792  
C    1.1243417   -0.0099156    2.2619005  
C    0.7474090   -0.0234034    3.5848544  
C   -0.6787367   -0.0234952    3.6114698  
C   -1.1201739   -0.0099357    2.2635546  
N    0.0000000    0.0000000    1.4700000  
C   -2.4730812   -0.0065396    1.9108239  
C   -3.3971947   -0.0173298    2.9375057  
O   -4.7313508   -0.0149487    2.6493466  
C   -2.9763630   -0.0305536    4.2886322  
O   -4.0166453   -0.0397858    5.1947621  
C   -1.6418541   -0.0336380    4.6373480  
H    1.4178735   -0.0310004    4.4271209  
H   -2.8160170    0.0039190    0.8854031  
H   -5.1938803   -0.0234410    3.4974381  
H   -3.6464643   -0.0484781    6.0827341  
H   -1.3497443   -0.0436789    5.6809233  
H    2.1062470   -0.0051382    1.8205408  
