60

C    4.6402977    0.0036849   -8.0301915  
C    5.7436584    0.0052202   -8.8518118  
C    6.8924161    0.0060652   -8.0062607  
C    6.4238002    0.0046874   -6.6674842  
N    5.0519152    0.0052116   -6.7179735  
C    7.2838517    0.0047281   -5.5651687  
C    8.6417045    0.0058791   -5.8189645  
O    9.5261114    0.0056215   -4.7793301  
C    9.1286333    0.0076380   -7.1477664  
O   10.5054759    0.0090454   -7.2352196  
C    8.2807511    0.0078721   -8.2357095  
H    5.7230797    0.0067805   -9.9281799  
H    4.4418244   -0.0060608   -5.9207007  
H   10.4088532    0.0068587   -5.1717958  
H   10.7511503    0.0101580   -8.1654054  
H    8.6829920    0.0094182   -9.2420292  
H    3.5922761    0.0030672   -8.2763778  
C    6.8068807    0.0035020   -4.1747020  
C    5.5278576    0.0022331   -3.7323476  
C    5.6328267    0.0014348   -2.2813202  
C    7.0869585    0.0022983   -2.0128351  
N    7.7802397    0.0035920   -3.1188859  
C    7.6138019    0.0019123   -0.6758530  
C    6.7282253    0.0011069    0.3464425  
O    7.0793819    0.0006613    1.6436435  
C    5.2547117    0.0005945    0.1078687  
O    4.5071913   -0.0002588    1.0858429  
C    4.7390840    0.0009613   -1.2727298  
H    4.6247027    0.0019722   -4.3183400  
H    8.6810612    0.0023565   -0.5089147  
H    6.2347362    0.0001389    2.1291602  
C    3.2798077    0.0005856   -1.4499661  
C    2.5571132    0.0005565   -2.5996564  
C    1.1637425    0.0001547   -2.2210366  
C    1.1336959   -0.0000200   -0.7459475  
N    2.4483509   -0.0001429   -0.3402730  
C    0.0000000    0.0000000    0.0000000  
C   -1.2757370   -0.0000187   -0.6964411  
O   -2.3524597   -0.0000640   -0.1142306  
C   -1.2676502   -0.0000874   -2.2584078  
O   -2.3355774   -0.0004102   -2.8557287  
C    0.0181551    0.0001758   -2.9516297  
H    2.9547342    0.0006074   -3.5989118  
H    0.0150776    0.0003317   -4.0331632  
H    2.7563626    0.0012823    0.6148051  
C    0.8681109    0.7263879    2.2709268  
C    0.6127770    0.5096195    3.5869401  
C   -0.4920590   -0.4175482    3.6542670  
C   -0.8620974   -0.7254003    2.2596025  
N    0.0000000    0.0000000    1.4700000  
C   -1.8641242   -1.5660088    1.8976294  
C   -2.6293522   -2.2103885    2.9520183  
O   -3.5512764   -2.9839180    2.7283916  
C   -2.2549728   -1.8987399    4.4361073  
O   -2.8923672   -2.4351063    5.3323774  
C   -1.1543735   -0.9755647    4.7012123  
H    1.1382914    0.9492124    4.4159191  
H   -2.1192137   -1.7782617    0.8686553  
H   -0.9013378   -0.7652422    5.7314848  
H    1.6172880    1.3558399    1.8188057  
