60

C    4.1680876    0.5526793   -7.3416862  
C    5.2143229   -0.2877501   -7.0391348  
C    6.1015907   -0.2667210   -8.1557876  
C    5.5398247    0.6118595   -9.1172665  
N    4.3653198    1.0905822   -8.5919299  
C    6.1485634    0.8750978  -10.3480920  
C    7.3463709    0.2400772  -10.6130130  
O    7.9836676    0.4615691  -11.7995241  
C    7.9225162   -0.6402944   -9.6665356  
O    9.1167414   -1.1949422  -10.0782823  
C    7.3224012   -0.9006634   -8.4522065  
H    5.3239148   -0.8480013   -6.1263910  
H    3.7511757    1.7438249   -9.0436841  
H    5.7254752    1.5435567  -11.0852233  
H    8.7891877   -0.0713841  -11.7804526  
H    9.4382251   -1.7760415   -9.3821675  
H    7.7874233   -1.5798871   -7.7473036  
C    2.8279729   -0.7071296   -3.3541665  
C    1.6707636   -0.0012343   -3.2725974  
C    1.5420226    0.7399975   -4.5050083  
C    2.7275728    0.4056547   -5.3170902  
N    3.4672609   -0.4755791   -4.5626513  
C    2.9773528    0.9038683   -6.5544657  
C    2.0143743    1.8314547   -7.1243707  
O    2.1493684    2.3348416   -8.2319258  
C    0.7517068    2.1998418   -6.2818938  
O   -0.0658604    2.9799880   -6.7511674  
C    0.5920513    1.5980567   -4.9604491  
H   -0.2850559    1.8581558   -4.3835994  
H    3.2676543   -1.3768500   -2.6330256  
H    4.3364880   -0.8886230   -4.8470555  
C    1.0965514    0.0001358   -0.8010306  
C    0.0000000    0.0000000    0.0000000  
C   -1.1546565    0.0001470   -0.8669508  
C   -0.6372019    0.0003520   -2.2486278  
N    0.7342867    0.0007338   -2.1395012  
C   -1.4147744    0.0001354   -3.3608712  
C   -2.8576052   -0.0001047   -3.1854454  
O   -3.6427785   -0.0002490   -4.1244896  
C   -3.4275841   -0.0000727   -1.7311660  
O   -4.6406832    0.0000333   -1.5710049  
C   -2.4891868   -0.0001090   -0.6116739  
H   -1.0150456    0.0001617   -4.3654239  
H   -2.8919122   -0.0002919    0.3920871  
H    2.1388270    0.0000663   -0.5261650  
C    0.0000000    0.0000000    1.4700000  
C    1.0541688    0.0001722    2.3260392  
C    0.5103138    0.0000454    3.6635956  
C   -0.9576371   -0.0002459    3.5155732  
N   -1.2018458    0.0001392    2.1615969  
C   -1.8348311   -0.0008317    4.5510609  
C   -1.2972847   -0.0009736    5.9014604  
O   -2.0050672   -0.0014265    6.9001319  
C    0.2542623   -0.0004184    6.0817573  
O    0.7184670   -0.0002256    7.2139121  
C    1.0974552   -0.0000873    4.8889129  
H    2.0940752    0.0005483    2.0517982  
H   -2.9081052   -0.0011668    4.4207061  
H    2.1707277    0.0000911    5.0223670  
H   -2.1128194   -0.0014912    1.7406791  
