60

C    1.5273206   -1.0743985   -7.2944628  
C    2.5100081   -1.9601257   -6.9172631  
C    3.3020518   -2.2208867   -8.0745315  
C    2.7503936   -1.4596012   -9.1366257  
N    1.6730184   -0.7766778   -8.6291846  
C    3.2798613   -1.4720635  -10.4305720  
C    4.3865655   -2.2672948  -10.6563831  
O    4.9439853   -2.3163587  -11.9013283  
C    4.9511072   -3.0343799   -9.6096310  
O    6.0500197   -3.7749132   -9.9934847  
C    4.4291345   -3.0227803   -8.3329419  
H    2.6393248   -2.3689465   -5.9297736  
H    1.0892001   -0.1456993   -9.1478399  
H    2.8639768   -0.8942449  -11.2444324  
H    5.6941254   -2.9220880  -11.8409388  
H    6.3700756   -4.2630254   -9.2286881  
H    4.8829970   -3.6210251   -7.5515385  
C    0.2055739   -0.7043959   -5.1603477  
C   -0.8712826    0.0001710   -4.7267111  
C   -1.3726447    0.7423359   -5.8592582  
C   -0.4933186    0.4099884   -6.9964127  
N    0.4429027   -0.4710985   -6.5064483  
C   -0.6357679    0.9095507   -8.2501475  
C   -1.7278970    1.8365866   -8.4958968  
O   -1.9397499    2.3410845   -9.5908403  
C   -2.6713157    2.2028687   -7.3061049  
O   -3.5940526    2.9825347   -7.5008825  
C   -2.4172090    1.5997595   -6.0001412  
H    0.0202133    0.6527126   -9.0702891  
H   -3.0751241    1.8584032   -5.1816215  
H    0.8458870   -1.3742663   -4.6097463  
C    1.0965514    0.0001359   -0.8010305  
C    0.0000000    0.0000000    0.0000000  
C   -1.1546563    0.0001470   -0.8669513  
C   -0.6372014    0.0003519   -2.2486282  
N    0.7342871    0.0007337   -2.1395014  
C   -1.4147739    0.0001352   -3.3608717  
C   -2.8576049   -0.0001048   -3.1854462  
O   -3.6427779   -0.0002494   -4.1244907  
C   -3.4275840   -0.0000725   -1.7311666  
O   -4.6406831    0.0000333   -1.5710060  
C   -2.4891867   -0.0001091   -0.6116744  
H   -2.8919122   -0.0002918    0.3920866  
H    2.1388272    0.0000663   -0.5261648  
H    1.3735872   -0.0006099   -2.9130262  
C    0.8400945    0.7047457    2.2710304  
C    0.0000000    0.0000000    1.4700000  
C   -0.8844236   -0.7423113    2.3369512  
C   -0.4878984   -0.4098547    3.7186280  
N    0.5629682    0.4714286    3.6095011  
C   -1.0836927   -0.9095027    4.8308716  
C   -2.1891196   -1.8367527    4.6554461  
O   -2.7906899   -2.3413415    5.5944904  
C   -2.6257283   -2.2031529    3.2011665  
O   -3.5549479   -2.9829990    3.0410059  
C   -1.9068976   -1.5999348    2.0816745  
H   -0.7774656   -0.6525820    5.8354244  
H   -2.2155208   -1.8586617    1.0779135  
H    1.6384792    1.3747609    1.9961646  
H    1.0518368    0.8833920    4.3830260  
