64

C    4.0904397    0.6214829   -7.3668846  
C    5.1532676   -0.2100815   -7.0997409  
C    6.0156082   -0.1613853   -8.2349043  
C    5.4222373    0.7241589   -9.1706649  
N    4.2537017    1.1802385   -8.6128729  
C    6.0006710    1.0131975  -10.4102860  
C    7.2001083    0.3972954  -10.7106093  
O    7.8085703    0.6443006  -11.9071772  
C    7.8075465   -0.4896365   -9.7901817  
O    8.9992091   -1.0230571  -10.2359926  
C    7.2373390   -0.7754542   -8.5671956  
H    5.2896353   -0.7823311   -6.1981157  
H    3.6218678    1.8322976   -9.0413426  
H    5.5534132    1.6870919  -11.1279421  
H    8.6207932    0.1213108  -11.9135748  
H    9.3429268   -1.6102819   -9.5558245  
H    7.7259460   -1.4591071   -7.8828270  
C    2.8410613   -0.7209473   -3.3424827  
C    1.6707636   -0.0012343   -3.2725974  
C    1.5557840    0.7262499   -4.4941318  
C    2.6948102    0.4076464   -5.2770985  
N    3.4554127   -0.4719559   -4.5474404  
C    2.9129643    0.9459796   -6.5488672  
C    1.9638386    1.8216625   -7.0392923  
O    2.1270888    2.3761842   -8.2757670  
C    0.8208871    2.1521890   -6.2729824  
O   -0.0311432    3.0381790   -6.8994099  
C    0.6051602    1.6216984   -5.0181645  
H    4.3199268   -0.8821918   -4.8512552  
H    1.3626844    2.9486855   -8.4213471  
H   -0.7762620    3.2083626   -6.3150819  
H   -0.2796638    1.8936683   -4.4546061  
H    3.2868714   -1.3910861   -2.6275514  
C    1.0965514    0.0001358   -0.8010306  
C    0.0000000    0.0000000    0.0000000  
C   -1.1546565    0.0001470   -0.8669508  
C   -0.6372019    0.0003520   -2.2486278  
N    0.7342867    0.0007338   -2.1395012  
C   -1.4147744    0.0001354   -3.3608712  
C   -2.8576052   -0.0001047   -3.1854454  
O   -3.6427785   -0.0002490   -4.1244896  
C   -3.4275841   -0.0000727   -1.7311660  
O   -4.6406832    0.0000333   -1.5710049  
C   -2.4891868   -0.0001090   -0.6116739  
H   -1.0150456    0.0001617   -4.3654239  
H   -2.8919122   -0.0002919    0.3920871  
H    2.1388270    0.0000663   -0.5261650  
C    0.8576279    0.7185626    2.2703808  
C    0.0000000    0.0000000    1.4700000  
C   -0.8668858   -0.7285659    2.3373528  
C   -0.4876752   -0.4117774    3.6669281  
N    0.5635254    0.4678311    3.5902241  
C   -1.1297612   -0.9515493    4.7854808  
C   -2.1738724   -1.8268314    4.5576857  
O   -2.8357962   -2.3827064    5.6140350  
C   -2.5667212   -2.1555554    3.2384331  
O   -3.6226318   -3.0413663    3.1773122  
C   -1.9335634   -1.6236449    2.1344818  
H    1.0363952    0.8769718    4.3757045  
H   -0.8454472   -0.7142436    5.8013813  
H   -3.5178062   -2.9546422    5.2385129  
H   -3.8247440   -3.2102924    2.2519915  
H   -2.2566033   -1.8942483    1.1360343  
H    1.6567807    1.3889844    2.0042067  
