60

C    2.1797699   -4.5908187   -7.2524384  
C    2.6603883   -4.3769474   -8.5235524  
C    2.3864985   -3.0153638   -8.8486276  
C    1.7320597   -2.4433721   -7.7277078  
N    1.6207444   -3.4276359   -6.7772072  
C    1.3137322   -1.1096722   -7.6955144  
C    1.5608252   -0.3392800   -8.8151660  
O    1.1736953    0.9694085   -8.8370403  
C    2.2121696   -0.8920109   -9.9434637  
O    2.3851042    0.0028237  -10.9791797  
C    2.6248930   -2.2077329   -9.9760242  
H    3.1473844   -5.1121915   -9.1410035  
H    1.2079620   -3.3134990   -5.8691520  
H    1.4375332    1.3178296   -9.6985840  
H    2.8318751   -0.4500014  -11.7009485  
H    3.1212415   -2.6031857  -10.8545082  
H    2.1902225   -5.4814410   -6.6477565  
C    0.9350738   -0.7259371   -5.2319057  
C    0.6347946   -0.5089057   -6.5383532  
C   -0.4715643    0.4184294   -6.5675990  
C   -0.7935155    0.7260931   -5.1610139  
N    0.0950446    0.0004351   -4.4015596  
C   -1.7824171    1.5667801   -4.7647528  
C   -2.5832566    2.2114497   -5.7921729  
O   -3.4968565    2.9850705   -5.5369346  
C   -2.2600339    1.9000041   -7.2882794  
O   -2.9277087    2.4366153   -8.1620754  
C   -1.1693081    0.9767197   -7.5911235  
H   -2.0020411    1.7788917   -3.7276008  
H   -0.9517810    0.7665393   -8.6295016  
H    1.6992217   -1.3555725   -4.8058458  
C    3.3321173    0.0004713   -1.3379338  
C    2.6974181    0.0000116   -2.5332314  
C    1.2800438   -0.0002119   -2.2052841  
C    1.2395034    0.0000643   -0.7271299  
N    2.4394062    0.0005460   -0.2131038  
C    0.0000000    0.0000000    0.0000000  
C   -1.1468702    0.0000634   -0.7169543  
O   -2.3742203    0.0000074   -0.1695487  
C   -1.1388770    0.0001607   -2.2096355  
O   -2.2206234    0.0000905   -2.7970411  
C    0.1454522    0.0001815   -2.9324241  
H    3.1367984   -0.0000653   -3.5160950  
H   -2.9844346    0.0001026   -0.9290167  
H    4.3940038    0.0007618   -1.1498640  
C    2.5528530    2.1414826    2.8079335  
C    2.0663498    1.7338582    4.0032312  
C    0.9804344    0.8229586    3.6752840  
C    0.9495562    0.7966882    2.1971295  
N    1.8690446    1.5676019    1.6831036  
C    0.0000000    0.0000000    1.4700000  
C   -0.8785127   -0.7372425    2.1869543  
O   -1.8187535   -1.5261249    1.6395491  
C   -0.8723269   -0.7321790    3.6796354  
O   -1.7010379   -1.4274584    4.2670412  
C    0.1115397    0.0933559    4.4024240  
H    2.4028853    2.0163452    4.9860947  
H   -2.2861435   -1.9184361    2.3990168  
H    0.0832434    0.0693689    5.4835595  
H    3.3664920    2.8238276    2.6198634  
