62

C    1.6295429   -2.4020948   -7.2610579  
C    1.1924191   -1.0992537   -7.3242661  
C    1.9252963   -0.4644852   -8.3704785  
C    2.8020528   -1.4378540   -8.9143309  
N    2.5981928   -2.6023912   -8.2165404  
C    3.6782173   -1.1618162   -9.9683377  
C    3.6689182    0.1201037  -10.4828983  
O    4.5040743    0.4437037  -11.5128561  
C    2.8016547    1.1051773   -9.9534625  
O    2.9111029    2.3330290  -10.5729341  
C    1.9372251    0.8336388   -8.9134844  
H    3.0721904   -3.4710615   -8.3860101  
H    4.3490269   -1.8992138  -10.3872190  
H    4.3394318    1.3736961  -11.7160065  
H    2.2921970    2.9402738  -10.1560261  
H    1.2847100    1.6086543   -8.5287086  
H    1.3280235   -3.2039310   -6.6090587  
C    0.0063634   -0.7183644   -5.1315053  
C    0.1635204   -0.4995840   -6.4624868  
C   -0.8683539    0.4283171   -6.8613241  
C   -1.6451053    0.7344066   -5.6448724  
N   -1.0641734    0.0073898   -4.6315339  
C   -2.7096569    1.5750805   -5.6036140  
C   -3.1177667    2.2213961   -6.8398410  
O   -4.0639318    2.9951407   -6.9061048  
C   -2.3096748    1.9116339   -8.1401646  
O   -2.6441266    2.4496386   -9.1870431  
C   -1.1807027    0.9881992   -8.0592840  
H   -3.2656681    1.7860227   -4.7006938  
H   -0.6262528    0.7791906   -8.9640628  
H    0.5824088   -1.3488893   -4.4738586  
C    1.1319248    0.0015675   -0.8009270  
C    0.7969916    0.0034959   -2.1169404  
C   -0.6453336    0.0035703   -2.1842672  
C   -1.1266831    0.0015415   -0.7896027  
N    0.0000000    0.0000000    0.0000000  
C   -2.4346129    0.0013924   -0.4276297  
C   -3.4350110    0.0031352   -1.4820184  
O   -4.6384610    0.0030897   -1.2583919  
C   -2.9478958    0.0050460   -2.9661075  
O   -3.7809377    0.0062160   -3.8623775  
C   -1.5113821    0.0053068   -3.2312125  
H    1.4821240    0.0045436   -2.9459192  
H   -2.7664565    0.0000185    0.6013447  
H    2.1104318    0.0009428   -0.3488058  
C    2.5285572    2.1210227    2.9438989  
C    1.9331703    1.6216660    4.0790748  
C    0.8903039    0.7472258    3.6520102  
C    0.8972198    0.7527806    2.2336141  
N    1.9028376    1.5986179    1.8362361  
C    0.0000000    0.0000000    1.4700000  
C   -0.9207814   -0.7726952    2.1506477  
O   -1.8198395   -1.5274828    1.4542253  
C   -0.9436862   -0.7911793    3.5655508  
O   -1.9197945   -1.6098497    4.0950179  
C   -0.0590329   -0.0485852    4.3195194  
H    2.2150357    1.8593692    5.0905303  
H    2.1533708    1.7953814    0.8841339  
H   -2.3621246   -1.9821033    2.1118817  
H   -1.8668290   -1.5649508    5.0545920  
H   -0.1007624   -0.0827977    5.4019087  
H    3.3491200    2.8096064    2.8367138  
