62

C    5.0119262   -0.9952940   -7.1942881  
C    5.7643986   -0.5812006   -8.2688946  
C    5.5487582    0.8214787   -8.4123862  
C    4.6480175    1.2110155   -7.3882502  
N    4.3405876    0.0834577   -6.6680295  
C    4.2112418    2.5292758   -7.2263697  
C    4.6927621    3.4715203   -8.1143397  
O    4.2990310    4.7735404   -8.0015059  
C    5.5918412    3.1022764   -9.1429959  
O    5.9800658    4.1546781   -9.9461621  
C    6.0229454    1.8019196   -9.3034557  
H    6.3907208   -1.2126663   -8.8754965  
H    3.5247394    2.8325813   -6.4479597  
H    4.7453755    5.2560994   -8.7094456  
H    6.5861688    3.8199968  -10.6141680  
H    6.7118830    1.5490626  -10.1008945  
H    4.8998718   -1.9750524   -6.7624593  
C    4.6022462   -2.1272931   -2.8466434  
C    3.4305510   -1.6635856   -2.2947618  
C    2.8449917   -0.7762114   -3.2457021  
C    3.7116210   -0.7379406   -4.3679383  
N    4.7696350   -1.5679973   -4.0918412  
C    3.4480381    0.0377430   -5.5009113  
C    2.2883219    0.7882332   -5.5011201  
O    1.9820898    1.5632871   -6.5821046  
C    1.4112320    0.7635555   -4.3907505  
O    0.2988107    1.5651929   -4.5432009  
C    1.6707636   -0.0012343   -3.2725974  
H    3.0458274   -1.9310528   -1.3255135  
H    5.5403297   -1.7506945   -4.7087957  
H    1.1435167    1.9973736   -6.3780709  
H   -0.2405315    1.4910427   -3.7499695  
H    5.3325174   -2.8116310   -2.4499768  
C    1.0965514    0.0001358   -0.8010306  
C    0.0000000    0.0000000    0.0000000  
C   -1.1546565    0.0001470   -0.8669508  
C   -0.6372019    0.0003520   -2.2486278  
N    0.7342867    0.0007338   -2.1395012  
C   -1.4147744    0.0001354   -3.3608712  
C   -2.8576052   -0.0001047   -3.1854454  
O   -3.6427785   -0.0002490   -4.1244896  
C   -3.4275841   -0.0000727   -1.7311660  
O   -4.6406832    0.0000333   -1.5710049  
C   -2.4891868   -0.0001090   -0.6116739  
H   -1.0150456    0.0001617   -4.3654239  
H   -2.8919122   -0.0002919    0.3920871  
H    2.1388270    0.0000663   -0.5261650  
C    0.0000000    0.0000000    1.4700000  
C    1.0662921    0.0000102    2.3034270  
C    0.4961870   -0.0000064    3.6418889  
C   -0.9663858    0.0000850    3.4240247  
N   -1.2632773    0.0000084    2.1528658  
C   -1.8985362    0.0000517    4.5177257  
C   -1.3925775   -0.0004564    5.7720543  
O   -2.1456383   -0.0005410    6.8851312  
C    0.0786232   -0.0009323    6.0245000  
O    0.4683759   -0.0012588    7.1921102  
C    1.0143166   -0.0008442    4.8859032  
H    2.1107198   -0.0000632    2.0421868  
H   -2.9622183    0.0003270    4.3293377  
H   -1.5042274   -0.0009692    7.6184419  
H    2.0724152   -0.0013148    5.1109744  
