60

C    3.4418286   -5.6030845   -7.5974319  
C    4.0778646   -5.1674715   -8.7368022  
C    3.8017832   -3.7735455   -8.8606952  
C    2.9858803   -3.4112717   -7.7584311  
N    2.7848224   -4.5460040   -7.0123911  
C    2.5206404   -2.1081499   -7.5578947  
C    2.8859512   -1.1532839   -8.4868496  
O    2.4596103    0.1348992   -8.3390956  
C    3.6990869   -1.4953504   -9.5934744  
O    3.9755328   -0.4332718  -10.4294818  
C    4.1581960   -2.7807682   -9.7920845  
H    4.6672945   -5.7793726   -9.3979694  
H    2.2523391   -4.5951143   -6.1626665  
H    2.8222600    0.6298188   -9.0852883  
H    4.5289864   -0.7494857  -11.1501081  
H    4.7793957   -3.0128524  -10.6492456  
H    3.4036665   -6.5844885   -7.1565825  
C    1.7744462   -2.1336760   -5.1326802  
C    1.6746906   -1.7240761   -6.4187041  
C    0.5405881   -0.8130121   -6.4352716  
C    0.0614873   -0.7888183   -5.0365363  
N    0.7809200   -1.5609931   -4.2683222  
C   -1.0641734    0.0073898   -4.6315339  
C   -1.6828411    0.7461572   -5.5806429  
O   -2.7449527    1.5348085   -5.3440237  
C   -1.2228403    0.7432050   -7.0006961  
O   -1.8334833    1.4397964   -7.8113107  
C   -0.0658192   -0.0818758   -7.3911694  
H   -2.9590929    1.9284665   -6.2090843  
H    0.2361354   -0.0563403   -8.4296298  
H    2.4922209   -2.8167589   -4.7070387  
C    1.1319248    0.0015675   -0.8009270  
C    0.7969916    0.0034959   -2.1169404  
C   -0.6453336    0.0035703   -2.1842672  
C   -1.1266831    0.0015415   -0.7896027  
N    0.0000000    0.0000000    0.0000000  
C   -2.4346129    0.0013924   -0.4276297  
C   -3.4350110    0.0031352   -1.4820184  
O   -4.6384610    0.0030897   -1.2583919  
C   -2.9478958    0.0050460   -2.9661075  
O   -3.7809377    0.0062160   -3.8623775  
C   -1.5113821    0.0053068   -3.2312125  
H    1.4821240    0.0045436   -2.9459192  
H   -2.7664565    0.0000185    0.6013447  
H    2.1104318    0.0009428   -0.3488058  
C    0.8175213    0.6860729    2.3021913  
C    0.0000000    0.0000000    1.4700000  
C   -0.8887526   -0.7456559    2.3478473  
C   -0.4549825   -0.3816753    3.7138435  
N    0.5448156    0.4573574    3.6934124  
C   -1.0945674   -0.9182058    4.8835240  
C   -2.1210866   -1.7789155    4.6970523  
O   -2.8083856   -2.3554314    5.6976972  
C   -2.5824069   -2.1655116    3.3310774  
O   -3.5227682   -2.9541547    3.2362962  
C   -1.9100805   -1.6015804    2.1470656  
H   -0.7567140   -0.6349833    5.8697035  
H   -3.4728268   -2.9124471    5.2533954  
H   -2.2742832   -1.9066565    1.1752040  
H    1.6189533    1.3585343    2.0405121  
