62

C   -0.6668589    0.5611807   -9.1463363  
C    0.3312617   -0.2784097   -9.5837269  
C    0.2997448   -0.2552713  -11.0095850  
C   -0.7470462    0.6236720  -11.3885485  
N   -1.3145091    1.1005724  -10.2330530  
C   -1.0657828    0.8888305  -12.7237963  
C   -0.3138996    0.2553926  -13.6941597  
O   -0.5823392    0.4787909  -15.0136474  
C    0.7343598   -0.6253107  -13.3359270  
O    1.3896145   -1.1782303  -14.4167899  
C    1.0491821   -0.8875737  -12.0188724  
H    0.9991166   -0.8394698   -8.9527163  
H   -2.0756942    1.7536017  -10.1868917  
H   -1.8624765    1.5575760  -13.0191984  
H    0.0493982   -0.0532986  -15.5147003  
H    2.0819378   -1.7596857  -14.0878493  
H    1.8575228   -1.5670050  -11.7750771  
C    0.8518586   -0.7041561   -5.2251424  
C    0.0139741    0.0003876   -4.4216236  
C   -0.8729884    0.7427327   -5.2859483  
C   -0.4803614    0.4105161   -6.6687954  
N    0.5709018   -0.4706747   -6.5627862  
C   -1.0793689    0.9102631   -7.7792674  
C   -2.1843875    1.8373739   -7.6005638  
O   -2.7886785    2.3420361   -8.5378202  
C   -2.6168944    2.2035194   -6.1449952  
O   -3.5457346    2.9832465   -5.9820787  
C   -1.8948201    1.6002141   -5.0276394  
H   -2.2006129    1.8587644   -4.0229673  
H    1.6510907   -1.3741286   -4.9526460  
H    1.0576099   -0.8824762   -7.3377577  
C    3.2798085    0.0005853   -1.4499648  
C    2.5571144    0.0005562   -2.5996554  
C    1.1637436    0.0001546   -2.2210360  
C    1.1336965   -0.0000201   -0.7459470  
N    2.4483513   -0.0001430   -0.3402717  
C    0.0000000    0.0000000    0.0000000  
C   -1.2757367   -0.0000188   -0.6964414  
O   -2.3524597   -0.0000640   -0.1142313  
C   -1.2676494   -0.0000875   -2.2584081  
O   -2.3355762   -0.0004102   -2.8557294  
C    0.0181562    0.0001757   -2.9516296  
H    2.9547357    0.0006072   -3.5989105  
H    4.3498550    0.0008609   -1.3200021  
H    2.7563627    0.0012824    0.6148063  
C    0.0000000    0.0000000    1.4700000  
C    1.0521667    0.0011902    2.3562342  
C    0.4917218    0.0011957    3.6679131  
C   -0.9187428   -0.0003148    3.5178682  
N   -1.1833171    0.0009411    2.1707914  
C   -1.7951701   -0.0010350    4.6072090  
C   -1.2375837   -0.0005224    5.8710424  
O   -2.0474215   -0.0015360    6.9697579  
C    0.1673580    0.0013566    6.0411963  
O    0.5673524    0.0020687    7.3615553  
C    1.0325770    0.0023412    4.9669890  
H    2.0953057    0.0030649    2.0900562  
H   -2.0989778   -0.0102372    1.7591824  
H   -2.8710934   -0.0020419    4.4995513  
H   -1.4634884   -0.0006497    7.7393593  
H    1.5290710    0.0033153    7.3880045  
H    2.1042148    0.0039609    5.1284455  
