60

C    7.6033473   -3.2446056   -6.7605854  
C    7.0850020   -1.9921905   -6.5255490  
C    7.6316520   -1.1228305   -7.5154908  
C    8.4837271   -1.9077015   -8.3339483  
N    8.4450568   -3.1906088   -7.8468451  
C    9.1923950   -1.3768016   -9.4159488  
C    9.0378499   -0.0290894   -9.6766521  
O    9.7063568    0.5407628  -10.7213440  
C    8.1925331    0.7706109   -8.8712117  
O    8.1445708    2.0938290   -9.2586861  
C    7.4933211    0.2475924   -7.8034663  
H    8.9428036   -3.9728590   -8.2319595  
H    9.8435107   -1.9696271  -10.0434888  
H    9.4609110    1.4751096  -10.7254833  
H    7.5522693    2.5636974   -8.6637017  
H    6.8534826    0.8848896   -7.2043531  
H    7.4403577   -4.1718395   -6.2384452  
C    6.1837012   -2.1071894   -4.1730104  
C    6.1473624   -1.6429265   -5.4486332  
C    5.0179318   -0.7478965   -5.5388751  
C    4.3948024   -0.7286185   -4.2016663  
N    5.1487785   -1.5734154   -3.4201754  
C    3.2973506   -0.0000934   -3.8752374  
C    2.6891816    0.8195677   -4.9100425  
O    1.6983690    1.5114229   -4.7152918  
C    3.3322638    0.8142072   -6.3334969  
O    2.8288283    1.5001138   -7.2128972  
C    4.5147645   -0.0118351   -6.5641428  
H    4.9540960   -0.0098155   -7.5524281  
H    6.8793285   -2.7945271   -3.7196252  
H    4.9752873   -1.7701683   -2.4515493  
C    3.3321174    0.0004714   -1.3379332  
C    2.6974186    0.0000115   -2.5332308  
C    1.2800441   -0.0002119   -2.2052838  
C    1.2395035    0.0000643   -0.7271293  
N    2.4394063    0.0005458   -0.2131034  
C    0.0000000    0.0000000    0.0000000  
C   -1.1468701    0.0000634   -0.7169542  
O   -2.3742201    0.0000072   -0.1695492  
C   -1.1388767    0.0001606   -2.2096354  
O   -2.2206229    0.0000903   -2.7970413  
C    0.1454526    0.0001815   -2.9324239  
H   -2.9844344    0.0001023   -0.9290168  
H    0.1083580    0.0003680   -4.0135594  
H    4.3940040    0.0007617   -1.1498630  
C    2.5528530    2.1414826    2.8079335  
C    2.0663498    1.7338582    4.0032312  
C    0.9804344    0.8229586    3.6752840  
C    0.9495562    0.7966882    2.1971295  
N    1.8690446    1.5676019    1.6831036  
C    0.0000000    0.0000000    1.4700000  
C   -0.8785127   -0.7372425    2.1869543  
O   -1.8187535   -1.5261249    1.6395491  
C   -0.8723269   -0.7321790    3.6796354  
O   -1.7010379   -1.4274584    4.2670412  
C    0.1115397    0.0933559    4.4024240  
H    2.4028853    2.0163452    4.9860947  
H   -2.2861435   -1.9184361    2.3990168  
H    0.0832434    0.0693689    5.4835595  
H    3.3664920    2.8238276    2.6198634  
