62

C    1.7828215   -2.4088858   -7.7320122  
C    2.4204232   -2.6176568   -8.9329892  
C    2.3662238   -1.3872650   -9.6525712  
C    1.6778384   -0.4560490   -8.8334930  
N    1.3359187   -1.1094843   -7.6755939  
C    1.4395007    0.8646371   -9.2256306  
C    1.9048219    1.2524144  -10.4671150  
O    1.6996669    2.5306758  -10.8995173  
C    2.5935051    0.3377279  -11.2989090  
O    2.9933439    0.8754399  -12.5048690  
C    2.8287504   -0.9653903  -10.9128150  
H    2.8684105   -3.5432443   -9.2517212  
H    0.9153543    1.5792080   -8.6060663  
H    2.0978600    2.5890528  -11.7777539  
H    3.4503662    0.1928302  -13.0056469  
H    3.3589686   -1.6432577  -11.5714826  
H    1.6102231   -3.0844634   -6.9117910  
C    0.8798788   -0.7257936   -5.2251222  
C    0.6207792   -0.5088624   -6.5403725  
C   -0.4843409    0.4181989   -6.6044216  
C   -0.8504422    0.7258112   -5.2086653  
N    0.0139741    0.0003876   -4.4216236  
C   -1.8515231    1.5662620   -4.8437219  
C   -2.6198153    2.2107133   -5.8958360  
O   -3.5411802    2.9841135   -5.6694758  
C   -2.2496271    1.8993178   -7.3810295  
O   -2.8896250    2.4357467   -8.2754048  
C   -1.1496898    0.9762966   -7.6493977  
H   -2.1037065    1.7783400   -3.8139954  
H   -0.8995642    0.7661493   -8.6804157  
H    1.6304051   -1.3552318   -4.7752251  
C    3.2798085    0.0005853   -1.4499648  
C    2.5571144    0.0005562   -2.5996554  
C    1.1637436    0.0001546   -2.2210360  
C    1.1336965   -0.0000201   -0.7459470  
N    2.4483513   -0.0001430   -0.3402717  
C    0.0000000    0.0000000    0.0000000  
C   -1.2757367   -0.0000188   -0.6964414  
O   -2.3524597   -0.0000640   -0.1142313  
C   -1.2676494   -0.0000875   -2.2584081  
O   -2.3355762   -0.0004102   -2.8557294  
C    0.0181562    0.0001757   -2.9516296  
H    2.9547357    0.0006072   -3.5989105  
H    4.3498550    0.0008609   -1.3200021  
H    2.7563627    0.0012824    0.6148063  
C    0.8676693    0.7151171    2.2619005  
C    0.5875920    0.4624972    3.5848544  
C   -0.5048400   -0.4542819    3.6114698  
C   -0.8517165   -0.7276451    2.2635546  
N    0.0000000    0.0000000    1.4700000  
C   -1.8902865   -1.5946756    1.9108239  
C   -2.5912627   -2.1969500    2.9375057  
O   -3.6148162   -3.0527051    2.6493466  
C   -2.2603868   -1.9365747    4.2886322  
O   -3.0513550   -2.6123276    5.1947621  
C   -1.2361111   -1.0811317    4.6373480  
H    1.1060808    0.8876438    4.4271209  
H   -2.1597133   -1.8070987    0.8854031  
H   -3.9636755   -3.3565188    3.4974381  
H   -2.7621927   -2.3810384    6.0827341  
H   -1.0058879   -0.9010589    5.6809233  
H    1.6167816    1.3499334    1.8205408  
