60

C    5.7554223   -0.0170914   -2.0504792  
C    6.9923547   -0.0274544   -1.4485178  
C    6.7698532   -0.0170657   -0.0396229  
C    5.3656236   -0.0006277    0.1598689  
N    4.7795897    0.0008677   -1.0815734  
C    4.7823655    0.0126087    1.4304684  
C    5.6321446    0.0088818    2.5195224  
O    5.1157366    0.0209829    3.7829268  
C    7.0359426   -0.0070683    2.3408776  
O    7.7467592   -0.0084166    3.5232821  
C    7.6120393   -0.0198591    1.0876918  
H    7.9386302   -0.0397482   -1.9617473  
H    3.7128637    0.0253093    1.5892348  
H    5.8701611    0.0161160    4.3863208  
H    8.6856723   -0.0195880    3.3137053  
H    8.6905542   -0.0317639    0.9821341  
H    5.4920675   -0.0196439   -3.0943167  
C    3.3321166    0.0004717   -1.3379342  
C    2.6974176    0.0000121   -2.5332317  
C    1.2800432   -0.0002115   -2.2052842  
C    1.2395033    0.0000645   -0.7271297  
N    2.4394059    0.0005461   -0.2131042  
C    0.0000000    0.0000000    0.0000000  
C   -1.1468704    0.0000636   -0.7169540  
O   -2.3742206    0.0000073   -0.1695488  
C   -1.1388774    0.0001610   -2.2096351  
O   -2.2206238    0.0000908   -2.7970408  
C    0.1454514    0.0001820   -2.9324241  
H    3.1367977   -0.0000646   -3.5160953  
H   -2.9844351    0.0001027   -0.9290163  
C    0.0950440    0.0004357   -4.4015596  
C    1.1321301    0.0004168   -5.2710603  
C    0.5164635    0.0007459   -6.5891857  
C   -0.9377784    0.0008260   -6.3212966  
N   -1.1909063    0.0007257   -5.0407053  
C   -1.9068844    0.0011813   -7.3823906  
C   -1.4442351    0.0018335   -8.6533313  
O   -2.2350211    0.0022179   -9.7399308  
C    0.0174440    0.0021426   -8.9560765  
O    0.3669293    0.0026149  -10.1363649  
C    0.9916303    0.0017243   -7.8502353  
H    2.1849019    0.0002958   -5.0457877  
H   -2.9634810    0.0010256   -7.1576391  
H   -1.6191332    0.0026809  -10.4948046  
H    2.0413888    0.0020825   -8.1114568  
C    2.5528530    2.1414826    2.8079335  
C    2.0663498    1.7338582    4.0032312  
C    0.9804344    0.8229586    3.6752840  
C    0.9495562    0.7966882    2.1971295  
N    1.8690446    1.5676019    1.6831036  
C    0.0000000    0.0000000    1.4700000  
C   -0.8785127   -0.7372425    2.1869543  
O   -1.8187535   -1.5261249    1.6395491  
C   -0.8723269   -0.7321790    3.6796354  
O   -1.7010379   -1.4274584    4.2670412  
C    0.1115397    0.0933559    4.4024240  
H    2.4028853    2.0163452    4.9860947  
H   -2.2861435   -1.9184361    2.3990168  
H    0.0832434    0.0693689    5.4835595  
H    3.3664920    2.8238276    2.6198634  
