62

C    5.1369745   -1.0914971   -7.1726279  
C    5.9350179   -0.7178287   -8.2290219  
C    5.7526687    0.6848726   -8.4128080  
C    4.8243320    1.1160833   -7.4308836  
N    4.4691981    0.0122484   -6.6960052  
C    4.4085691    2.4459778   -7.3155102  
C    4.9398618    3.3572217   -8.2074410  
O    4.5685132    4.6688809   -8.1391522  
C    5.8671037    2.9462179   -9.1944143  
O    6.3043881    3.9713914  -10.0075210  
C    6.2775076    1.6343615   -9.3089885  
H    6.5695942   -1.3755669   -8.7979569  
H    3.7012378    2.7809906   -6.5694195  
H    5.0491149    5.1256548   -8.8417506  
H    6.9268639    3.6092102  -10.6454503  
H    6.9889507    1.3492693  -10.0751785  
H    4.9901851   -2.0582730   -6.7223438  
C    4.5546440   -2.0975051   -2.8456837  
C    3.3966020   -1.6333854   -2.3093944  
C    2.8128209   -0.7373022   -3.2794820  
C    3.7322614   -0.7172951   -4.4331801  
N    4.7679905   -1.5620816   -4.1068518  
C    3.5352976    0.0116908   -5.5607836  
C    2.3379419    0.8314596   -5.6435733  
O    2.0707015    1.5238118   -6.6169859  
C    1.3504337    0.8257212   -4.4333667  
O    0.3391714    1.5121846   -4.4914818  
C    1.6707636   -0.0012343   -3.2725974  
H    2.9970334   -1.8893868   -1.3442924  
H    5.2702680   -2.7854719   -2.4255961  
H    5.5563150   -1.7607949   -4.6951584  
C    1.0965514    0.0001358   -0.8010306  
C    0.0000000    0.0000000    0.0000000  
C   -1.1546565    0.0001470   -0.8669508  
C   -0.6372019    0.0003520   -2.2486278  
N    0.7342867    0.0007338   -2.1395012  
C   -1.4147744    0.0001354   -3.3608712  
C   -2.8576052   -0.0001047   -3.1854454  
O   -3.6427785   -0.0002490   -4.1244896  
C   -3.4275841   -0.0000727   -1.7311660  
O   -4.6406832    0.0000333   -1.5710049  
C   -2.4891868   -0.0001090   -0.6116739  
H   -1.0150456    0.0001617   -4.3654239  
H   -2.8919122   -0.0002919    0.3920871  
H    2.1388270    0.0000663   -0.5261650  
C    0.8576279    0.7185626    2.2703808  
C    0.0000000    0.0000000    1.4700000  
C   -0.8668858   -0.7285659    2.3373528  
C   -0.4876752   -0.4117774    3.6669281  
N    0.5635254    0.4678311    3.5902241  
C   -1.1297612   -0.9515493    4.7854808  
C   -2.1738724   -1.8268314    4.5576857  
O   -2.8357962   -2.3827064    5.6140350  
C   -2.5667212   -2.1555554    3.2384331  
O   -3.6226318   -3.0413663    3.1773122  
C   -1.9335634   -1.6236449    2.1344818  
H    1.0363952    0.8769718    4.3757045  
H   -0.8454472   -0.7142436    5.8013813  
H   -3.5178062   -2.9546422    5.2385129  
H   -3.8247440   -3.2102924    2.2519915  
H   -2.2566033   -1.8942483    1.1360343  
H    1.6567807    1.3889844    2.0042067  
