64

C    6.9446007    2.1278529   -5.0830071  
C    7.8715342    1.6302271   -5.9693646  
C    8.7242587    0.7556292   -5.2327912  
C    8.2650229    0.7593079   -3.8907724  
N    7.1845039    1.6042289   -3.8341620  
C    8.8722118    0.0058682   -2.8815952  
C    9.9626782   -0.7655692   -3.2336540  
O   10.5930556   -1.5209265   -2.2875704  
C   10.4359614   -0.7821756   -4.5672752  
O   11.5306490   -1.5997661   -4.7584532  
C    9.8376121   -0.0389303   -5.5633118  
H    7.9270241    1.8691567   -7.0176140  
H    6.6430562    1.7996371   -3.0115862  
H   11.3172299   -1.9744671   -2.7382775  
H   11.7866630   -1.5536205   -5.6846992  
H   10.2226268   -0.0716971   -6.5758169  
H    6.1321980    2.8159749   -5.2425310  
C    4.7795901    0.0008674   -1.0815733  
C    5.8357356    0.0020685   -1.9630619  
C    7.0295751    0.0025484   -1.1824551  
C    6.6358520    0.0013023    0.1802287  
N    5.2632774    0.0022529    0.2058246  
C    7.5556549    0.0010648    1.2332011  
C    8.8973613    0.0017971    0.9045656  
O    9.8380076    0.0012544    1.8936035  
C    9.3099221    0.0034181   -0.4491731  
O   10.6798047    0.0043993   -0.6127738  
C    8.4030660    0.0039266   -1.4884698  
H    5.7555549    0.0036461   -3.0366361  
H    4.6982920   -0.0088382    1.0356739  
H    7.2620116    0.0002617    2.2738619  
H   10.6976507    0.0022212    1.4528337  
H   10.8735674    0.0054449   -1.5551424  
C    3.3321168    0.0004716   -1.3379341  
C    2.6974177    0.0000118   -2.5332316  
C    1.2800432   -0.0002116   -2.2052842  
C    1.2395033    0.0000644   -0.7271298  
N    2.4394059    0.0005460   -0.2131041  
C    0.0000000    0.0000000    0.0000000  
C   -1.1468704    0.0000635   -0.7169542  
O   -2.3742206    0.0000074   -0.1695488  
C   -1.1388774    0.0001608   -2.2096352  
O   -2.2206238    0.0000906   -2.7970409  
C    0.1454514    0.0001818   -2.9324241  
H    3.1367978   -0.0000649   -3.5160956  
H   -2.9844350    0.0001027   -0.9290164  
H    0.1083567    0.0003684   -4.0135594  
C    0.8576279    0.7185626    2.2703808  
C    0.0000000    0.0000000    1.4700000  
C   -0.8668858   -0.7285659    2.3373528  
C   -0.4876752   -0.4117774    3.6669281  
N    0.5635254    0.4678311    3.5902241  
C   -1.1297612   -0.9515493    4.7854808  
C   -2.1738724   -1.8268314    4.5576857  
O   -2.8357962   -2.3827064    5.6140350  
C   -2.5667212   -2.1555554    3.2384331  
O   -3.6226318   -3.0413663    3.1773122  
C   -1.9335634   -1.6236449    2.1344818  
H    1.0363952    0.8769718    4.3757045  
H   -0.8454472   -0.7142436    5.8013813  
H   -3.5178062   -2.9546422    5.2385129  
H   -3.8247440   -3.2102924    2.2519915  
H   -2.2566033   -1.8942483    1.1360343  
H    1.6567807    1.3889844    2.0042067  
