60

C    0.0139748    0.0003878   -4.4216235  
C    1.0636167    0.0005122   -5.3108477  
C    0.4994429    0.0000636   -6.6209271  
C   -0.9105895   -0.0000385   -6.4668698  
N   -1.1713294   -0.0017871   -5.1190459  
C   -1.7901128   -0.0001499   -7.5537132  
C   -1.2361239    0.0001487   -8.8191271  
O   -2.0490844    0.0004072   -9.9155342  
C    0.1683294   -0.0001210   -8.9932775  
O    0.5645665   -0.0001916  -10.3147688  
C    1.0366014   -0.0002845   -7.9215365  
H    2.1075102   -0.0002242   -5.0476380  
H   -2.0858272    0.0082990   -4.7048324  
H   -2.8657257   -0.0003722   -7.4429955  
H   -1.4673427    0.0002905  -10.6867940  
H    1.5262067   -0.0003495  -10.3439542  
H    2.1077765   -0.0006721   -8.0860403  
C    3.2798089    0.0005856   -1.4499642  
C    2.5571149    0.0005566   -2.5996548  
C    1.1637440    0.0001548   -2.2210358  
C    1.1336966   -0.0000200   -0.7459468  
N    2.4483517   -0.0001428   -0.3402714  
C    0.0000000    0.0000000    0.0000000  
C   -1.2757362   -0.0000187   -0.6964415  
O   -2.3524596   -0.0000640   -0.1142317  
C   -1.2676489   -0.0000874   -2.2584083  
O   -2.3355758   -0.0004101   -2.8557300  
C    0.0181567    0.0001759   -2.9516296  
H    2.9547363    0.0006074   -3.5989101  
H    2.7563627    0.0012824    0.6148067  
C    6.5739163    0.0018722   -4.3537884  
C    7.6280851    0.0019471   -3.4977492  
C    7.0842303    0.0017738   -2.1601927  
C    5.6162794    0.0015612   -2.3082153  
N    5.3720702    0.0020316   -3.6621915  
C    4.7390854    0.0009614   -1.2727274  
C    5.2766319    0.0007201    0.0776721  
O    4.5688490    0.0002471    1.0763436  
C    6.8281786    0.0011908    0.2579689  
O    7.2923835    0.0012996    1.3901237  
C    7.6713717    0.0015461   -0.9348754  
H    8.6679915    0.0022880   -3.7719902  
H    8.7446443    0.0016656   -0.8014213  
H    6.5739161    0.0019308   -5.4316983  
H    4.4610968    0.0004680   -4.0831091  
C    2.5528530    2.1414826    2.8079335  
C    2.0663498    1.7338582    4.0032312  
C    0.9804344    0.8229586    3.6752840  
C    0.9495562    0.7966882    2.1971295  
N    1.8690446    1.5676019    1.6831036  
C    0.0000000    0.0000000    1.4700000  
C   -0.8785127   -0.7372425    2.1869543  
O   -1.8187535   -1.5261249    1.6395491  
C   -0.8723269   -0.7321790    3.6796354  
O   -1.7010379   -1.4274584    4.2670412  
C    0.1115397    0.0933559    4.4024240  
H    2.4028853    2.0163452    4.9860947  
H   -2.2861435   -1.9184361    2.3990168  
H    0.0832434    0.0693689    5.4835595  
H    3.3664920    2.8238276    2.6198634  
