60

C    5.1415134   -2.9525226   -7.0136616  
C    6.1565001   -2.5172444   -7.8339064  
C    5.9471885   -1.1231569   -8.0514103  
C    4.7795300   -0.7604438   -7.3324271  
N    4.3143870   -1.8950806   -6.7152895  
C    4.2737533    0.5429397   -7.3193633  
C    4.9593807    1.4976206   -8.0450889  
O    4.5093607    2.7860446   -8.0665172  
C    6.1261072    1.1551165   -8.7691459  
O    6.6946939    2.2170583   -9.4417019  
C    6.6254865   -0.1305597   -8.7827026  
H    6.9495138   -3.1294666   -8.2279962  
H    3.5036190   -1.9439075   -6.1251597  
H    5.1241826    3.2807759   -8.6237423  
H    7.4766295    1.9005458   -9.9043023  
H    7.5212068   -0.3629779   -9.3467452  
H    4.9413290   -3.9339164   -6.6190097  
C    2.8937202   -0.6810877   -3.3716097  
C    1.7334695    0.0049281   -3.2500363  
C    1.6077152    0.7522586   -4.4918828  
C    2.8122600    0.3892091   -5.2689615  
N    3.5698266   -0.4507651   -4.6174054  
C    3.0644636    0.9274691   -6.5773021  
C    2.1544923    1.7889433   -7.0863685  
O    2.2622353    2.3670678   -8.2947574  
C    0.9287272    2.1746337   -6.3268272  
O    0.1435732    2.9640514   -6.8517783  
C    0.6926284    1.6089291   -4.9866179  
H    1.4670782    2.9242634   -8.3748263  
H   -0.2072109    1.9133942   -4.4691038  
H    3.3447091   -1.3545428   -2.6602446  
C    1.1319246    0.0015678   -0.8009268  
C    0.7969914    0.0034958   -2.1169401  
C   -0.6453340    0.0035696   -2.1842669  
C   -1.1266832    0.0015410   -0.7896025  
N    0.0000000    0.0000000    0.0000000  
C   -2.4346129    0.0013913   -0.4276292  
C   -3.4350111    0.0031335   -1.4820181  
O   -4.6384614    0.0030875   -1.2583914  
C   -2.9478961    0.0050442   -2.9661074  
O   -3.7809382    0.0062135   -3.8623773  
C   -1.5113825    0.0053055   -3.2312122  
H   -2.7664565    0.0000174    0.6013448  
H   -1.1823533    0.0068381   -4.2614848  
H    2.1104316    0.0009435   -0.3488059  
C    2.5128556    2.1077716    2.9199648  
C    1.9592212    1.6432552    4.0696553  
C    0.8915788    0.7479214    3.6910360  
C    0.8684491    0.7287414    2.2159470  
N    1.8754542    1.5738793    1.8102719  
C    0.0000000    0.0000000    1.4700000  
C   -0.9772830   -0.8200135    2.1664417  
O   -1.8021297   -1.5120829    1.5842315  
C   -0.9711318   -0.8147624    3.7284083  
O   -1.7894187   -1.5009653    4.3257297  
C    0.0140216    0.0115358    4.4216297  
H    2.2638494    1.8988021    5.0689105  
H    0.0117648    0.0094386    5.5031631  
H    3.3327358    2.7953732    2.7900019  
H    2.1123206    1.7707734    0.8551938  
