62

C    3.3003545    0.0005278   -1.4738982  
C    2.5232817    0.0003499   -2.6090743  
C    1.1623204   -0.0001317   -2.1820100  
C    1.1711892    0.0000584   -0.7636137  
N    2.4852303   -0.0014918   -0.3662354  
C    0.0000000    0.0000000    0.0000000  
C   -1.2020389    0.0000521   -0.6806480  
O   -2.3759245    0.0003494    0.0157744  
C   -1.2314649   -0.0005110   -2.0955509  
O   -2.5054384   -0.0008035   -2.6250181  
C   -0.0764514   -0.0007270   -2.8495195  
H    2.8919960   -0.0005616   -3.6205298  
H    2.8036263    0.0088182    0.5858667  
H   -3.0835641    0.0000348   -0.6418821  
H   -2.4360050   -0.0011525   -3.5845924  
H   -0.1304086   -0.0013418   -3.9319086  
C    6.7690613    0.0009409   -4.2725614  
C    5.4996713    0.0003253   -3.8032773  
C    5.6352800    0.0001668   -2.3547915  
C    7.0947606    0.0006471   -2.1170956  
N    7.7645150    0.0011828   -3.2375502  
C    7.6497403    0.0007000   -0.7915448  
C    6.7859642    0.0006807    0.2492365  
O    7.1644555    0.0007169    1.5387270  
C    5.3077383    0.0005722    0.0418547  
O    4.5810512    0.0004363    1.0354074  
C    4.7630507    0.0004758   -1.3275395  
H    4.5843347    0.0001073   -4.3700522  
H    6.3302582    0.0007162    2.0419847  
H    7.0973396    0.0012426   -5.2997937  
C    9.1065570    0.0009025   -0.5951154  
C   10.0749940    0.0010127   -1.5404776  
C   11.3252718    0.0011883   -0.7966327  
C   10.9139245    0.0012701    0.6237114  
N    9.6144930    0.0010225    0.7480811  
C   11.8732574    0.0014003    1.6936485  
C   13.1839463    0.0010580    1.3598376  
O   14.1864131    0.0011371    2.2548803  
C   13.6307185    0.0005964   -0.0644360  
O   14.8399383    0.0004253   -0.2946709  
C   12.6273646    0.0005147   -1.1438836  
H    9.9556590    0.0008888   -2.6104473  
H   11.5444240    0.0016645    2.7226179  
H   14.9988563    0.0008010    1.7172107  
H   12.9918061    0.0000603   -2.1624178  
C    2.5285572    2.1210227    2.9438989  
C    1.9331703    1.6216660    4.0790748  
C    0.8903039    0.7472258    3.6520102  
C    0.8972198    0.7527806    2.2336141  
N    1.9028376    1.5986179    1.8362361  
C    0.0000000    0.0000000    1.4700000  
C   -0.9207814   -0.7726952    2.1506477  
O   -1.8198395   -1.5274828    1.4542253  
C   -0.9436862   -0.7911793    3.5655508  
O   -1.9197945   -1.6098497    4.0950179  
C   -0.0590329   -0.0485852    4.3195194  
H    2.2150357    1.8593692    5.0905303  
H    2.1533708    1.7953814    0.8841339  
H   -2.3621246   -1.9821033    2.1118817  
H   -1.8668290   -1.5649508    5.0545920  
H   -0.1007624   -0.0827977    5.4019087  
H    3.3491200    2.8096064    2.8367138  
