60

C    5.2055107   -3.2429994   -9.5350851  
C    4.7316264   -2.5346729   -8.4551893  
C    4.6118089   -1.1749631   -8.8692349  
C    5.0301878   -1.1137613  -10.2231693  
N    5.3857939   -2.3863079  -10.5957108  
C    5.0431815    0.0758243  -10.9576799  
C    4.6259405    1.2245000  -10.3137609  
O    4.6183613    2.4133637  -10.9842529  
C    4.2052253    1.1837559   -8.9631482  
O    3.8197564    2.4106988   -8.4637800  
C    4.1924027    0.0106017   -8.2378397  
H    4.5017476   -2.9470467   -7.4876685  
H    5.7135066   -2.6542971  -11.5060762  
H    5.3610424    0.1291554  -11.9898244  
H    4.2975192    3.0769744  -10.3597962  
H    3.5505459    2.2951405   -7.5473878  
H    5.4305312   -4.2912771   -9.6322421  
C    5.7052416   -2.0986835   -4.6958674  
C    4.8302129   -1.6343311   -3.7670098  
C    3.9272652   -0.7382853   -4.4501079  
C    4.3509923   -0.7185539   -5.8632095  
N    5.4336789   -1.5634481   -5.9458739  
C    3.7483772    0.0103194   -6.8365046  
C    2.6063701    0.8302494   -6.4676276  
O    1.9959442    1.5225184   -7.2716460  
C    2.1405133    0.8248035   -4.9767380  
O    1.1803934    1.5114044   -4.6542327  
C    2.8699641   -0.0020530   -4.0185824  
H    4.8187250   -1.8901547   -2.7224829  
H    6.5257690   -2.7867004   -4.5723455  
H    5.9462312   -1.7623475   -6.7853834  
C    3.2573670   -0.0002921   -1.5109382  
C    2.5379468   -0.0001711   -0.3591962  
C    1.1435043    0.0000330   -0.7338498  
C    1.1092608   -0.0000085   -2.2088474  
N    2.4227562    0.0001906   -2.6182610  
C   -0.0265533   -0.0002525   -2.9515663  
C   -1.3003033   -0.0002641   -2.2514979  
O   -2.3786785   -0.0004132   -2.8306425  
C   -1.2877724    0.0000310   -0.6895608  
O   -2.3539956    0.0003306   -0.0892035  
C    0.0000000    0.0000000    0.0000000  
H    2.9384091   -0.0000370    0.6389240  
H   -0.0296290   -0.0004088   -4.0327231  
H    4.3270394   -0.0004767   -1.6439445  
C    2.4951002    2.0940188    2.9809380  
C    1.9440701    1.6314916    1.8291961  
C    0.8759964    0.7350050    2.2038498  
C    0.8497377    0.7130254    3.6788474  
N    1.8560616    1.5571714    4.0882609  
C   -0.0205033   -0.0168748    4.4215661  
C   -0.9962600   -0.8356168    3.7214979  
O   -1.8224391   -1.5286685    4.3006425  
C   -0.9864710   -0.8277881    2.1595606  
O   -1.8030528   -1.5133726    1.5592035  
C    0.0000000    0.0000000    1.4700000  
H    2.2509283    1.8888011    0.8310761  
H   -0.0229599   -0.0187323    5.5027230  
H    3.3143982    2.7817323    3.1139444  
H    2.0889452    1.7545833    5.0442112  
