60

C   10.0433621    0.7193962   -1.5607842  
C    9.1199938    0.0016837   -0.8363906  
C    9.8428919   -0.7259036    0.1548889  
C   11.2151267   -0.4094213   -0.0146299  
N   11.3018770    0.4690698   -1.0659839  
C   12.2209649   -0.9484346    0.7931714  
C   11.8344693   -1.8226287    1.7904598  
O   12.7757838   -2.3777281    2.6082645  
C   10.4703247   -2.1510307    1.9750608  
O   10.2466765   -3.0357290    3.0097750  
C    9.4775322   -1.6198688    1.1783453  
H   12.1510352    0.8777662   -1.4122176  
H   13.2686196   -0.7113571    0.6690180  
H   12.2993235   -2.9489691    3.2246521  
H    9.3012218   -3.2045074    3.0666398  
H    8.4411323   -1.8902014    1.3434911  
H    9.9039478    1.3889535   -2.3921779  
C    6.4690067    0.0019752   -4.4192259  
C    7.5790592    0.0025229   -3.6450414  
C    7.0826137    0.0021760   -2.2775470  
C    5.6103549    0.0015082   -2.4155218  
N    5.2447492    0.0013071   -3.6686472  
C    4.7390840    0.0009613   -1.2727298  
C    5.3125318    0.0006873   -0.0477839  
O    4.6211392    0.0001823    1.1046125  
C    6.7952873    0.0009744    0.1242520  
O    7.2479830    0.0008235    1.2689297  
C    7.6676529    0.0015791   -1.0635623  
H    8.6077291    0.0030015   -3.9627138  
H    5.3014942    0.0000718    1.8019434  
H    6.4103389    0.0020014   -5.4960416  
C    3.2798077    0.0005856   -1.4499661  
C    2.5571132    0.0005565   -2.5996564  
C    1.1637425    0.0001547   -2.2210366  
C    1.1336959   -0.0000200   -0.7459475  
N    2.4483509   -0.0001429   -0.3402730  
C    0.0000000    0.0000000    0.0000000  
C   -1.2757370   -0.0000187   -0.6964411  
O   -2.3524597   -0.0000640   -0.1142306  
C   -1.2676502   -0.0000874   -2.2584078  
O   -2.3355774   -0.0004102   -2.8557287  
C    0.0181551    0.0001758   -2.9516297  
H    2.9547342    0.0006074   -3.5989118  
H    0.0150776    0.0003317   -4.0331632  
H    2.7563626    0.0012823    0.6148051  
C    0.8175213    0.6860729    2.3021913  
C    0.0000000    0.0000000    1.4700000  
C   -0.8887526   -0.7456559    2.3478473  
C   -0.4549825   -0.3816753    3.7138435  
N    0.5448156    0.4573574    3.6934124  
C   -1.0945674   -0.9182058    4.8835240  
C   -2.1210866   -1.7789155    4.6970523  
O   -2.8083856   -2.3554314    5.6976972  
C   -2.5824069   -2.1655116    3.3310774  
O   -3.5227682   -2.9541547    3.2362962  
C   -1.9100805   -1.6015804    2.1470656  
H   -0.7567140   -0.6349833    5.8697035  
H   -3.4728268   -2.9124471    5.2533954  
H   -2.2742832   -1.9066565    1.1752040  
H    1.6189533    1.3585343    2.0405121  
