62

C    0.6784435   -0.7158674   -5.1604806  
C   -0.1387074    0.0017015   -4.3179686  
C   -1.0481455    0.7301998   -5.1406544  
C   -0.7354107    0.4143962   -6.4876478  
N    0.3188400   -0.4645854   -6.4638959  
C   -1.4327204    0.9543845   -7.5725265  
C   -2.4647268    1.8288738   -7.2925120  
O   -3.1787621    2.3849177   -8.3142675  
C   -2.7916047    2.1566101   -5.9551429  
O   -3.8437008    3.0417139   -5.8410033  
C   -2.1039437    1.6244857   -4.8843985  
H    0.7522634   -0.8729856   -7.2721870  
H   -1.1991951    0.7178275   -8.6014617  
H   -3.8415771    2.9562089   -7.9049176  
H   -3.9995943    3.2099938   -4.9066674  
H   -2.3770359    1.8943253   -3.8709463  
H    1.4902653   -1.3859286   -4.9348208  
C    3.3041276    0.0001179   -1.5420426  
C    2.5845373   -0.0004778   -0.3695850  
C    1.2040008   -0.0000007   -0.7283588  
C    1.1422377    0.0006038   -2.1454370  
N    2.4348643    0.0026110   -2.6077459  
C   -0.0655176    0.0008796   -2.8497919  
C   -1.2321760    0.0002323   -2.1101404  
O   -2.4392811    0.0001143   -2.7472523  
C   -1.1911205   -0.0000006   -0.6955268  
O   -2.4371526   -0.0002322   -0.1032865  
C    0.0000000    0.0000000    0.0000000  
H    3.0031533   -0.0000657    0.6222587  
H    2.7054636   -0.0071097   -3.5745259  
H   -3.1132988   -0.0000651   -2.0551790  
H   -2.3200280   -0.0004074    0.8516406  
C    6.7370865   -0.0041878    1.2348630  
C    5.4910175   -0.0033130    0.6950609  
C    5.6537436   -0.0009467   -0.7396342  
C    7.1071784   -0.0005407   -0.9932430  
N    7.7077100   -0.0021732    0.2445975  
C    7.6723927    0.0010941   -2.2270317  
C    6.7903718    0.0027773   -3.3822684  
O    7.2023948    0.0043780   -4.5348892  
C    5.2477327    0.0026337   -3.1371769  
O    4.4952278    0.0043480   -4.1020571  
C    4.7577225    0.0005133   -1.7610455  
H    4.5636984   -0.0040394    1.2397554  
H    8.7410254    0.0012333   -2.3911459  
H    7.0279700   -0.0059179    2.2727808  
H    8.6984750   -0.0038990    0.4040619  
C    0.0000000    0.0000000    1.4700000  
C    1.0541688    0.0001722    2.3260392  
C    0.5103138    0.0000454    3.6635956  
C   -0.9576371   -0.0002459    3.5155732  
N   -1.2018458    0.0001392    2.1615969  
C   -1.8348311   -0.0008317    4.5510609  
C   -1.2972847   -0.0009736    5.9014604  
O   -2.0050672   -0.0014265    6.9001319  
C    0.2542623   -0.0004184    6.0817573  
O    0.7184670   -0.0002256    7.2139121  
C    1.0974552   -0.0000873    4.8889129  
H    2.0940752    0.0005483    2.0517982  
H   -2.9081052   -0.0011668    4.4207061  
H    2.1707277    0.0000911    5.0223670  
H   -2.1128194   -0.0014912    1.7406791  
