60

C   10.8984199    2.1247666   -3.0360783  
C   11.9516662    1.6257188   -2.3052639  
C   11.3995563    0.7508567   -1.3232301  
C    9.9928511    0.7558472   -1.5051117  
N    9.7222348    1.6017687   -2.5519172  
C    9.1246828    0.0025454   -0.7091160  
C    9.6868405   -0.7701005    0.2884686  
O    8.8851243   -1.5253828    1.0945789  
C   11.0881124   -0.7880255    0.4857833  
O   11.4934372   -1.6067199    1.5196084  
C   11.9451625   -0.0449170   -0.2989340  
H   12.9900712    1.8638938   -2.4601238  
H    8.8082397    1.7982126   -2.9179803  
H    9.4710346   -1.9798717    1.7137830  
H   12.4521941   -1.5614255    1.5854605  
H   13.0141450   -0.0787077   -0.1239711  
H   10.8930115    2.8135053   -3.8634646  
C    6.6317365    0.0027576   -4.3241616  
C    5.4016570    0.0020952   -3.7488541  
C    5.6054515    0.0015082   -2.3194126  
C    7.0655606    0.0019148   -2.1075802  
N    7.6303538    0.0022712   -3.3621311  
C    7.6659168    0.0019587   -0.8905032  
C    6.8173813    0.0013543    0.2895486  
O    7.2622824    0.0012813    1.4298835  
C    5.2683493    0.0006643    0.0887879  
O    4.5438187   -0.0001547    1.0748485  
C    4.7390840    0.0009613   -1.2727298  
H    4.4591015    0.0018435   -4.2667371  
H    6.8927419    0.0033433   -5.3699943  
H    8.6161382    0.0041518   -3.5499387  
C    3.2798077    0.0005856   -1.4499661  
C    2.5571132    0.0005565   -2.5996564  
C    1.1637425    0.0001547   -2.2210366  
C    1.1336959   -0.0000200   -0.7459475  
N    2.4483509   -0.0001429   -0.3402730  
C    0.0000000    0.0000000    0.0000000  
C   -1.2757370   -0.0000187   -0.6964411  
O   -2.3524597   -0.0000640   -0.1142306  
C   -1.2676502   -0.0000874   -2.2584078  
O   -2.3355774   -0.0004102   -2.8557287  
C    0.0181551    0.0001758   -2.9516297  
H    2.9547342    0.0006074   -3.5989118  
H    0.0150776    0.0003317   -4.0331632  
H    2.7563626    0.0012823    0.6148051  
C    0.8175213    0.6860729    2.3021913  
C    0.0000000    0.0000000    1.4700000  
C   -0.8887526   -0.7456559    2.3478473  
C   -0.4549825   -0.3816753    3.7138435  
N    0.5448156    0.4573574    3.6934124  
C   -1.0945674   -0.9182058    4.8835240  
C   -2.1210866   -1.7789155    4.6970523  
O   -2.8083856   -2.3554314    5.6976972  
C   -2.5824069   -2.1655116    3.3310774  
O   -3.5227682   -2.9541547    3.2362962  
C   -1.9100805   -1.6015804    2.1470656  
H   -0.7567140   -0.6349833    5.8697035  
H   -3.4728268   -2.9124471    5.2533954  
H   -2.2742832   -1.9066565    1.1752040  
H    1.6189533    1.3585343    2.0405121  
