64

C    2.4895633   -0.0033584   -8.1446741  
C    3.5252385   -0.0058025   -7.2392253  
C    4.7366440   -0.0075859   -7.9922811  
C    4.3742386   -0.0058177   -9.3636251  
N    3.0026110   -0.0052168   -9.4206552  
C    5.3179200   -0.0065588  -10.3952533  
C    6.6517448   -0.0088249  -10.0359697  
O    7.6147997   -0.0092880  -11.0032025  
C    7.0331862   -0.0109890   -8.6731370  
O    8.3989600   -0.0135262   -8.4782001  
C    6.1027625   -0.0105326   -7.6548857  
H    3.4204855   -0.0073507   -6.1677695  
H    2.4567952    0.0065597  -10.2632271  
H    5.0481923   -0.0053647  -11.4423664  
H    8.4641197   -0.0112511  -10.5428581  
H    8.5710854   -0.0148445   -7.5316413  
H    6.4250140   -0.0124131   -6.6201740  
C    0.0139742    0.0003878   -4.4216236  
C    1.0636157   -0.0005661   -5.3108478  
C    0.4994414   -0.0004402   -6.6209270  
C   -0.9105909    0.0009033   -6.4668703  
N   -1.1713316   -0.0005741   -5.1190459  
C   -1.7901137    0.0016902   -7.5537126  
C   -1.2361251    0.0014174   -8.8191278  
O   -2.0490849    0.0025060   -9.9155342  
C    0.1683273   -0.0002924   -8.9932770  
O    0.5645639   -0.0007730  -10.3147689  
C    1.0365988   -0.0013428   -7.9215366  
H    2.1075080   -0.0023718   -5.0476387  
H   -2.0858187    0.0104504   -4.7048323  
H   -2.8657261    0.0025709   -7.4429946  
H   -1.4673440    0.0017907  -10.6867942  
H    1.5262034   -0.0019166  -10.3439552  
C    3.2798085    0.0005856   -1.4499646  
C    2.5571146    0.0005565   -2.5996553  
C    1.1637435    0.0001548   -2.2210360  
C    1.1336964   -0.0000200   -0.7459470  
N    2.4483515   -0.0001429   -0.3402716  
C    0.0000000    0.0000000    0.0000000  
C   -1.2757368   -0.0000187   -0.6964415  
O   -2.3524594   -0.0000640   -0.1142314  
C   -1.2676495   -0.0000873   -2.2584081  
O   -2.3355761   -0.0004101   -2.8557295  
C    0.0181563    0.0001759   -2.9516296  
H    2.9547358    0.0006075   -3.5989104  
H    4.3498547    0.0008611   -1.3200019  
H    2.7563628    0.0012823    0.6148064  
C    0.8676693    0.7151171    2.2619005  
C    0.5875920    0.4624972    3.5848544  
C   -0.5048400   -0.4542819    3.6114698  
C   -0.8517165   -0.7276451    2.2635546  
N    0.0000000    0.0000000    1.4700000  
C   -1.8902865   -1.5946756    1.9108239  
C   -2.5912627   -2.1969500    2.9375057  
O   -3.6148162   -3.0527051    2.6493466  
C   -2.2603868   -1.9365747    4.2886322  
O   -3.0513550   -2.6123276    5.1947621  
C   -1.2361111   -1.0811317    4.6373480  
H    1.1060808    0.8876438    4.4271209  
H   -2.1597133   -1.8070987    0.8854031  
H   -3.9636755   -3.3565188    3.4974381  
H   -2.7621927   -2.3810384    6.0827341  
H   -1.0058879   -0.9010589    5.6809233  
H    1.6167816    1.3499334    1.8205408  
