62

C    5.2419321   -4.6169930   -4.0247008  
C    4.4260400   -3.5102658   -3.9806187  
C    5.1244173   -2.4518592   -4.6337986  
C    6.3715307   -2.9765973   -5.0595733  
N    6.4112393   -4.2929881   -4.6720731  
C    7.3212555   -2.2101853   -5.7417939  
C    7.0061624   -0.8900856   -5.9991481  
O    7.8971987   -0.0968819   -6.6623944  
C    5.7671435   -0.3481832   -5.5820270  
O    5.6023692    0.9810880   -5.9125273  
C    4.8298539   -1.1036099   -4.9087170  
H    3.4483022   -3.4703736   -3.5318079  
H    7.1702597   -4.9266224   -4.8463573  
H    8.2736359   -2.6041437   -6.0688570  
H    7.4855216    0.7739726   -6.7358746  
H    4.7409129    1.2688619   -5.5952231  
H    5.0828852   -5.6114636   -3.6443182  
C    2.9127956   -0.7214779   -3.3153352  
C    3.5543791   -0.5031924   -4.4921093  
C    2.7457291    0.4250572   -5.2466114  
C    1.5720410    0.7318908   -4.4069096  
N    1.7334695    0.0049281   -3.2500363  
C    0.5691404    1.5730682   -4.7651218  
C    0.6510578    2.2191792   -6.0644931  
O   -0.2019695    2.9933388   -6.4784039  
C    1.8850606    1.9086321   -6.9703642  
O    1.9647734    2.4464582   -8.0665621  
C    2.9022242    0.9847028   -6.4747986  
H   -0.2829855    1.7845533   -4.1341978  
H    3.7535942    0.7751516   -7.1080294  
H    3.2021879   -1.3520593   -2.4904059  
C    1.1319246    0.0015678   -0.8009268  
C    0.7969914    0.0034958   -2.1169401  
C   -0.6453340    0.0035696   -2.1842669  
C   -1.1266832    0.0015410   -0.7896025  
N    0.0000000    0.0000000    0.0000000  
C   -2.4346129    0.0013913   -0.4276292  
C   -3.4350111    0.0031335   -1.4820181  
O   -4.6384614    0.0030875   -1.2583914  
C   -2.9478961    0.0050442   -2.9661074  
O   -3.7809382    0.0062135   -3.8623773  
C   -1.5113825    0.0053055   -3.2312122  
H   -2.7664565    0.0000174    0.6013448  
H   -1.1823533    0.0068381   -4.2614848  
H    2.1104316    0.0009435   -0.3488059  
C    2.5285572    2.1210227    2.9438989  
C    1.9331703    1.6216660    4.0790748  
C    0.8903039    0.7472258    3.6520102  
C    0.8972198    0.7527806    2.2336141  
N    1.9028376    1.5986179    1.8362361  
C    0.0000000    0.0000000    1.4700000  
C   -0.9207814   -0.7726952    2.1506477  
O   -1.8198395   -1.5274828    1.4542253  
C   -0.9436862   -0.7911793    3.5655508  
O   -1.9197945   -1.6098497    4.0950179  
C   -0.0590329   -0.0485852    4.3195194  
H    2.2150357    1.8593692    5.0905303  
H    2.1533708    1.7953814    0.8841339  
H   -2.3621246   -1.9821033    2.1118817  
H   -1.8668290   -1.5649508    5.0545920  
H   -0.1007624   -0.0827977    5.4019087  
H    3.3491200    2.8096064    2.8367138  
