64

C   -8.3763932    0.9944148   -2.4010867  
C   -9.6878404    0.5798139   -2.3750192  
C   -9.6863153   -0.8228156   -2.6343026  
C   -8.3338649   -1.2118005   -2.8117659  
N   -7.5649325   -0.0839758   -2.6655748  
C   -7.9555821   -2.5298642   -3.0845287  
C   -8.9608820   -3.4724760   -3.1795794  
O   -8.6473165   -4.7743259   -3.4439208  
C  -10.3161525   -3.1037844   -3.0060182  
O  -11.1990082   -4.1565003   -3.1313147  
C  -10.6900888   -1.8036217   -2.7371769  
H  -10.5407661    1.2109183   -2.1927617  
H   -6.9265803   -2.8327497   -3.2209760  
H   -9.4836949   -5.2572006   -3.4677902  
H  -12.0915467   -3.8221860   -3.0001150  
H  -11.7362297   -1.5511897   -2.6093191  
H   -7.9557416    1.9743064   -2.2533586  
C   -4.5382360    2.1274890   -0.3187874  
C   -3.4269599    1.6643337   -0.9843851  
C   -3.8900485    0.7769751   -2.0006251  
C   -5.3047950    0.7381442   -1.9062259  
N   -5.6653098    1.5678667   -0.8736531  
C   -6.0984769   -0.0376821   -2.7564909  
C   -5.4522277   -0.7877416   -3.7197925  
O   -6.1789766   -1.5629113   -4.5765084  
C   -4.0415024   -0.7625026   -3.8294924  
O   -3.5480075   -1.5637593   -4.8383506  
C   -3.2578655    0.0024282   -2.9908505  
H   -2.4078383    1.9321494   -0.7637975  
H   -6.6070984    1.7501468   -0.5773599  
H   -5.5421683   -1.9966430   -5.1592751  
H   -2.5888327   -1.4892405   -4.8442645  
H   -4.6159715    2.8116400    0.5087713  
C    0.0000000    0.0000000    0.0000000  
C    1.0521666   -0.0011982   -0.8862343  
C    0.4917215   -0.0011996   -2.1979132  
C   -0.9187429    0.0003215   -2.0478682  
N   -1.1833171   -0.0009323   -0.7007913  
C   -1.7951703    0.0010483   -3.1372089  
C   -1.2375841    0.0005313   -4.4010422  
O   -2.0474218    0.0015510   -5.4997578  
C    0.1673576   -0.0013585   -4.5711963  
O    0.5673520   -0.0020735   -5.8915554  
C    1.0325768   -0.0023493   -3.4969892  
H    2.0953056   -0.0030808   -0.6200564  
H   -2.0989778    0.0102529   -0.2891822  
H   -1.4634888    0.0006601   -6.2693595  
H    1.5290707   -0.0033271   -5.9180047  
H    2.1042146   -0.0039770   -3.6584456  
C    1.1319247   -0.0015655    2.2709268  
C    0.7969915   -0.0034943    3.5869401  
C   -0.6453339   -0.0035710    3.6542670  
C   -1.1266833   -0.0015433    2.2596025  
N    0.0000000    0.0000000    1.4700000  
C   -2.4346130   -0.0013964    1.8976294  
C   -3.4350110   -0.0031408    2.9520183  
O   -4.6384611   -0.0030974    2.7283916  
C   -2.9478959   -0.0050506    4.4361073  
O   -3.7809380   -0.0062218    5.3323774  
C   -1.5113823   -0.0053090    4.7012123  
H    1.4821238   -0.0045407    4.4159191  
H   -2.7664565   -0.0000232    0.8686553  
H   -1.1823530   -0.0068408    5.7314848  
H    2.1104316   -0.0009391    1.8188057  
