60

C    4.0598274    0.6903953   -8.5685098  
C    5.1593819   -0.1265597   -8.6951224  
C    5.5893583   -0.0386114  -10.0523200  
C    4.7065679    0.8547183  -10.7115385  
N    3.7887739    1.2774794   -9.7822682  
C    4.8315070    1.1797772  -12.0656133  
C    5.8666545    0.5925586  -12.7669129  
O    6.0347922    0.8752770  -14.0916057  
C    6.7575537   -0.3015831  -12.1268927  
O    7.7355945   -0.8035179  -12.9604647  
C    6.6347350   -0.6229286  -10.7911615  
H    5.5969882   -0.7145125   -7.9065766  
H    3.0427792    1.9263131   -9.9568747  
H    4.1618869    1.8597894  -12.5739377  
H    6.8031055    0.3677190  -14.3837449  
H    8.2941821   -1.3980516  -12.4504519  
H    7.3322090   -1.3112460  -10.3283139  
C    4.2034620   -0.7255631   -4.3886932  
C    4.4527382   -0.5087794   -5.7058649  
C    3.4509045    0.4181870   -6.1769255  
C    2.5913899    0.7259045   -5.0179025  
N    3.1006054    0.0006263   -3.9654951  
C    1.5263758    1.5663104   -5.0520694  
C    1.2050784    2.2105984   -6.3146843  
O    0.2656532    2.9839467   -6.4477777  
C    2.1016893    1.8990895   -7.5551905  
O    1.8407279    2.4353805   -8.6236246  
C    3.2224930    0.9761305   -7.3945729  
H    5.2475909   -0.9482359   -6.2817997  
H    0.9088865    1.7784673   -4.1903229  
H    4.7325147   -1.3548981   -3.6916055  
C    3.2798083    0.0005857   -1.4499652  
C    2.5571142    0.0005565   -2.5996556  
C    1.1637432    0.0001548   -2.2210361  
C    1.1336964   -0.0000200   -0.7459473  
N    2.4483512   -0.0001428   -0.3402723  
C    0.0000000    0.0000000    0.0000000  
C   -1.2757368   -0.0000186   -0.6964415  
O   -2.3524598   -0.0000639   -0.1142311  
C   -1.2676497   -0.0000872   -2.2584083  
O   -2.3355766   -0.0004101   -2.8557295  
C    0.0181558    0.0001758   -2.9516296  
H    0.0150788    0.0003319   -4.0331631  
H    4.3498547    0.0008612   -1.3200026  
H    2.7563626    0.0012823    0.6148059  
C    2.5128556    2.1077716    2.9199648  
C    1.9592212    1.6432552    4.0696553  
C    0.8915788    0.7479214    3.6910360  
C    0.8684491    0.7287414    2.2159470  
N    1.8754542    1.5738793    1.8102719  
C    0.0000000    0.0000000    1.4700000  
C   -0.9772830   -0.8200135    2.1664417  
O   -1.8021297   -1.5120829    1.5842315  
C   -0.9711318   -0.8147624    3.7284083  
O   -1.7894187   -1.5009653    4.3257297  
C    0.0140216    0.0115358    4.4216297  
H    2.2638494    1.8988021    5.0689105  
H    0.0117648    0.0094386    5.5031631  
H    3.3327358    2.7953732    2.7900019  
H    2.1123206    1.7707734    0.8551938  
