60

C    3.6443195   -2.1178787   -4.1486990  
C    4.9040075   -1.6187970   -4.3865446  
C    4.8005611   -0.7451063   -5.5092922  
C    3.4421101   -0.7508136   -5.9173415  
N    2.7680244   -1.5960182   -5.0712591  
C    2.9742268    0.0012781   -6.9991141  
C    3.8943980    0.7734287   -7.6812036  
O    3.4913081    1.5275334   -8.7450914  
C    5.2541841    0.7920542   -7.2894747  
O    6.0459578    1.6101261   -8.0687021  
C    5.7165183    0.0501395   -6.2225464  
H    5.7888494   -1.8561984   -3.8211341  
H    1.7842572   -1.7927184   -5.1098842  
H    4.2788102    1.9818620   -9.0717275  
H    6.9481217    1.5653693   -7.7374900  
H    6.7638221    0.0844439   -5.9460402  
H    3.3018637   -2.8059212   -3.3948557  
C   -0.8287671    0.0000935   -4.7555305  
C    0.4829789    0.0003533   -5.1068098  
C    0.5323572    0.0005984   -6.5498610  
C   -0.8681890    0.0004884   -7.0138227  
N   -1.6437154   -0.0002183   -5.8774035  
C   -1.2464054    0.0010497   -8.3171481  
C   -0.2045426    0.0015872   -9.3305866  
O   -0.4431238    0.0020517  -10.5311605  
C    1.2854927    0.0014608   -8.8619716  
O    2.1713305    0.0016029   -9.7060991  
C    1.5684486    0.0011152   -7.4288673  
H    1.3204180    0.0001888   -4.4320437  
H   -2.2794297    0.0010872   -8.6361648  
H   -2.6471542    0.0010998   -5.8649191  
C    1.0672566   -0.0000698   -0.8321912  
C    0.0000000    0.0000000    0.0000000  
C   -1.1601226   -0.0000736   -0.8778472  
C   -0.5938732   -0.0000770   -2.2438435  
N    0.7113365   -0.0001555   -2.2234123  
C   -1.4286989   -0.0001880   -3.4135239  
C   -2.7683117   -0.0006800   -3.2270522  
O   -3.6653907   -0.0008306   -4.2276967  
C   -3.3702026   -0.0010611   -1.8610771  
O   -4.5974909   -0.0013781   -1.7662957  
C   -2.4926826   -0.0008944   -0.6770655  
H   -4.5324249   -0.0012263   -3.7833950  
H   -2.9677773   -0.0012975    0.2947963  
H    2.1134390   -0.0000546   -0.5705121  
C    2.5528530    2.1414826    2.8079335  
C    2.0663498    1.7338582    4.0032312  
C    0.9804344    0.8229586    3.6752840  
C    0.9495562    0.7966882    2.1971295  
N    1.8690446    1.5676019    1.6831036  
C    0.0000000    0.0000000    1.4700000  
C   -0.8785127   -0.7372425    2.1869543  
O   -1.8187535   -1.5261249    1.6395491  
C   -0.8723269   -0.7321790    3.6796354  
O   -1.7010379   -1.4274584    4.2670412  
C    0.1115397    0.0933559    4.4024240  
H    2.4028853    2.0163452    4.9860947  
H   -2.2861435   -1.9184361    2.3990168  
H    0.0832434    0.0693689    5.4835595  
H    3.3664920    2.8238276    2.6198634  
