62

C    9.0474096    0.0050612   -3.7831355  
C    9.6955717    0.0086502   -4.9965352  
C   11.0950958    0.0105460   -4.7209852  
C   11.2415207    0.0076634   -3.3101420  
N    9.9788643    0.0063195   -2.7713349  
C   12.4892477    0.0081909   -2.6792965  
C   13.6095683    0.0113853   -3.4874102  
O   14.8526234    0.0116882   -2.9236480  
C   13.4839610    0.0146677   -4.8970302  
O   14.6923317    0.0180383   -5.5627439  
C   12.2533670    0.0144227   -5.5200587  
H    9.2183714    0.0108698   -5.9615573  
H    9.7666007   -0.0063076   -1.7901287  
H   12.6075914    0.0061495   -1.6044975  
H   15.4840321    0.0143991   -3.6547986  
H   14.5182914    0.0200857   -6.5089521  
H   12.1885363    0.0171691   -6.6018472  
C    6.5907968    0.0037508   -4.4182849  
C    5.3731494    0.0029998   -3.8171113  
C    5.6071058    0.0014824   -2.3922965  
C    7.0713645    0.0014396   -2.2113671  
N    7.6095205    0.0024505   -3.4775726  
C    7.6973074    0.0005985   -1.0072492  
C    6.8738986   -0.0005527    0.1904702  
O    7.3427984   -0.0014293    1.3211482  
C    5.3209699   -0.0007807    0.0224888  
O    4.6174388   -0.0020529    1.0236398  
C    4.7630507    0.0004755   -1.3275395  
H    4.4198601    0.0032743   -4.3149606  
H    8.7727863    0.0007134   -0.8965445  
H    6.8296425    0.0049277   -5.4693993  
C    3.3003548    0.0005276   -1.4738982  
C    2.5232817    0.0003497   -2.6090743  
C    1.1623204   -0.0001319   -2.1820101  
C    1.1711886    0.0000583   -0.7636140  
N    2.4852302   -0.0014919   -0.3662356  
C    0.0000000    0.0000000    0.0000000  
C   -1.2020379    0.0000520   -0.6806479  
O   -2.3759249    0.0003495    0.0157742  
C   -1.2314652   -0.0005112   -2.0955511  
O   -2.5054384   -0.0008036   -2.6250184  
C   -0.0764510   -0.0007271   -2.8495195  
H    2.8919962   -0.0005619   -3.6205297  
H    2.8036267    0.0088181    0.5858667  
H   -3.0835636    0.0000348   -0.6418823  
H   -2.4360038   -0.0011526   -3.5845925  
H   -0.1304090   -0.0013420   -3.9319089  
C    2.3971438    2.0127888    3.1728260  
C    1.9431056    1.6308205    1.9564670  
C    0.8496017    0.7127664    2.2356185  
C    0.7794028    0.6545384    3.7115134  
N    1.6840587    1.4146091    4.2663826  
C   -0.1885723   -0.1578550    4.3957118  
C   -1.0476298   -0.8789867    3.6398520  
O   -2.0015663   -1.6796266    4.1448486  
C   -1.0022026   -0.8410666    2.1483229  
O   -1.8147390   -1.5232959    1.5241687  
C    0.0000000    0.0000000    1.4700000  
H    2.3054237    1.9346118    0.9892483  
H   -0.2170646   -0.1815267    5.4753125  
H   -2.4487139   -2.0549881    3.3649027  
H    3.2048689    2.6911772    3.3971983  
