64

C    2.1167921   -1.8278578   -8.4968864  
C    3.0541186   -2.6346353   -9.0993782  
C    2.8524629   -2.5274040  -10.5073678  
C    1.7693170   -1.6333411  -10.7057935  
N    1.3447902   -1.2287129   -9.4645566  
C    1.2937227   -1.2914480  -11.9753251  
C    1.9232181   -1.8622733  -13.0643948  
O    1.4993759   -1.5627229  -14.3267891  
C    3.0053412   -2.7568591  -12.8867927  
O    3.5258259   -3.2413039  -14.0690585  
C    3.4748794   -3.0948073  -11.6346545  
H    3.7916846   -3.2283555   -8.5870432  
H    0.5956416   -0.5837369   -9.2891629  
H    0.4685261   -0.6107826  -12.1332736  
H    2.0658382   -2.0607858  -14.9303775  
H    4.2515509   -3.8373886  -13.8602282  
H    4.3054553   -3.7830248  -11.5298767  
C    2.5715458   -2.1234230   -6.0298477  
C    2.0605228   -1.6614591   -4.8390870  
C    0.9917284   -0.7734886   -5.1612472  
C    0.8962443   -0.7330739   -6.5758760  
N    1.8711845   -1.5624826   -7.0720513  
C   -0.0522659    0.0437215   -7.2479668  
C   -0.9203937    0.7931397   -6.4779637  
O   -1.8663533    1.5692038   -7.0828604  
C   -0.8406071    0.7663227   -5.0652602  
O   -1.7742826    1.5671138   -4.4404977  
C    0.0950446    0.0004351   -4.4015596  
H    2.4152486   -1.9304417   -3.8588774  
H   -0.1301221    0.0789825   -8.3258795  
H   -2.3586957    2.0022707   -6.3734118  
H   -1.6519908    1.4915157   -3.4892178  
H    3.3811321   -2.8075606   -6.2182240  
C    3.3321173    0.0004713   -1.3379338  
C    2.6974181    0.0000116   -2.5332314  
C    1.2800438   -0.0002119   -2.2052841  
C    1.2395034    0.0000643   -0.7271299  
N    2.4394062    0.0005460   -0.2131038  
C    0.0000000    0.0000000    0.0000000  
C   -1.1468702    0.0000634   -0.7169543  
O   -2.3742203    0.0000074   -0.1695487  
C   -1.1388770    0.0001607   -2.2096355  
O   -2.2206234    0.0000905   -2.7970411  
C    0.1454522    0.0001815   -2.9324241  
H    3.1367984   -0.0000653   -3.5160950  
H   -2.9844346    0.0001026   -0.9290167  
H    4.3940038    0.0007618   -1.1498640  
C    2.5285572    2.1210227    2.9438989  
C    1.9331703    1.6216660    4.0790748  
C    0.8903039    0.7472258    3.6520102  
C    0.8972198    0.7527806    2.2336141  
N    1.9028376    1.5986179    1.8362361  
C    0.0000000    0.0000000    1.4700000  
C   -0.9207814   -0.7726952    2.1506477  
O   -1.8198395   -1.5274828    1.4542253  
C   -0.9436862   -0.7911793    3.5655508  
O   -1.9197945   -1.6098497    4.0950179  
C   -0.0590329   -0.0485852    4.3195194  
H    2.2150357    1.8593692    5.0905303  
H    2.1533708    1.7953814    0.8841339  
H   -2.3621246   -1.9821033    2.1118817  
H   -1.8668290   -1.5649508    5.0545920  
H   -0.1007624   -0.0827977    5.4019087  
H    3.3491200    2.8096064    2.8367138  
