64

C   -0.6714802   -0.6877305   -9.4379706  
C   -0.4031849   -0.6409863  -10.7864141  
C   -0.6152564    0.7054852  -11.2066997  
C   -1.0148868    1.4409032  -10.0615433  
N   -1.0406346    0.5644064   -9.0052726  
C   -1.3088629    2.8071019  -10.1047594  
C   -1.1970899    3.4425401  -11.3261944  
O   -1.4719382    4.7758580  -11.4248629  
C   -0.8001782    2.7258357  -12.4801489  
O   -0.7362251    3.4997168  -13.6204823  
C   -0.5102696    1.3779750  -12.4383087  
H   -0.0938606   -1.4750277  -11.3927868  
H   -1.6141072    3.3732860   -9.2355848  
H   -1.3339300    5.0153188  -12.3505399  
H   -0.4610311    2.9399023  -14.3529311  
H   -0.2089152    0.8556101  -13.3387513  
H   -0.6301078   -1.5154830   -8.7508946  
C    0.6605682   -0.7024455   -5.1602328  
C   -0.1387079    0.0017019   -4.3179684  
C   -1.0653111    0.7443399   -5.1393888  
C   -0.7380201    0.4127268   -6.5392829  
N    0.3171092   -0.4684296   -6.4831128  
C   -1.3885284    0.9128902   -7.6201994  
C   -2.4839898    1.8398445   -7.3894272  
O   -3.1316441    2.3448507   -8.2970685  
C   -2.8477046    2.2053534   -5.9150050  
O   -3.7679153    2.9849438   -5.7083357  
C   -2.0739364    1.6016378   -4.8330337  
H   -2.3322393    1.8597483   -3.8150051  
H    1.4717490   -1.3724716   -4.9258391  
H    0.7669205   -0.8798731   -7.2802526  
C    3.3041273    0.0001178   -1.5420428  
C    2.5845373   -0.0004780   -0.3695851  
C    1.2040007   -0.0000007   -0.7283589  
C    1.1422374    0.0006038   -2.1454372  
N    2.4348641    0.0026111   -2.6077464  
C   -0.0655179    0.0008799   -2.8497918  
C   -1.2321766    0.0002325   -2.1101402  
O   -2.4392814    0.0001148   -2.7472522  
C   -1.1911209   -0.0000007   -0.6955266  
O   -2.4371528   -0.0002320   -0.1032862  
C    0.0000000    0.0000000    0.0000000  
H    3.0031533   -0.0000660    0.6222584  
H    2.7054631   -0.0071097   -3.5745261  
H   -3.1132988   -0.0000648   -2.0551787  
H   -2.3200282   -0.0004072    0.8516409  
H    4.3686625    0.0004073   -1.7024290  
C    2.5311839    2.1237619    3.0120429  
C    1.9795631    1.6616747    1.8395852  
C    0.9223175    0.7739173    2.1983588  
C    0.8753926    0.7337535    3.6154372  
N    1.8668922    1.5631002    4.0777464  
C   -0.0496243   -0.0427881    4.3197917  
C   -0.9437528   -0.7922060    3.5801400  
O   -1.8685244   -1.5680278    4.2172520  
C   -0.9124520   -0.7656372    2.1655264  
O   -1.8671164   -1.5663939    1.5732860  
C    0.0000000    0.0000000    1.4700000  
H    2.3005065    1.9304404    0.8477417  
H    2.0679347    1.7444845    5.0445261  
H   -0.0904770   -0.0778569    5.3997470  
H   -2.3849669   -2.0011402    3.5251786  
H   -1.7775064   -1.4909735    0.6183591  
H    3.3468514    2.8078103    3.1724291  
