62

C    8.1081751   -2.1284726    2.5236481  
C    7.4160916   -1.6646066    1.4289719  
C    8.2878159   -0.7775837    0.7304829  
C    9.5084257   -0.7396807    1.4520094  
N    9.3647046   -1.5696089    2.5360676  
C   10.6004828    0.0355973    1.0505832  
C   10.4578471    0.7860526   -0.1003515  
O   11.4930501    1.5607177   -0.5376860  
C    9.2477274    0.7617382   -0.8337241  
O    9.2620230    1.5632884   -1.9565135  
C    8.1698811   -0.0026513   -0.4381470  
H    6.4066860   -1.9317451    1.1668066  
H   10.0719794   -1.7524992    3.2247569  
H   11.5334507    0.0689423    1.5961675  
H   11.1872511    1.9948506   -1.3447056  
H    8.4082773    1.4894006   -2.3938491  
H    7.8044147   -2.8126494    3.2973345  
C    5.6463485   -0.0007504   -0.7029965  
C    4.7161325   -0.0005435   -1.6923264  
C    5.4339816   -0.0003284   -2.9451344  
C    6.8689501   -0.0004570   -2.6021236  
N    6.9298893   -0.0003136   -1.2276507  
C    7.8767467   -0.0007183   -3.5109972  
C    7.5246255   -0.0006576   -4.9211555  
O    8.3596092   -0.0008157   -5.8161997  
C    6.0111289   -0.0002696   -5.3073303  
O    5.7025039    0.0000911   -6.4913959  
C    5.0159834   -0.0002905   -4.2379666  
H    8.9229464   -0.0009388   -3.2382781  
H    3.9701999   -0.0002262   -4.5137575  
H    5.5021930   -0.0009684    0.3652304  
C    3.2573665   -0.0002920   -1.5109385  
C    2.5379463   -0.0001709   -0.3591964  
C    1.1435038    0.0000331   -0.7338500  
C    1.1092599   -0.0000083   -2.2088477  
N    2.4227553    0.0001909   -2.6182613  
C   -0.0265539   -0.0002524   -2.9515660  
C   -1.3003040   -0.0002640   -2.2514977  
O   -2.3786790   -0.0004133   -2.8306421  
C   -1.2877727    0.0000311   -0.6895603  
O   -2.3539959    0.0003306   -0.0892030  
C    0.0000000    0.0000000    0.0000000  
H    2.9384091   -0.0000367    0.6389234  
H   -0.0296303   -0.0004086   -4.0327229  
H    2.7280482   -0.0013407   -3.5742119  
C    2.5311839    2.1237619    3.0120429  
C    1.9795631    1.6616747    1.8395852  
C    0.9223175    0.7739173    2.1983588  
C    0.8753926    0.7337535    3.6154372  
N    1.8668922    1.5631002    4.0777464  
C   -0.0496243   -0.0427881    4.3197917  
C   -0.9437528   -0.7922060    3.5801400  
O   -1.8685244   -1.5680278    4.2172520  
C   -0.9124520   -0.7656372    2.1655264  
O   -1.8671164   -1.5663939    1.5732860  
C    0.0000000    0.0000000    1.4700000  
H    2.3005065    1.9304404    0.8477417  
H    2.0679347    1.7444845    5.0445261  
H   -0.0904770   -0.0778569    5.3997470  
H   -2.3849669   -2.0011402    3.5251786  
H   -1.7775064   -1.4909735    0.6183591  
H    3.3468514    2.8078103    3.1724291  
