62

C    3.2348872   -5.4756727   -8.8309338  
C    3.4491541   -5.0072488  -10.1065265  
C    3.1464703   -3.6133912  -10.0945420  
C    2.7497894   -3.2849725   -8.7729100  
N    2.8128884   -4.4389172   -8.0319322  
C    2.3784915   -1.9913470   -8.3941489  
C    2.4084733   -1.0113446   -9.3672233  
O    2.0560080    0.2689610   -9.0516293  
C    2.8010640   -1.3194846  -10.6915120  
O    2.7786520   -0.2353353  -11.5444239  
C    3.1672273   -2.5955145  -11.0659434  
H    3.7815464   -5.5977880  -10.9430499  
H    2.5981624   -4.5131254   -7.0539921  
H    2.1454416    0.7848013   -9.8635250  
H    3.0569140   -0.5292043  -12.4172440  
H    3.4631668   -2.8014107  -12.0879535  
H    3.3483183   -6.4675813   -8.4281834  
C    2.5229104   -2.1069161   -5.8790361  
C    1.9659599   -1.6422908   -7.0270794  
C    0.8993071   -0.7471214   -6.6452951  
C    0.8803723   -0.7281566   -5.1701439  
N    1.8886141   -1.5732494   -4.7674571  
C    0.0139741    0.0003876   -4.4216236  
C   -0.9653705    0.8204010   -5.1151637  
O   -1.7886283    1.5123015   -4.5305090  
C   -0.9636625    0.8153758   -6.6771425  
O   -1.7837157    1.5015804   -7.2720341  
C    0.0195994   -0.0107210   -7.3732829  
H    0.0142656   -0.0084680   -8.4548052  
H    3.3432276   -2.7944518   -5.7515060  
H    2.1282169   -1.7702569   -3.8130854  
C    3.2798085    0.0005853   -1.4499648  
C    2.5571144    0.0005562   -2.5996554  
C    1.1637436    0.0001546   -2.2210360  
C    1.1336965   -0.0000201   -0.7459470  
N    2.4483513   -0.0001430   -0.3402717  
C    0.0000000    0.0000000    0.0000000  
C   -1.2757367   -0.0000188   -0.6964414  
O   -2.3524597   -0.0000640   -0.1142313  
C   -1.2676494   -0.0000875   -2.2584081  
O   -2.3355762   -0.0004102   -2.8557294  
C    0.0181562    0.0001757   -2.9516296  
H    2.9547357    0.0006072   -3.5989105  
H    4.3498550    0.0008609   -1.3200021  
H    2.7563627    0.0012824    0.6148063  
C    2.5285572    2.1210227    2.9438989  
C    1.9331703    1.6216660    4.0790748  
C    0.8903039    0.7472258    3.6520102  
C    0.8972198    0.7527806    2.2336141  
N    1.9028376    1.5986179    1.8362361  
C    0.0000000    0.0000000    1.4700000  
C   -0.9207814   -0.7726952    2.1506477  
O   -1.8198395   -1.5274828    1.4542253  
C   -0.9436862   -0.7911793    3.5655508  
O   -1.9197945   -1.6098497    4.0950179  
C   -0.0590329   -0.0485852    4.3195194  
H    2.2150357    1.8593692    5.0905303  
H    2.1533708    1.7953814    0.8841339  
H   -2.3621246   -1.9821033    2.1118817  
H   -1.8668290   -1.5649508    5.0545920  
H   -0.1007624   -0.0827977    5.4019087  
H    3.3491200    2.8096064    2.8367138  
