60

C    5.7180524   -3.5699549   -1.3544609  
C    6.8510224   -4.3438218   -1.2545777  
C    7.5781171   -4.1763810   -2.4702650  
C    6.8337568   -3.2811967   -3.2805124  
N    5.7092834   -2.9338498   -2.5737404  
C    7.2534738   -2.8870666   -4.5545957  
C    8.4464993   -3.4058371   -5.0190796  
O    8.9032463   -3.0540009   -6.2562569  
C    9.2032030   -4.3006396   -4.2256408  
O   10.3675622   -4.7297112   -4.8285554  
C    8.7896163   -4.6901054   -2.9687446  
H    7.1197576   -4.9548120   -0.4099087  
H    6.6906661   -2.2052505   -5.1771519  
H    9.7391550   -3.5216941   -6.3818927  
H   10.8183947   -5.3298678   -4.2267522  
H    9.3903392   -5.3771085   -2.3842479  
H    4.9148101   -3.4225287   -0.6530150  
C    4.6658421   -2.0084115   -3.0381693  
C    3.5410041   -1.6272099   -2.3893213  
C    2.8760349   -0.7078757   -3.2998926  
C    3.7621637   -0.6481452   -4.4821752  
N    4.8129012   -1.4085091   -4.3345739  
C    3.4519840    0.1658071   -5.6251348  
C    2.3083475    0.8869943   -5.5888132  
O    1.8948251    1.6890059   -6.5847139  
C    1.3931661    0.8475793   -4.4102331  
O    0.3692897    1.5299496   -4.4458473  
C    1.7334695    0.0049281   -3.2500363  
H    3.2040799   -1.9322774   -1.4133643  
H    4.1177943    0.1905568   -6.4754254  
H    1.0533189    2.0640199   -6.2678781  
C    1.1319246    0.0015678   -0.8009268  
C    0.7969914    0.0034958   -2.1169401  
C   -0.6453340    0.0035696   -2.1842669  
C   -1.1266832    0.0015410   -0.7896025  
N    0.0000000    0.0000000    0.0000000  
C   -2.4346129    0.0013913   -0.4276292  
C   -3.4350111    0.0031335   -1.4820181  
O   -4.6384614    0.0030875   -1.2583914  
C   -2.9478961    0.0050442   -2.9661074  
O   -3.7809382    0.0062135   -3.8623773  
C   -1.5113825    0.0053055   -3.2312122  
H   -2.7664565    0.0000174    0.6013448  
H   -1.1823533    0.0068381   -4.2614848  
H    2.1104316    0.0009435   -0.3488059  
C    0.8681109    0.7263879    2.2709268  
C    0.6127770    0.5096195    3.5869401  
C   -0.4920590   -0.4175482    3.6542670  
C   -0.8620974   -0.7254003    2.2596025  
N    0.0000000    0.0000000    1.4700000  
C   -1.8641242   -1.5660088    1.8976294  
C   -2.6293522   -2.2103885    2.9520183  
O   -3.5512764   -2.9839180    2.7283916  
C   -2.2549728   -1.8987399    4.4361073  
O   -2.8923672   -2.4351063    5.3323774  
C   -1.1543735   -0.9755647    4.7012123  
H    1.1382914    0.9492124    4.4159191  
H   -2.1192137   -1.7782617    0.8686553  
H   -0.9013378   -0.7652422    5.7314848  
H    1.6172880    1.3558399    1.8188057  
