60

C    4.4211036   -2.1170480   -1.5538555  
C    5.4072741   -1.6176331   -2.3727078  
C    4.7720741   -0.7441418   -3.3044449  
C    3.3861598   -0.7503088   -3.0025683  
N    3.2071928   -1.5955830   -1.9357506  
C    2.4521480    0.0014830   -3.7217483  
C    2.9258786    0.7738005   -4.7644766  
O    2.0572044    1.5276269   -5.4994355  
C    4.3050425    0.7928833   -5.0812735  
O    4.6193631    1.6110694   -6.1466921  
C    5.2269995    0.0512646   -4.3723847  
H    6.4553768   -1.8546901   -2.3073032  
H    2.3281654   -1.7925772   -1.4924847  
H    2.5873794    1.9821365   -6.1669679  
H    5.5689838    1.5666269   -6.2945049  
H    6.2769997    0.0859175   -4.6384221  
H    4.4873855   -2.8050771   -0.7285189  
C    0.0000000    0.0000000    0.0000000  
C    1.0662921   -0.0000106   -0.8334269  
C    0.4961870    0.0000059   -2.1718889  
C   -0.9663856   -0.0000854   -1.9540246  
N   -1.2632773   -0.0000087   -0.6828657  
C   -1.8985362   -0.0000522   -3.0477258  
C   -1.3925773    0.0004558   -4.3020541  
O   -2.1456384    0.0005402   -5.4151311  
C    0.0786236    0.0009315   -4.5544999  
O    0.4683762    0.0012578   -5.7221098  
C    1.0143167    0.0008435   -3.4159031  
H    2.1107198    0.0000631   -0.5721865  
H   -1.5042271    0.0009682   -6.1484419  
C   -4.3359694    2.1064016   -0.0635825  
C   -5.5644949    1.6417186   -0.4083571  
C   -5.3776802    0.7467250   -1.5259091  
C   -3.9292255    0.7279262   -1.8059383  
N   -3.3543287    1.5729375   -0.8848850  
C   -3.3460094   -0.0004268   -2.7913647  
C   -4.2020390   -0.8203947   -3.6324363  
O   -3.7724542   -1.5121275   -4.5463634  
C   -5.7389982   -0.8155431   -3.3539783  
O   -6.4697268   -1.5017115   -4.0557402  
C   -6.2499649    0.0103535   -2.2628044  
H   -6.4953654    1.8969412    0.0659371  
H   -7.3153177    0.0079812   -2.0764129  
H   -4.0651599    2.7938491    0.7212538  
H   -2.3726196    1.7700210   -0.8181565  
C    1.1319247   -0.0015655    2.2709268  
C    0.7969915   -0.0034943    3.5869401  
C   -0.6453339   -0.0035710    3.6542670  
C   -1.1266833   -0.0015433    2.2596025  
N    0.0000000    0.0000000    1.4700000  
C   -2.4346130   -0.0013964    1.8976294  
C   -3.4350110   -0.0031408    2.9520183  
O   -4.6384611   -0.0030974    2.7283916  
C   -2.9478959   -0.0050506    4.4361073  
O   -3.7809380   -0.0062218    5.3323774  
C   -1.5113823   -0.0053090    4.7012123  
H    1.4821238   -0.0045407    4.4159191  
H   -2.7664565   -0.0000232    0.8686553  
H   -1.1823530   -0.0068408    5.7314848  
H    2.1104316   -0.0009391    1.8188057  
