60

C    5.8044561   -3.0186441   -7.7023438  
C    4.9733466   -2.3370496   -6.8437682  
C    4.9876536   -0.9693709   -7.2485524  
C    5.8522768   -0.8759823   -8.3691027  
N    6.3327756   -2.1378569   -8.6169154  
C    6.1053605    0.3294465   -9.0306748  
C    5.4738766    1.4611644   -8.5525329  
O    5.6853085    2.6643437   -9.1613593  
C    4.6079525    1.3882867   -7.4355372  
O    4.0557353    2.6016101   -7.0802264  
C    4.3580266    0.1994875   -6.7822218  
H    4.4251629   -2.7719025   -6.0256051  
H    6.9617541   -2.3838383   -9.3597884  
H    6.7633854    0.4073060   -9.8851595  
H    5.1574483    3.3121424   -8.6766071  
H    3.4846030    2.4643720   -6.3182702  
H    6.0633032   -4.0631376   -7.7338199  
C    4.6658418   -2.0084115   -3.0381695  
C    3.5410043   -1.6272096   -2.3893217  
C    2.8760350   -0.7078756   -3.2998932  
C    3.7621632   -0.6481449   -4.4821757  
N    4.8129013   -1.4085087   -4.3345750  
C    3.4519830    0.1658076   -5.6251350  
C    2.3083468    0.8869947   -5.5888132  
O    1.8948241    1.6890060   -6.5847135  
C    1.3931660    0.8475795   -4.4102332  
O    0.3692891    1.5299498   -4.4458469  
C    1.7334695    0.0049281   -3.2500363  
H    3.2040804   -1.9322774   -1.4133648  
H    1.0533181    2.0640200   -6.2678775  
H    5.4313254   -2.6873260   -2.6974587  
C    1.1319246    0.0015678   -0.8009268  
C    0.7969914    0.0034958   -2.1169401  
C   -0.6453340    0.0035696   -2.1842669  
C   -1.1266832    0.0015410   -0.7896025  
N    0.0000000    0.0000000    0.0000000  
C   -2.4346129    0.0013913   -0.4276292  
C   -3.4350111    0.0031335   -1.4820181  
O   -4.6384614    0.0030875   -1.2583914  
C   -2.9478961    0.0050442   -2.9661074  
O   -3.7809382    0.0062135   -3.8623773  
C   -1.5113825    0.0053055   -3.2312122  
H   -2.7664565    0.0000174    0.6013448  
H   -1.1823533    0.0068381   -4.2614848  
H    2.1104316    0.0009435   -0.3488059  
C    0.8175213    0.6860729    2.3021913  
C    0.0000000    0.0000000    1.4700000  
C   -0.8887526   -0.7456559    2.3478473  
C   -0.4549825   -0.3816753    3.7138435  
N    0.5448156    0.4573574    3.6934124  
C   -1.0945674   -0.9182058    4.8835240  
C   -2.1210866   -1.7789155    4.6970523  
O   -2.8083856   -2.3554314    5.6976972  
C   -2.5824069   -2.1655116    3.3310774  
O   -3.5227682   -2.9541547    3.2362962  
C   -1.9100805   -1.6015804    2.1470656  
H   -0.7567140   -0.6349833    5.8697035  
H   -3.4728268   -2.9124471    5.2533954  
H   -2.2742832   -1.9066565    1.1752040  
H    1.6189533    1.3585343    2.0405121  
