60

C    2.1552145   -1.8471691   -8.4461110  
C    3.1265850   -2.6665665   -8.9728891  
C    3.0179134   -2.5816974  -10.3926028  
C    1.9537934   -1.6876430  -10.6758720  
N    1.4506645   -1.2615055   -9.4717604  
C    1.5636909   -1.3650381  -11.9791506  
C    2.2607025   -1.9555015  -13.0153475  
O    1.9215979   -1.6752771  -14.3074373  
C    3.3251626   -2.8504159  -12.7529151  
O    3.9198538   -3.3556940  -13.8906241  
C    3.7103765   -3.1693416  -11.4674493  
H    3.8265818   -3.2541285   -8.4038828  
H    0.6943340   -0.6114380   -9.3561863  
H    0.7534301   -0.6844894  -12.2017114  
H    2.5242561   -2.1848723  -14.8645557  
H    4.6278797   -3.9505354  -13.6251678  
H    4.5294515   -3.8583256  -11.2974638  
C    2.4602721   -2.0944455   -5.9392888  
C    1.9124732   -1.6318086   -4.7860506  
C    0.8432456   -0.7354855   -5.1577935  
C    0.8127887   -0.7137217   -6.6327131  
N    1.8180308   -1.5578236   -7.0448664  
C   -0.0596367    0.0159818   -7.3730587  
C   -1.0334823    0.8347249   -6.6703356  
O   -1.8613770    1.5276081   -7.2472273  
C   -1.0192491    0.8271227   -5.1084314  
O   -1.8341905    1.5127102   -4.5058525  
C   -0.0307352   -0.0004646   -4.4215603  
H    2.2221962   -1.8889424   -3.7887702  
H   -0.0651692    0.0176830   -8.4542048  
H    3.2792594   -2.7820942   -6.0745261  
C    3.2573670   -0.0002920   -1.5109380  
C    2.5379468   -0.0001709   -0.3591961  
C    1.1435043    0.0000332   -0.7338500  
C    1.1092609   -0.0000082   -2.2088477  
N    2.4227562    0.0001909   -2.6182613  
C   -0.0265532   -0.0002522   -2.9515663  
C   -1.3003035   -0.0002639   -2.2514981  
O   -2.3786784   -0.0004131   -2.8306429  
C   -1.2877725    0.0000312   -0.6895608  
O   -2.3539958    0.0003307   -0.0892036  
C    0.0000000    0.0000000    0.0000000  
H    2.9384091   -0.0000369    0.6389239  
H    4.3270394   -0.0004765   -1.6439446  
H    2.7280494   -0.0013406   -3.5742113  
C    2.5528530    2.1414826    2.8079335  
C    2.0663498    1.7338582    4.0032312  
C    0.9804344    0.8229586    3.6752840  
C    0.9495562    0.7966882    2.1971295  
N    1.8690446    1.5676019    1.6831036  
C    0.0000000    0.0000000    1.4700000  
C   -0.8785127   -0.7372425    2.1869543  
O   -1.8187535   -1.5261249    1.6395491  
C   -0.8723269   -0.7321790    3.6796354  
O   -1.7010379   -1.4274584    4.2670412  
C    0.1115397    0.0933559    4.4024240  
H    2.4028853    2.0163452    4.9860947  
H   -2.2861435   -1.9184361    2.3990168  
H    0.0832434    0.0693689    5.4835595  
H    3.3664920    2.8238276    2.6198634  
