60

C    6.1901727   -2.1173439   -1.6001553  
C    5.4060897   -1.6547406   -2.6315034  
C    6.2134327   -0.7666891   -3.4023218  
C    7.4913774   -0.7268857   -2.7881567  
N    7.4423448   -1.5567213   -1.6956427  
C    8.5438792    0.0498092   -3.2818899  
C    8.3019869    0.7997539   -4.4164593  
O    9.2947662    1.5757469   -4.9410920  
C    7.0334582    0.7735507   -5.0433285  
O    6.9502612    1.5748170   -6.1633261  
C    5.9945976    0.0077625   -4.5566444  
H    4.3782959   -1.9233601   -2.8060813  
H    8.2063423   -1.7384372   -1.0701299  
H    9.5201568    0.0846053   -2.8183459  
H    8.9202587    2.0092341   -5.7189723  
H    6.0622555    1.4996185   -6.5258096  
H    5.9548628   -2.8017356   -0.8031637  
C    1.7334697    0.0049246   -3.2500361  
C    3.0863258    0.0047395   -3.2131614  
C    3.4995613    0.0065854   -4.6080567  
C    2.2333973    0.0076339   -5.3718701  
N    1.1947442    0.0067482   -4.5811810  
C    2.2116358    0.0095928   -6.8087451  
C    3.4007181    0.0108539   -7.4532716  
O    3.5293452    0.0127176   -8.7909908  
C    4.6955643    0.0102154   -6.7106176  
O    5.7398288    0.0113176   -7.3623315  
C    4.6914550    0.0081545   -5.2368793  
H    3.7249597    0.0035934   -2.3464312  
H    1.2717200    0.0101175   -7.3411622  
H    4.4909169    0.0132660   -8.9476192  
C    1.1319247    0.0015655   -0.8009267  
C    0.7969916    0.0034943   -2.1169401  
C   -0.6453337    0.0035710   -2.1842668  
C   -1.1266832    0.0015433   -0.7896026  
N    0.0000000    0.0000000    0.0000000  
C   -2.4346130    0.0013964   -0.4276294  
C   -3.4350109    0.0031408   -1.4820183  
O   -4.6384610    0.0030973   -1.2583915  
C   -2.9478956    0.0050505   -2.9661075  
O   -3.7809378    0.0062218   -3.8623775  
C   -1.5113821    0.0053090   -3.2312122  
H   -2.7664565    0.0000232    0.6013446  
H   -1.1823527    0.0068407   -4.2614846  
H    2.1104317    0.0009391   -0.3488056  
C    0.8175213    0.6860729    2.3021913  
C    0.0000000    0.0000000    1.4700000  
C   -0.8887526   -0.7456559    2.3478473  
C   -0.4549825   -0.3816753    3.7138435  
N    0.5448156    0.4573574    3.6934124  
C   -1.0945674   -0.9182058    4.8835240  
C   -2.1210866   -1.7789155    4.6970523  
O   -2.8083856   -2.3554314    5.6976972  
C   -2.5824069   -2.1655116    3.3310774  
O   -3.5227682   -2.9541547    3.2362962  
C   -1.9100805   -1.6015804    2.1470656  
H   -0.7567140   -0.6349833    5.8697035  
H   -3.4728268   -2.9124471    5.2533954  
H   -2.2742832   -1.9066565    1.1752040  
H    1.6189533    1.3585343    2.0405121  
