62

C   -0.1586636    0.0938921   -8.7389241  
C    0.6089816   -0.5544228   -9.6785391  
C    0.1259212   -0.1535358  -10.9593744  
C   -0.9461077    0.7481012  -10.7363707  
N   -1.0936498    0.8746082   -9.3773841  
C   -1.6612789    1.3453461  -11.7787801  
C   -1.2872355    1.0268219  -13.0698311  
O   -1.9516556    1.5818512  -14.1250570  
C   -0.2205008    0.1290789  -13.3126282  
O    0.0304971   -0.0866842  -14.6519539  
C    0.4852991   -0.4607001  -12.2847511  
H    1.4169313   -1.2336784   -9.4668257  
H   -1.7700566    1.4578842   -8.9188600  
H   -2.4794131    2.0332306  -11.6154586  
H   -1.5372571    1.2306030  -14.9239084  
H    0.7644523   -0.7040106  -14.7282528  
H    1.2975356   -1.1446132  -12.5015750  
C    2.4938372   -2.1214406   -5.9023410  
C    1.8951718   -1.6223088   -7.0358902  
C    0.8534345   -0.7479140   -6.6059872  
C    0.8643862   -0.7532634   -5.1876154  
N    1.8712175   -1.5989400   -4.7929780  
C   -0.0307352   -0.0004646   -4.4215603  
C   -0.9535289    0.7720379   -5.0996973  
O   -1.8506799    1.5268339   -4.4008286  
C   -0.9804606    0.7903154   -6.5145322  
O   -1.9581555    1.6088090   -7.0413383  
C   -0.0978794    0.0477031   -7.2709076  
H    2.1741831   -1.8601292   -8.0481093  
H    2.1244786   -1.7955405   -3.8415641  
H   -2.3948806    1.9813038   -5.0570049  
H   -1.9079158    1.5637773   -8.0010523  
H    3.3147723   -2.8099244   -5.7973917  
C    3.2573670   -0.0002920   -1.5109380  
C    2.5379468   -0.0001709   -0.3591961  
C    1.1435043    0.0000332   -0.7338500  
C    1.1092609   -0.0000082   -2.2088477  
N    2.4227562    0.0001909   -2.6182613  
C   -0.0265532   -0.0002522   -2.9515663  
C   -1.3003035   -0.0002639   -2.2514981  
O   -2.3786784   -0.0004131   -2.8306429  
C   -1.2877725    0.0000312   -0.6895608  
O   -2.3539958    0.0003307   -0.0892036  
C    0.0000000    0.0000000    0.0000000  
H    2.9384091   -0.0000369    0.6389239  
H    4.3270394   -0.0004765   -1.6439446  
H    2.7280494   -0.0013406   -3.5742113  
C    2.4951002    2.0940188    2.9809380  
C    1.9440701    1.6314916    1.8291961  
C    0.8759964    0.7350050    2.2038498  
C    0.8497377    0.7130254    3.6788474  
N    1.8560616    1.5571714    4.0882609  
C   -0.0205033   -0.0168748    4.4215661  
C   -0.9962600   -0.8356168    3.7214979  
O   -1.8224391   -1.5286685    4.3006425  
C   -0.9864710   -0.8277881    2.1595606  
O   -1.8030528   -1.5133726    1.5592035  
C    0.0000000    0.0000000    1.4700000  
H    2.2509283    1.8888011    0.8310761  
H   -0.0229599   -0.0187323    5.5027230  
H    3.3143982    2.7817323    3.1139444  
H    2.0889452    1.7545833    5.0442112  
