64

C    0.1916483   -0.8856839   -9.5474998  
C   -0.1931839    0.1825617   -8.7708259  
C   -0.1916443    1.3326965   -9.6145000  
C    0.2055751    0.9010215  -10.9059334  
N    0.4324393   -0.4507733  -10.8297714  
C    0.3173223    1.7725048  -11.9935088  
C    0.0224183    3.1039641  -11.7734505  
O    0.1148019    3.9979717  -12.8006949  
C   -0.3752554    3.5539594  -10.4919763  
O   -0.6338095    4.9078824  -10.4337971  
C   -0.4854492    2.6948274   -9.4185353  
H    0.7165062   -1.0355791  -11.5948138  
H    0.6196882    1.4497935  -12.9802372  
H   -0.1303321    4.8585495  -12.4365790  
H   -0.8957670    5.1291495   -9.5348958  
H   -0.7922247    3.0686196   -8.4486661  
H    0.3148030   -1.9231819   -9.2879040  
C    1.5862963   -2.0670322   -5.3411847  
C    1.3189952   -1.5555207   -6.5899330  
C    0.1997466   -0.6822137   -6.4513069  
C   -0.1759085   -0.7009549   -5.0836595  
N    0.6852545   -1.5532113   -4.4381564  
C   -1.2456329    0.0471727   -4.5828766  
C   -1.9487579    0.8286865   -5.4789955  
O   -3.0021411    1.5794496   -5.0433908  
C   -1.5894397    0.8603682   -6.8474632  
O   -2.3865862    1.6866038   -7.6124704  
C   -0.5344149    0.1223716   -7.3422465  
H    1.8630203   -1.7845991   -7.4902407  
H    0.6698564   -1.7594943   -3.4557148  
H   -3.3470236    2.0416479   -5.8184349  
H   -2.0769447    1.6504694   -8.5226459  
H    2.3474954   -2.7588385   -5.0234755  
C    1.1243410    0.0099923   -0.7919003  
C    0.7474076    0.0234544   -2.1148543  
C   -0.6787381    0.0234490   -2.1414700  
C   -1.1201745    0.0098592   -0.7935546  
N    0.0000000    0.0000000    0.0000000  
C   -2.4730816    0.0063709   -0.4408240  
C   -3.3971958    0.0170982   -1.4675058  
O   -4.7313517    0.0146259   -1.1793471  
C   -2.9763648    0.0303504   -2.8186324  
O   -4.0166480    0.0395118   -3.7247624  
C   -1.6418562    0.0335260   -3.1673481  
H    1.4178717    0.0310972   -2.9571209  
H   -2.8160166   -0.0041111    0.5845966  
H   -5.1938818    0.0230867   -2.0274384  
H   -3.6464675    0.0482293   -4.6127343  
H    2.1062467    0.0052819   -0.3505407  
C    0.8400945    0.7047457    2.2710304  
C    0.0000000    0.0000000    1.4700000  
C   -0.8844236   -0.7423113    2.3369512  
C   -0.4878984   -0.4098547    3.7186280  
N    0.5629682    0.4714286    3.6095011  
C   -1.0836927   -0.9095027    4.8308716  
C   -2.1891196   -1.8367527    4.6554461  
O   -2.7906899   -2.3413415    5.5944904  
C   -2.6257283   -2.2031529    3.2011665  
O   -3.5549479   -2.9829990    3.0410059  
C   -1.9068976   -1.5999348    2.0816745  
H   -0.7774656   -0.6525820    5.8354244  
H   -2.2155208   -1.8586617    1.0779135  
H    1.6384792    1.3747609    1.9961646  
H    1.0518368    0.8833920    4.3830260  
