60

C    6.6929119   -3.3760260   -4.6584379  
C    7.8264937   -3.3648666   -5.4377552  
C    7.9917591   -2.0302425   -5.9132195  
C    6.9198497   -1.2650446   -5.3865240  
N    6.1490026   -2.1131919   -4.6308394  
C    6.7637838    0.0992392   -5.6495111  
C    7.7071571    0.7021081   -6.4586937  
O    7.6028863    2.0320671   -6.7473962  
C    8.7835906   -0.0446196   -6.9939558  
O    9.6386091    0.6987514   -7.7811565  
C    8.9380282   -1.3906121   -6.7351518  
H    8.4561447   -4.2144249   -5.6397040  
H    5.9489686    0.6880215   -5.2512499  
H    8.3516913    2.2469820   -7.3186817  
H   10.3366442    0.1199401   -8.1026038  
H    9.7726495   -1.9364254   -7.1593819  
H    6.2285344   -4.1851909   -4.1212559  
C    4.5533949   -2.1376043   -2.6578821  
C    4.9399045   -1.7283668   -3.8886195  
C    3.8940257   -0.8167856   -4.3264063  
C    2.9285537   -0.7919270   -3.2066606  
N    3.3097737   -1.5641892   -2.2257060  
C    1.7334695    0.0049281   -3.2500363  
C    1.5131086    0.7436791   -4.3613519  
O    0.4396992    1.5328949   -4.5373375  
C    2.4688038    0.7400642   -5.5079972  
O    2.2042969    1.4366796   -6.4877848  
C    3.6875671   -0.0856735   -5.4394563  
H    0.5632901    1.9263770   -5.4199757  
H    4.3545060   -0.0606070   -6.2908044  
H    5.0606857   -2.8208826   -1.9954922  
C    1.1319246    0.0015678   -0.8009268  
C    0.7969914    0.0034958   -2.1169401  
C   -0.6453340    0.0035696   -2.1842669  
C   -1.1266832    0.0015410   -0.7896025  
N    0.0000000    0.0000000    0.0000000  
C   -2.4346129    0.0013913   -0.4276292  
C   -3.4350111    0.0031335   -1.4820181  
O   -4.6384614    0.0030875   -1.2583914  
C   -2.9478961    0.0050442   -2.9661074  
O   -3.7809382    0.0062135   -3.8623773  
C   -1.5113825    0.0053055   -3.2312122  
H   -2.7664565    0.0000174    0.6013448  
H   -1.1823533    0.0068381   -4.2614848  
H    2.1104316    0.0009435   -0.3488059  
C    2.4951002    2.0940188    2.9809380  
C    1.9440701    1.6314916    1.8291961  
C    0.8759964    0.7350050    2.2038498  
C    0.8497377    0.7130254    3.6788474  
N    1.8560616    1.5571714    4.0882609  
C   -0.0205033   -0.0168748    4.4215661  
C   -0.9962600   -0.8356168    3.7214979  
O   -1.8224391   -1.5286685    4.3006425  
C   -0.9864710   -0.8277881    2.1595606  
O   -1.8030528   -1.5133726    1.5592035  
C    0.0000000    0.0000000    1.4700000  
H    2.2509283    1.8888011    0.8310761  
H   -0.0229599   -0.0187323    5.5027230  
H    3.3143982    2.7817323    3.1139444  
H    2.0889452    1.7545833    5.0442112  
