64

C    6.4957686   -3.0593460   -5.1885769  
C    5.8980620   -1.8354968   -4.9951670  
C    6.5818750   -0.9017634   -5.8289186  
C    7.5955912   -1.6197326   -6.5136262  
N    7.5168169   -2.9264586   -6.1002516  
C    8.4676358   -1.0146693   -7.4236963  
C    8.3133344    0.3397952   -7.6468452  
O    9.1377555    0.9807191   -8.5257990  
C    7.3080626    1.0734225   -6.9730240  
O    7.2822586    2.4128846   -7.3024461  
C    6.4475915    0.4772197   -6.0748824  
H    8.1040930   -3.6738354   -6.4235405  
H    9.2423970   -1.5562753   -7.9486797  
H    8.8630257    1.9068656   -8.5321535  
H    6.5756758    2.8350433   -6.8043240  
H    5.6874069    1.0649898   -5.5737597  
H    6.2754593   -4.0162523   -4.7472683  
C    4.6022463   -2.1272931   -2.8466433  
C    3.4305511   -1.6635856   -2.2947619  
C    2.8449916   -0.7762114   -3.2457022  
C    3.7116212   -0.7379407   -4.3679388  
N    4.7696348   -1.5679973   -4.0918414  
C    3.4480383    0.0377429   -5.5009118  
C    2.2883216    0.7882331   -5.5011203  
O    1.9820896    1.5632868   -6.5821047  
C    1.4112316    0.7635556   -4.3907502  
O    0.2988105    1.5651926   -4.5432007  
C    1.6707636   -0.0012343   -3.2725974  
H    3.0458277   -1.9310527   -1.3255139  
H    4.1045760    0.0713695   -6.3594158  
H    1.1435166    1.9973735   -6.3780710  
H   -0.2405315    1.4910427   -3.7499696  
H    5.3325174   -2.8116312   -2.4499768  
C    1.0965514    0.0001358   -0.8010306  
C    0.0000000    0.0000000    0.0000000  
C   -1.1546565    0.0001470   -0.8669508  
C   -0.6372019    0.0003520   -2.2486278  
N    0.7342867    0.0007338   -2.1395012  
C   -1.4147744    0.0001354   -3.3608712  
C   -2.8576052   -0.0001047   -3.1854454  
O   -3.6427785   -0.0002490   -4.1244896  
C   -3.4275841   -0.0000727   -1.7311660  
O   -4.6406832    0.0000333   -1.5710049  
C   -2.4891868   -0.0001090   -0.6116739  
H   -1.0150456    0.0001617   -4.3654239  
H   -2.8919122   -0.0002919    0.3920871  
H    2.1388270    0.0000663   -0.5261650  
C    0.8576279    0.7185626    2.2703808  
C    0.0000000    0.0000000    1.4700000  
C   -0.8668858   -0.7285659    2.3373528  
C   -0.4876752   -0.4117774    3.6669281  
N    0.5635254    0.4678311    3.5902241  
C   -1.1297612   -0.9515493    4.7854808  
C   -2.1738724   -1.8268314    4.5576857  
O   -2.8357962   -2.3827064    5.6140350  
C   -2.5667212   -2.1555554    3.2384331  
O   -3.6226318   -3.0413663    3.1773122  
C   -1.9335634   -1.6236449    2.1344818  
H    1.0363952    0.8769718    4.3757045  
H   -0.8454472   -0.7142436    5.8013813  
H   -3.5178062   -2.9546422    5.2385129  
H   -3.8247440   -3.2102924    2.2519915  
H   -2.2566033   -1.8942483    1.1360343  
H    1.6567807    1.3889844    2.0042067  
