60

C    6.8742257    0.0003236   -4.0661425  
C    5.5942423    0.0007869   -3.5620507  
C    5.7067593    0.0007579   -2.1401013  
C    7.0913510    0.0005508   -1.8321526  
N    7.7720039   -0.0016612   -3.0243459  
C    7.5742847    0.0007721   -0.5200693  
C    6.6425082    0.0015173    0.4997194  
O    7.0593434    0.0021142    1.7994356  
C    5.2567329    0.0013592    0.2125911  
O    4.4562654    0.0017482    1.3362438  
C    4.7795897    0.0008677   -1.0815734  
H    4.6906033    0.0000011   -4.1472244  
H    8.7711572    0.0082510   -3.1221991  
H    8.6283018    0.0004721   -0.2787183  
H    6.2603306    0.0022789    2.3424296  
H    3.5363980    0.0016364    1.0543799  
H    7.2178042   -0.0001938   -5.0863936  
C    3.3321166    0.0004717   -1.3379342  
C    2.6974176    0.0000121   -2.5332317  
C    1.2800432   -0.0002115   -2.2052842  
C    1.2395033    0.0000645   -0.7271297  
N    2.4394059    0.0005461   -0.2131042  
C    0.0000000    0.0000000    0.0000000  
C   -1.1468704    0.0000636   -0.7169540  
O   -2.3742206    0.0000073   -0.1695488  
C   -1.1388774    0.0001610   -2.2096351  
O   -2.2206238    0.0000908   -2.7970408  
C    0.1454514    0.0001820   -2.9324241  
H    3.1367977   -0.0000646   -3.5160953  
H   -2.9844351    0.0001027   -0.9290163  
C    0.0950440    0.0004357   -4.4015596  
C    1.1192386    0.0002605   -5.2932435  
C    0.5298377    0.0006958   -6.6113644  
C   -0.9321740    0.0011715   -6.4130916  
N   -1.1298103    0.0005876   -5.0515376  
C   -1.8443597    0.0020614   -7.4178901  
C   -1.3534356    0.0023594   -8.7859287  
O   -2.0950469    0.0030859   -9.7597424  
C    0.1910163    0.0016135   -9.0193234  
O    0.6161255    0.0015497  -10.1667300  
C    1.0746167    0.0009560   -7.8560943  
H    2.1679373   -0.0003116   -5.0548230  
H   -2.9125325    0.0025274   -7.2508094  
H    2.1426818    0.0006472   -8.0262735  
H   -2.0258144    0.0022756   -4.5996289  
C    2.3971438    2.0127888    3.1728260  
C    1.9431056    1.6308205    1.9564670  
C    0.8496017    0.7127664    2.2356185  
C    0.7794028    0.6545384    3.7115134  
N    1.6840587    1.4146091    4.2663826  
C   -0.1885723   -0.1578550    4.3957118  
C   -1.0476298   -0.8789867    3.6398520  
O   -2.0015663   -1.6796266    4.1448486  
C   -1.0022026   -0.8410666    2.1483229  
O   -1.8147390   -1.5232959    1.5241687  
C    0.0000000    0.0000000    1.4700000  
H    2.3054237    1.9346118    0.9892483  
H   -0.2170646   -0.1815267    5.4753125  
H   -2.4487139   -2.0549881    3.3649027  
H    3.2048689    2.6911772    3.3971983  
