62

C    5.3740787   -3.7118247    0.1516615  
C    4.9813297   -4.5154509    1.1968408  
C    3.5691405   -4.3650252    1.3298554  
C    3.1520836   -3.4495126    0.3299418  
N    4.2730235   -3.0709693   -0.3663454  
C    1.8179642   -3.0648555    0.1657691  
C    0.8878753   -3.6146467    1.0264909  
O   -0.4286878   -3.2738455    0.9101780  
C    1.2845378   -4.5295173    2.0307255  
O    0.2412798   -4.9881662    2.8082842  
C    2.6005412   -4.9092357    2.1934380  
H    5.6327191   -5.1331597    1.7910815  
H    1.4936675   -2.3674388   -0.5942596  
H   -0.8991163   -3.7629797    1.5977177  
H    0.5946361   -5.6004120    3.4608928  
H    2.8743385   -5.6118621    2.9717889  
H    6.3526991   -3.5439712   -0.2643736  
C    4.2926951   -2.1403411   -1.5040819  
C    5.3604713   -1.7320203   -2.2284483  
C    4.8134480   -0.8208699   -3.2219625  
C    3.3612075   -0.7952317   -2.9446115  
N    3.0500074   -1.5667022   -1.9386409  
C    2.4521483    0.0014840   -3.7217481  
C    2.9703732    0.7393570   -4.7298758  
O    2.2390461    1.5283420   -5.5352975  
C    4.4316780    0.7349410   -5.0343919  
O    4.8335653    1.4307762   -5.9668722  
C    5.3436400   -0.0906354   -4.2228053  
H    6.3919449   -2.0142014   -2.1038958  
H    2.8845122    1.9211534   -6.1502981  
H    6.3952200   -0.0661680   -4.4754102  
C    0.0000000    0.0000000    0.0000000  
C    1.0662923   -0.0000101   -0.8334270  
C    0.4961873    0.0000065   -2.1718887  
C   -0.9663854   -0.0000848   -1.9540250  
N   -1.2632773   -0.0000083   -0.6828660  
C   -1.8985359   -0.0000514   -3.0477261  
C   -1.3925770    0.0004566   -4.3020547  
O   -2.1456378    0.0005414   -5.4151314  
C    0.0786240    0.0009326   -4.5545000  
O    0.4683767    0.0012591   -5.7221100  
C    1.0143171    0.0008444   -3.4159031  
H    2.1107200    0.0000633   -0.5721865  
H   -2.9622181   -0.0003268   -2.8593381  
H   -1.5042265    0.0009697   -6.1484419  
C    3.3003543   -0.0005276    2.9438989  
C    2.5232812   -0.0003497    4.0790748  
C    1.1623199    0.0001319    3.6520102  
C    1.1711883   -0.0000583    2.2336141  
N    2.4852299    0.0014920    1.8362361  
C    0.0000000    0.0000000    1.4700000  
C   -1.2020384   -0.0000520    2.1506477  
O   -2.3759250   -0.0003494    1.4542253  
C   -1.2314658    0.0005113    3.5655508  
O   -2.5054393    0.0008037    4.0950179  
C   -0.0764518    0.0007272    4.3195194  
H    2.8919952    0.0005619    5.0905303  
H    2.8036267   -0.0088181    0.8841339  
H   -3.0835639   -0.0000348    2.1118817  
H   -2.4360050    0.0011527    5.0545920  
H   -0.1304098    0.0013421    5.4019087  
H    4.3715549   -0.0004895    2.8367138  
