60

C    3.0593704   -2.1180899   -7.2626550  
C    4.1389211   -2.9681534   -7.1961022  
C    4.7372794   -2.9834273   -8.4908359  
C    3.9730847   -2.1160428   -9.3127706  
N    2.9609308   -1.6087838   -8.5363372  
C    4.2762827   -1.8872312  -10.6583208  
C    5.3710505   -2.5458057  -11.1836223  
O    5.7120476   -2.3582649  -12.4918890  
C    6.1456516   -3.4155057  -10.3796125  
O    7.2030472   -3.9966607  -11.0485806  
C    5.8469625   -3.6419163   -9.0521909  
H    4.4554769   -3.5113643   -6.3221983  
H    2.2640469   -0.9555065   -8.8454690  
H    3.6977328   -1.2274712  -11.2901427  
H    6.4938209   -2.9030171  -12.6510783  
H    7.6740656   -4.5683642  -10.4346579  
H    6.4585297   -4.3137357   -8.4613257  
C    2.0485056   -2.1404844   -4.9352587  
C    2.0920574   -1.7327545   -6.2250031  
C    0.9665700   -0.8221936   -6.3687260  
C    0.3351121   -0.7962141   -5.0318749  
N    0.9649965   -1.5669928   -4.1874018  
C   -0.8287665    0.0000939   -4.7555305  
C   -1.3384139    0.7372506   -5.7685426  
O   -2.4204375    1.5257894   -5.6524726  
C   -0.7235765    0.7324746   -7.1287316  
O   -1.2406162    1.4276558   -8.0031529  
C    0.4698624   -0.0926721   -7.3871122  
H   -2.5373015    1.9181275   -6.5365349  
H    0.8852523   -0.0684851   -8.3856595  
H    2.7147574   -2.8226587   -4.4315531  
C    1.0672569   -0.0000698   -0.8321910  
C    0.0000000    0.0000000    0.0000000  
C   -1.1601223   -0.0000736   -0.8778472  
C   -0.5938729   -0.0000768   -2.2438435  
N    0.7113367   -0.0001553   -2.2234123  
C   -1.4286985   -0.0001877   -3.4135239  
C   -2.7683113   -0.0006798   -3.2270524  
O   -3.6653902   -0.0008302   -4.2276970  
C   -3.3702024   -0.0010610   -1.8610774  
O   -4.5974910   -0.0013779   -1.7662963  
C   -2.4926825   -0.0008943   -0.6770658  
H   -4.5324245   -0.0012258   -3.7833954  
H   -2.9677772   -0.0012974    0.2947961  
H    2.1134391   -0.0000547   -0.5705119  
C    0.0000000    0.0000000    1.4700000  
C    1.0662921    0.0000102    2.3034270  
C    0.4961870   -0.0000064    3.6418889  
C   -0.9663858    0.0000850    3.4240247  
N   -1.2632773    0.0000084    2.1528658  
C   -1.8985362    0.0000517    4.5177257  
C   -1.3925775   -0.0004564    5.7720543  
O   -2.1456383   -0.0005410    6.8851312  
C    0.0786232   -0.0009323    6.0245000  
O    0.4683759   -0.0012588    7.1921102  
C    1.0143166   -0.0008442    4.8859032  
H    2.1107198   -0.0000632    2.0421868  
H   -2.9622183    0.0003270    4.3293377  
H   -1.5042274   -0.0009692    7.6184419  
H    2.0724152   -0.0013148    5.1109744  
