60

C   10.1847010   -2.1217749    2.9569461  
C    9.1220498   -1.6603016    2.2151351  
C    9.6541045   -0.7743375    1.2319841  
C   11.0588843   -0.7345848    1.4241829  
N   11.3472947   -1.5624387    2.4806366  
C   11.9092758    0.0402956    0.6297130  
C   11.3310507    0.7884435   -0.3773159  
O   12.1151176    1.5626205   -1.1828608  
C    9.9313373    0.7622601   -0.5845221  
O    9.5086354    1.5616140   -1.6264913  
C    9.0917678   -0.0017382    0.1990309  
H    8.0902018   -1.9283141    2.3649734  
H   12.2663498   -1.7437267    2.8418166  
H   12.9807169    0.0750429    0.7711625  
H   11.5200627    1.9950620   -1.8090936  
H    8.5522109    1.4865646   -1.6987721  
H   10.2051645   -2.8045430    3.7890324  
C    6.6685710   -0.0005968    0.8976876  
C    7.6427397   -0.0013904   -0.0483931  
C    6.9825040   -0.0021114   -1.3324975  
C    5.5334440   -0.0016402   -1.0549831  
N    5.4101705   -0.0011223    0.3153065  
C    4.5679461   -0.0016854   -2.0086701  
C    4.9837200   -0.0024604   -3.4013893  
O    4.1902296   -0.0026235   -4.3334163  
C    6.5131881   -0.0032213   -3.7184584  
O    6.8752469   -0.0041838   -4.8872922  
C    7.4587612   -0.0028165   -2.6050211  
H    8.5159867   -0.0031428   -2.8330520  
H    6.7640843    0.0001112    1.9713569  
H    4.5400776    0.0008355    0.8152882  
C    3.1301149   -0.0010311   -1.7028252  
C    2.5367768   -0.0002767   -0.4864665  
C    1.1089904    0.0001028   -0.7656183  
C    1.0177872   -0.0004148   -2.2415132  
N    2.1993578   -0.0011611   -2.7963820  
C   -0.2459209   -0.0002877   -2.9257118  
C   -1.3675319   -0.0000605   -2.1698524  
O   -2.6129313    0.0000867   -2.6748490  
C   -1.3083584    0.0000910   -0.6783232  
O   -2.3693261    0.0004206   -0.0541692  
C    0.0000000    0.0000000    0.0000000  
H    3.0096017   -0.0001007    0.4807525  
H   -0.2829630   -0.0004687   -4.0053125  
H   -3.1967441    0.0002094   -1.8949034  
C    0.0000000    0.0000000    1.4700000  
C    1.0541688    0.0001722    2.3260392  
C    0.5103138    0.0000454    3.6635956  
C   -0.9576371   -0.0002459    3.5155732  
N   -1.2018458    0.0001392    2.1615969  
C   -1.8348311   -0.0008317    4.5510609  
C   -1.2972847   -0.0009736    5.9014604  
O   -2.0050672   -0.0014265    6.9001319  
C    0.2542623   -0.0004184    6.0817573  
O    0.7184670   -0.0002256    7.2139121  
C    1.0974552   -0.0000873    4.8889129  
H    2.0940752    0.0005483    2.0517982  
H   -2.9081052   -0.0011668    4.4207061  
H    2.1707277    0.0000911    5.0223670  
H   -2.1128194   -0.0014912    1.7406791  
