60

C    7.0275667   -5.4707907   -4.5889041  
C    8.0078832   -5.0015321   -5.4322569  
C    7.7678234   -3.6073744   -5.6147285  
C    6.6180087   -3.2796417   -4.8515490  
N    6.1925598   -4.4342632   -4.2428951  
C    6.0906966   -1.9859490   -4.7959611  
C    6.7360471   -1.0051733   -5.5238204  
O    6.2635933    0.2752323   -5.5047864  
C    7.8844201   -1.3126210   -6.2916313  
O    8.4126937   -0.2277440   -6.9604446  
C    8.4050205   -2.5887163   -6.3471492  
H    8.7980863   -5.5917204   -5.8638249  
H    5.4022677   -4.5090596   -3.6282198  
H    6.8515071    0.7916520   -6.0712953  
H    9.1845503   -0.5211768   -7.4541431  
H    9.2858639   -2.7940711   -6.9441605  
H    6.8570772   -6.4631482   -4.2079618  
C    4.5939382   -2.1037472   -2.7696736  
C    4.8996526   -1.6376001   -4.0079464  
C    3.8355765   -0.7416508   -4.3950543  
C    2.8780295   -0.7238869   -3.2727447  
N    3.3957277   -1.5703485   -2.3196545  
C    1.7334695    0.0049281   -3.2500363  
C    1.4239148    0.8265213   -4.4083522  
O    0.4172710    1.5187840   -4.4841261  
C    2.4237222    0.8227865   -5.6084260  
O    2.1735667    1.5103259   -6.5892281  
C    3.6246410   -0.0037444   -5.5162756  
H    4.3119033   -0.0005912   -6.3513712  
H    5.1430571   -2.7922310   -2.1481048  
H    2.9698479   -1.7683917   -1.4328329  
C    1.1319246    0.0015678   -0.8009268  
C    0.7969914    0.0034958   -2.1169401  
C   -0.6453340    0.0035696   -2.1842669  
C   -1.1266832    0.0015410   -0.7896025  
N    0.0000000    0.0000000    0.0000000  
C   -2.4346129    0.0013913   -0.4276292  
C   -3.4350111    0.0031335   -1.4820181  
O   -4.6384614    0.0030875   -1.2583914  
C   -2.9478961    0.0050442   -2.9661074  
O   -3.7809382    0.0062135   -3.8623773  
C   -1.5113825    0.0053055   -3.2312122  
H   -2.7664565    0.0000174    0.6013448  
H   -1.1823533    0.0068381   -4.2614848  
H    2.1104316    0.0009435   -0.3488059  
C    0.8175213    0.6860729    2.3021913  
C    0.0000000    0.0000000    1.4700000  
C   -0.8887526   -0.7456559    2.3478473  
C   -0.4549825   -0.3816753    3.7138435  
N    0.5448156    0.4573574    3.6934124  
C   -1.0945674   -0.9182058    4.8835240  
C   -2.1210866   -1.7789155    4.6970523  
O   -2.8083856   -2.3554314    5.6976972  
C   -2.5824069   -2.1655116    3.3310774  
O   -3.5227682   -2.9541547    3.2362962  
C   -1.9100805   -1.6015804    2.1470656  
H   -0.7567140   -0.6349833    5.8697035  
H   -3.4728268   -2.9124471    5.2533954  
H   -2.2742832   -1.9066565    1.1752040  
H    1.6189533    1.3585343    2.0405121  
