60

C    3.5142089   -2.1153106   -4.5129152  
C    2.4637478   -1.6522264   -5.2709068  
C    3.0116762   -0.7640365   -6.2432715  
C    4.4131343   -0.7246487   -6.0281203  
N    4.6843622   -1.5548542   -4.9689641  
C    5.2762935    0.0520496   -6.8068908  
C    4.7144915    0.8024251   -7.8215305  
O    5.5115150    1.5784417   -8.6124566  
C    3.3183420    0.7766403   -8.0515738  
O    2.9126070    1.5783069   -9.0984991  
C    2.4661808    0.0108488   -7.2835173  
H    1.4296175   -1.9206222   -5.1385018  
H    5.5974265   -1.7369077   -4.5932642  
H    6.3452855    0.0865304   -6.6479254  
H    4.9267061    2.0122573   -9.2473317  
H    1.9574942    1.5033745   -9.1865220  
H    3.5211693   -2.7999403   -3.6821368  
C   -1.0641738    0.0073911   -4.6315339  
C    0.2004553    0.0078183   -5.1262942  
C    0.0892951    0.0101562   -6.5659028  
C   -1.3541077    0.0110918   -6.8714810  
N   -1.9986529    0.0089309   -5.6559783  
C   -1.8747034    0.0136545   -8.1247478  
C   -0.9518127    0.0153967   -9.2476040  
O   -1.3222275    0.0176759  -10.4142612  
C    0.5810421    0.0141943   -8.9473384  
O    1.3676723    0.0153351   -9.8846077  
C    1.0213768    0.0116830   -7.5545176  
H    1.1076402    0.0064487   -4.5486895  
H   -2.9367621    0.0144294   -8.3270860  
H   -2.9945000    0.0104949   -5.5321491  
C    1.1319245    0.0015656   -0.8009271  
C    0.7969914    0.0034943   -2.1169404  
C   -0.6453340    0.0035712   -2.1842672  
C   -1.1266833    0.0015434   -0.7896027  
N    0.0000000    0.0000000    0.0000000  
C   -2.4346131    0.0013965   -0.4276296  
C   -3.4350110    0.0031409   -1.4820182  
O   -4.6384610    0.0030975   -1.2583916  
C   -2.9478961    0.0050507   -2.9661073  
O   -3.7809383    0.0062220   -3.8623773  
C   -1.5113824    0.0053091   -3.2312124  
H    1.4821237    0.0045409   -2.9459193  
H   -2.7664564    0.0000233    0.6013449  
H    2.1104315    0.0009392   -0.3488061  
C    2.5528530    2.1414826    2.8079335  
C    2.0663498    1.7338582    4.0032312  
C    0.9804344    0.8229586    3.6752840  
C    0.9495562    0.7966882    2.1971295  
N    1.8690446    1.5676019    1.6831036  
C    0.0000000    0.0000000    1.4700000  
C   -0.8785127   -0.7372425    2.1869543  
O   -1.8187535   -1.5261249    1.6395491  
C   -0.8723269   -0.7321790    3.6796354  
O   -1.7010379   -1.4274584    4.2670412  
C    0.1115397    0.0933559    4.4024240  
H    2.4028853    2.0163452    4.9860947  
H   -2.2861435   -1.9184361    2.3990168  
H    0.0832434    0.0693689    5.4835595  
H    3.3664920    2.8238276    2.6198634  
