62

C    8.2427098   -0.0022991   -0.5964900  
C    8.4603355   -0.0065422    0.7618502  
C    9.8732957   -0.0086116    0.9571390  
C   10.4712395   -0.0051557   -0.3290878  
N    9.4529140   -0.0033182   -1.2497549  
C   11.8563967   -0.0056731   -0.5191609  
C   12.6524350   -0.0094465    0.6097700  
O   14.0113272   -0.0097670    0.4816012  
C   12.0745732   -0.0133060    1.9016201  
O   13.0002379   -0.0172132    2.9245920  
C   10.7081600   -0.0130713    2.0898820  
H    7.6948528   -0.0090755    1.5188328  
H    9.5717967    0.0097729   -2.2465881  
H   12.3183429   -0.0031963   -1.4968119  
H   14.3701771   -0.0129222    1.3785305  
H   12.5275144   -0.0196293    3.7625239  
H   10.2945324   -0.0162673    3.0915706  
C    5.7131791   -0.0007489   -0.7960729  
C    4.7577216    0.0005129   -1.7610467  
C    5.4429743    0.0025913   -3.0319755  
C    6.8863232    0.0024067   -2.7261408  
N    6.9827412    0.0007418   -1.3537011  
C    7.8703089    0.0036328   -3.6607389  
C    7.4818852    0.0054680   -5.0613312  
O    8.2934726    0.0067308   -5.9776420  
C    5.9589191    0.0059475   -5.4082873  
O    5.6198155    0.0077947   -6.5839854  
C    4.9917250    0.0042297   -4.3135796  
H    8.9232032    0.0033413   -3.4151317  
H    3.9391674    0.0043693   -4.5622684  
H    5.5966614   -0.0024254    0.2755194  
C    3.3041270    0.0001177   -1.5420435  
C    2.5845370   -0.0004780   -0.3695856  
C    1.2040004   -0.0000007   -0.7283590  
C    1.1422370    0.0006038   -2.1454373  
N    2.4348634    0.0026110   -2.6077469  
C   -0.0655187    0.0008799   -2.8497918  
C   -1.2321769    0.0002326   -2.1101398  
O   -2.4392822    0.0001149   -2.7472517  
C   -1.1911211   -0.0000007   -0.6955263  
O   -2.4371526   -0.0002319   -0.1032858  
C    0.0000000    0.0000000    0.0000000  
H    3.0031534   -0.0000661    0.6222578  
H    2.7054623   -0.0071098   -3.5745266  
H   -0.1193555    0.0014846   -3.9297472  
H   -3.1132992   -0.0000646   -2.0551783  
H   -2.3200279   -0.0004070    0.8516411  
C    2.4951002    2.0940188    2.9809380  
C    1.9440701    1.6314916    1.8291961  
C    0.8759964    0.7350050    2.2038498  
C    0.8497377    0.7130254    3.6788474  
N    1.8560616    1.5571714    4.0882609  
C   -0.0205033   -0.0168748    4.4215661  
C   -0.9962600   -0.8356168    3.7214979  
O   -1.8224391   -1.5286685    4.3006425  
C   -0.9864710   -0.8277881    2.1595606  
O   -1.8030528   -1.5133726    1.5592035  
C    0.0000000    0.0000000    1.4700000  
H    2.2509283    1.8888011    0.8310761  
H   -0.0229599   -0.0187323    5.5027230  
H    3.3143982    2.7817323    3.1139444  
H    2.0889452    1.7545833    5.0442112  
