62

C    0.7353933   -1.0963017   -9.5341195  
C    1.0823919   -0.7187255  -10.8106380  
C    0.8427507    0.6839072  -10.9095994  
C    0.3459620    1.1110509   -9.6515554  
N    0.2914229    0.0049637   -8.8402516  
C    0.0011244    2.4397526   -9.3861729  
C    0.1609862    3.3539637  -10.4093245  
O   -0.1601262    4.6646247  -10.2042234  
C    0.6548510    2.9470344  -11.6715939  
O    0.7566352    3.9748035  -12.5862944  
C    0.9949863    1.6363566  -11.9341915  
H    1.4605575   -1.3738817  -11.5766362  
H   -0.3781757    2.7716705   -8.4295311  
H    0.0237983    5.1238812  -11.0339949  
H    1.0974713    3.6153097  -13.4110347  
H    1.3705520    1.3544078  -12.9108871  
H    0.7681126   -2.0642924   -9.0641396  
C    1.7704312   -2.0997830   -5.2515185  
C    1.5928585   -1.6333167   -6.5144327  
C    0.4607457   -0.7379009   -6.4771946  
C   -0.0100421   -0.7207977   -5.0790331  
N    0.8257125   -1.5670937   -4.3875227  
C   -1.0641734    0.0073898   -4.6315339  
C   -1.7831601    0.8289562   -5.5910239  
O   -2.7459475    1.5206787   -5.2862920  
C   -1.3021140    0.8259151   -7.0770897  
O   -1.8998117    1.5134385   -7.8939923  
C   -0.1528624    0.0000283   -7.4390071  
H    2.1870135   -1.8876241   -7.3740379  
H    2.5118285   -2.7880437   -4.8793388  
H    0.7607707   -1.7654786   -3.4059558  
C    1.1319248    0.0015675   -0.8009270  
C    0.7969916    0.0034959   -2.1169404  
C   -0.6453336    0.0035703   -2.1842672  
C   -1.1266831    0.0015415   -0.7896027  
N    0.0000000    0.0000000    0.0000000  
C   -2.4346129    0.0013924   -0.4276297  
C   -3.4350110    0.0031352   -1.4820184  
O   -4.6384610    0.0030897   -1.2583919  
C   -2.9478958    0.0050460   -2.9661075  
O   -3.7809377    0.0062160   -3.8623775  
C   -1.5113821    0.0053068   -3.2312125  
H    1.4821240    0.0045436   -2.9459192  
H   -2.7664565    0.0000185    0.6013447  
H    2.1104318    0.0009428   -0.3488058  
C    2.5285572    2.1210227    2.9438989  
C    1.9331703    1.6216660    4.0790748  
C    0.8903039    0.7472258    3.6520102  
C    0.8972198    0.7527806    2.2336141  
N    1.9028376    1.5986179    1.8362361  
C    0.0000000    0.0000000    1.4700000  
C   -0.9207814   -0.7726952    2.1506477  
O   -1.8198395   -1.5274828    1.4542253  
C   -0.9436862   -0.7911793    3.5655508  
O   -1.9197945   -1.6098497    4.0950179  
C   -0.0590329   -0.0485852    4.3195194  
H    2.2150357    1.8593692    5.0905303  
H    2.1533708    1.7953814    0.8841339  
H   -2.3621246   -1.9821033    2.1118817  
H   -1.8668290   -1.5649508    5.0545920  
H   -0.1007624   -0.0827977    5.4019087  
H    3.3491200    2.8096064    2.8367138  
