64

C    5.8153188   -0.7263725   -0.7222224  
C    6.4271175   -0.0099533   -1.7246764  
C    7.4979098    0.7159381   -1.1237729  
C    7.4906930    0.3998017    0.2589533  
N    6.4553716   -0.4768589    0.4691738  
C    8.4122955    0.9374488    1.1624881  
C    9.3586069    1.8098946    0.6609807  
O   10.2825683    2.3636086    1.4992590  
C    9.3817742    2.1379259   -0.7154915  
O   10.3844540    3.0208173   -1.0596969  
C    8.4727313    1.6081108   -1.6073794  
H    6.2108881   -0.8849219    1.3533082  
H    8.4120252    0.7006259    2.2175319  
H   10.8395124    2.9337607    0.9533613  
H   10.3298276    3.1894614   -2.0053073  
H    8.5150915    1.8781179   -2.6560833  
H    4.9721402   -1.3944901   -0.7625564  
C    2.4861703   -0.0045381   -3.7159920  
C    3.4897067   -0.0059400   -2.8011219  
C    4.7313101   -0.0078373   -3.5381785  
C    4.3662424   -0.0073937   -4.9676944  
N    2.9909948   -0.0057669   -5.0074602  
C    5.2594882   -0.0083964   -5.9893676  
C    6.6749005   -0.0102471   -5.6590048  
O    7.5569792   -0.0113198   -6.5076719  
C    7.0843361   -0.0109990   -4.1516341  
O    8.2730123   -0.0128619   -3.8612797  
C    6.0304252   -0.0095082   -3.1401394  
H    3.3734532   -0.0058576   -1.7319639  
H    4.9706902   -0.0079167   -7.0312440  
H    2.4390589   -0.0035503   -5.8455586  
C    0.0000000    0.0000000    0.0000000  
C    1.0521669   -0.0011901   -0.8862341  
C    0.4917220   -0.0011956   -2.1979132  
C   -0.9187428    0.0003148   -2.0478684  
N   -1.1833170   -0.0009411   -0.7007915  
C   -1.7951699    0.0010351   -3.1372091  
C   -1.2375836    0.0005225   -4.4010425  
O   -2.0474210    0.0015361   -5.4997584  
C    0.1673583   -0.0013566   -4.5711960  
O    0.5673528   -0.0020686   -5.8915549  
C    1.0325772   -0.0023411   -3.4969890  
H    2.0953059   -0.0030648   -0.6200562  
H   -2.0989777    0.0102372   -0.2891825  
H   -2.8710931    0.0020419   -3.0295515  
H   -1.4634882    0.0006497   -6.2693594  
H    1.5290713   -0.0033151   -5.9180046  
C    0.0000000    0.0000000    1.4700000  
C    1.0521667    0.0011902    2.3562342  
C    0.4917218    0.0011957    3.6679131  
C   -0.9187428   -0.0003148    3.5178682  
N   -1.1833171    0.0009411    2.1707914  
C   -1.7951701   -0.0010350    4.6072090  
C   -1.2375837   -0.0005224    5.8710424  
O   -2.0474215   -0.0015360    6.9697579  
C    0.1673580    0.0013566    6.0411963  
O    0.5673524    0.0020687    7.3615553  
C    1.0325770    0.0023412    4.9669890  
H    2.0953057    0.0030649    2.0900562  
H   -2.0989778   -0.0102372    1.7591824  
H   -2.8710934   -0.0020419    4.4995513  
H   -1.4634884   -0.0006497    7.7393593  
H    1.5290710    0.0033153    7.3880045  
H    2.1042148    0.0039609    5.1284455  
