62

C    1.0103887   -2.9360258   -9.5358941  
C    0.3048956   -1.9747952   -8.8497578  
C    0.4769164   -0.7479711   -9.5568034  
C    1.3038460   -1.0247415  -10.6755124  
N    1.6112601   -2.3619753  -10.6316910  
C    1.6824209   -0.0439591  -11.5972150  
C    1.2175012    1.2395418  -11.3859030  
O    1.5564783    2.2355494  -12.2554297  
C    0.3917424    1.5354786  -10.2753353  
O    0.0111206    2.8595702  -10.2028630  
C    0.0180930    0.5684667   -9.3655000  
H   -0.2628706   -2.1375739   -7.9496825  
H    2.1758179   -2.8499932  -11.3033261  
H    2.3125543   -0.2484273  -12.4518065  
H    1.1333155    3.0398054  -11.9277560  
H   -0.5438545    2.9743861   -9.4254161  
H    1.1336818   -3.9853934   -9.3295335  
C    0.0902056   -0.6999988   -5.1620330  
C   -0.9736297    0.0040464   -4.6965763  
C   -1.5078552    0.7471500   -5.8133737  
C   -0.6620037    0.4159213   -6.9759627  
N    0.2881865   -0.4654795   -6.5142699  
C   -0.8409758    0.9165753   -8.2245698  
C   -1.9398965    1.8436895   -8.4375675  
O   -2.1836156    2.3491294   -9.5254244  
C   -2.8482823    2.2087973   -7.2204661  
O   -3.7763825    2.9885181   -7.3875807  
C   -2.5561684    1.6045645   -5.9229976  
H   -3.1899800    1.8623999   -5.0854251  
H    0.7463589   -1.3702750   -4.6309188  
H    1.0125327   -0.8767606   -7.0739277  
C    1.1188642    0.0008222   -0.8003808  
C    0.0000000    0.0000000    0.0000000  
C   -1.1323862    0.0008899   -0.8673528  
C   -0.6382663    0.0019679   -2.1969280  
N    0.7324016    0.0038481   -2.1202242  
C   -1.4770914    0.0027318   -3.3154808  
C   -2.8395473    0.0020945   -3.0876857  
O   -3.7039201    0.0024425   -4.1440349  
C   -3.3517868    0.0013931   -1.7684331  
O   -4.7300497    0.0012366   -1.7073121  
C   -2.5248543    0.0009123   -0.6644817  
H    1.3576314   -0.0056167   -2.9057046  
H   -4.5940032    0.0021826   -3.7685128  
H   -4.9934602    0.0007259   -0.7819913  
H   -2.9462577    0.0005603    0.3339659  
H    2.1619895    0.0009355   -0.5342068  
C    0.8175213    0.6860729    2.3021913  
C    0.0000000    0.0000000    1.4700000  
C   -0.8887526   -0.7456559    2.3478473  
C   -0.4549825   -0.3816753    3.7138435  
N    0.5448156    0.4573574    3.6934124  
C   -1.0945674   -0.9182058    4.8835240  
C   -2.1210866   -1.7789155    4.6970523  
O   -2.8083856   -2.3554314    5.6976972  
C   -2.5824069   -2.1655116    3.3310774  
O   -3.5227682   -2.9541547    3.2362962  
C   -1.9100805   -1.6015804    2.1470656  
H   -0.7567140   -0.6349833    5.8697035  
H   -3.4728268   -2.9124471    5.2533954  
H   -2.2742832   -1.9066565    1.1752040  
H    1.6189533    1.3585343    2.0405121  
