62

C    4.0363724   -3.7030430   -4.8200182  
C    2.9566837   -3.0703660   -4.2486518  
C    2.8992516   -3.4924441   -2.8873464  
C    3.9786977   -4.3898573   -2.6839436  
N    4.6477062   -4.4968249   -3.8779298  
C    4.2302029   -5.0037343   -1.4532167  
C    3.3766414   -4.7060240   -0.4087170  
O    3.5765871   -5.2773625    0.8146417  
C    2.2938672   -3.8133927   -0.5920934  
O    1.5347221   -3.6197083    0.5434806  
C    2.0449913   -3.2076328   -1.8060297  
H    5.4658233   -5.0567142   -4.0366396  
H    5.0511248   -5.6887276   -1.2917473  
H    2.8788097   -4.9395834    1.3910758  
H    0.8254638   -3.0043799    0.3338916  
H    1.2077578   -2.5284111   -1.9163757  
H    4.4179034   -3.6519909   -5.8253966  
C    2.0485056   -2.1404837   -4.9352603  
C    2.0920573   -1.7327537   -6.2250042  
C    0.9665696   -0.8221926   -6.3687266  
C    0.3351122   -0.7962137   -5.0318759  
N    0.9649967   -1.5669924   -4.1874028  
C   -0.8287665    0.0000939   -4.7555305  
C   -1.3384142    0.7372510   -5.7685427  
O   -2.4204378    1.5257899   -5.6524723  
C   -0.7235773    0.7324753   -7.1287314  
O   -1.2406172    1.4276569   -8.0031529  
C    0.4698618   -0.0926709   -7.3871130  
H    2.8005015   -2.0149668   -6.9849641  
H   -2.5373023    1.9181283   -6.5365347  
H    0.8852515   -0.0684840   -8.3856599  
C    1.0672569   -0.0000698   -0.8321910  
C    0.0000000    0.0000000    0.0000000  
C   -1.1601223   -0.0000736   -0.8778472  
C   -0.5938729   -0.0000768   -2.2438435  
N    0.7113367   -0.0001553   -2.2234123  
C   -1.4286985   -0.0001877   -3.4135239  
C   -2.7683113   -0.0006798   -3.2270524  
O   -3.6653902   -0.0008302   -4.2276970  
C   -3.3702024   -0.0010610   -1.8610774  
O   -4.5974910   -0.0013779   -1.7662963  
C   -2.4926825   -0.0008943   -0.6770658  
H   -4.5324245   -0.0012258   -3.7833954  
H   -2.9677772   -0.0012974    0.2947961  
H    2.1134391   -0.0000547   -0.5705119  
C    0.8576279    0.7185626    2.2703808  
C    0.0000000    0.0000000    1.4700000  
C   -0.8668858   -0.7285659    2.3373528  
C   -0.4876752   -0.4117774    3.6669281  
N    0.5635254    0.4678311    3.5902241  
C   -1.1297612   -0.9515493    4.7854808  
C   -2.1738724   -1.8268314    4.5576857  
O   -2.8357962   -2.3827064    5.6140350  
C   -2.5667212   -2.1555554    3.2384331  
O   -3.6226318   -3.0413663    3.1773122  
C   -1.9335634   -1.6236449    2.1344818  
H    1.0363952    0.8769718    4.3757045  
H   -0.8454472   -0.7142436    5.8013813  
H   -3.5178062   -2.9546422    5.2385129  
H   -3.8247440   -3.2102924    2.2519915  
H   -2.2566033   -1.8942483    1.1360343  
H    1.6567807    1.3889844    2.0042067  
