64

C    1.1793678    0.0025701   -7.9489253  
C    0.0376577    0.0043272   -7.1814865  
C   -1.0689733    0.0053549   -8.0814677  
C   -0.5363221    0.0038551   -9.3960806  
N    0.8315294    0.0041338   -9.2794722  
C   -1.3421989    0.0040194  -10.5385999  
C   -2.7107132    0.0054219  -10.3506017  
O   -3.5439392    0.0052940  -11.4316886  
C   -3.2611740    0.0073057   -9.0468357  
O   -4.6406322    0.0089634   -9.0259017  
C   -2.4667601    0.0074180   -7.9192577  
H    0.0062900    0.0059140   -6.1053793  
H    1.4793674   -0.0072709  -10.0463856  
H   -0.9424203    0.0030256  -11.5432791  
H   -4.4445856    0.0067011  -11.0822620  
H   -4.9308928    0.0101465   -8.1086493  
H   -2.9170764    0.0090649   -6.9335141  
C    3.1006060    0.0006268   -3.9654947  
C    4.4058792   -0.0003266   -4.3999233  
C    4.3701025   -0.0003735   -5.8258687  
C    3.0041047    0.0008689   -6.2079349  
N    2.2602341   -0.0005001   -5.0541280  
C    2.5925322    0.0014788   -7.5441225  
C    3.5778764    0.0011295   -8.5122524  
O    3.2316408    0.0020454   -9.8325298  
C    4.9461773   -0.0004816   -8.1509114  
O    5.8059951   -0.0010569   -9.2298264  
C    5.3529314   -0.0013572   -6.8329292  
H    5.2766923   -0.0020210   -3.7669344  
H    1.2572718    0.0104893   -5.0102246  
H    4.0587363    0.0013039  -10.3317057  
H    6.7093478   -0.0021242   -8.8988329  
H    6.4083298   -0.0027710   -6.5867368  
C    3.2798085    0.0005859   -1.4499648  
C    2.5571146    0.0005569   -2.5996553  
C    1.1637437    0.0001551   -2.2210359  
C    1.1336966   -0.0000198   -0.7459471  
N    2.4483513   -0.0001427   -0.3402720  
C    0.0000000    0.0000000    0.0000000  
C   -1.2757366   -0.0000185   -0.6964416  
O   -2.3524595   -0.0000640   -0.1142313  
C   -1.2676493   -0.0000870   -2.2584084  
O   -2.3355759   -0.0004098   -2.8557296  
C    0.0181563    0.0001763   -2.9516295  
H    0.0150795    0.0003323   -4.0331630  
H    4.3498549    0.0008614   -1.3200020  
H    2.7563627    0.0012824    0.6148062  
C    2.5311839    2.1237619    3.0120429  
C    1.9795631    1.6616747    1.8395852  
C    0.9223175    0.7739173    2.1983588  
C    0.8753926    0.7337535    3.6154372  
N    1.8668922    1.5631002    4.0777464  
C   -0.0496243   -0.0427881    4.3197917  
C   -0.9437528   -0.7922060    3.5801400  
O   -1.8685244   -1.5680278    4.2172520  
C   -0.9124520   -0.7656372    2.1655264  
O   -1.8671164   -1.5663939    1.5732860  
C    0.0000000    0.0000000    1.4700000  
H    2.3005065    1.9304404    0.8477417  
H    2.0679347    1.7444845    5.0445261  
H   -0.0904770   -0.0778569    5.3997470  
H   -2.3849669   -2.0011402    3.5251786  
H   -1.7775064   -1.4909735    0.6183591  
H    3.3468514    2.8078103    3.1724291  
