60

C    4.9709057   -3.0380698   -9.5932548  
C    5.1534554   -2.2498414  -10.7058365  
C    4.7993356   -0.9186219  -10.3356284  
C    4.4054090   -0.9562438   -8.9735232  
N    4.5195605   -2.2584304   -8.5541211  
C    3.9905199    0.1813347   -8.2745452  
C    3.9732675    1.3787579   -8.9630629  
O    3.5769913    2.5204248   -8.3285756  
C    4.3623249    1.4364862  -10.3225196  
O    4.2901813    2.7015940  -10.8680830  
C    4.7714770    0.3145887  -11.0127841  
H    5.4982636   -2.5924135  -11.6664326  
H    4.3186010   -2.5895504   -7.6278626  
H    3.6381830    3.2305267   -8.9807067  
H    4.5694724    2.6527351  -11.7874367  
H    5.0635093    0.3896806  -12.0537247  
H    5.1255792   -4.0949722   -9.4591252  
C    5.6703525   -2.0177346   -4.9085748  
C    4.8680133   -1.6338541   -3.8885421  
C    3.9117991   -0.7160921   -4.4884317  
C    4.2939630   -0.6601082   -5.9158072  
N    5.3241004   -1.4211364   -6.1680812  
C    3.5804909    0.1513597   -6.8632059  
C    2.5326218    0.8737501   -6.4055410  
O    1.7779987    1.6737360   -7.1779443  
C    2.1221162    0.8381010   -4.9708373  
O    1.1586084    1.5213824   -4.6244274  
C    2.8699641   -0.0020530   -4.0185824  
H    4.9187307   -1.9362135   -2.8565138  
H    1.1149868    2.0503428   -6.5715331  
H    6.5076563   -2.6965644   -4.8756220  
C    3.2573670   -0.0002921   -1.5109382  
C    2.5379468   -0.0001711   -0.3591962  
C    1.1435043    0.0000330   -0.7338498  
C    1.1092608   -0.0000085   -2.2088474  
N    2.4227562    0.0001906   -2.6182610  
C   -0.0265533   -0.0002525   -2.9515663  
C   -1.3003033   -0.0002641   -2.2514979  
O   -2.3786785   -0.0004132   -2.8306425  
C   -1.2877724    0.0000310   -0.6895608  
O   -2.3539956    0.0003306   -0.0892035  
C    0.0000000    0.0000000    0.0000000  
H    2.9384091   -0.0000370    0.6389240  
H   -0.0296290   -0.0004088   -4.0327231  
H    4.3270394   -0.0004767   -1.6439445  
C    0.8681109    0.7263879    2.2709268  
C    0.6127770    0.5096195    3.5869401  
C   -0.4920590   -0.4175482    3.6542670  
C   -0.8620974   -0.7254003    2.2596025  
N    0.0000000    0.0000000    1.4700000  
C   -1.8641242   -1.5660088    1.8976294  
C   -2.6293522   -2.2103885    2.9520183  
O   -3.5512764   -2.9839180    2.7283916  
C   -2.2549728   -1.8987399    4.4361073  
O   -2.8923672   -2.4351063    5.3323774  
C   -1.1543735   -0.9755647    4.7012123  
H    1.1382914    0.9492124    4.4159191  
H   -2.1192137   -1.7782617    0.8686553  
H   -0.9013378   -0.7652422    5.7314848  
H    1.6172880    1.3558399    1.8188057  
