60

C    5.0145033   -4.2415836   -8.8066203  
C    5.8087616   -4.9053474   -7.9005090  
C    5.3618971   -4.5272947   -6.5997446  
C    4.2831346   -3.6234633   -6.7766256  
N    4.0996711   -3.4704938   -8.1284977  
C    3.5969099   -3.0457639   -5.7041758  
C    4.0069663   -3.3869232   -4.4299535  
O    3.3714054   -2.8521428   -3.3468622  
C    5.0814646   -4.2866499   -4.2330734  
O    5.3702319   -4.5255547   -2.9053380  
C    5.7590733   -4.8567359   -5.2906057  
H    6.6121889   -5.5782903   -8.1467728  
H    3.3970533   -2.8957714   -8.5574546  
H    3.8085796   -3.2166087   -2.5662806  
H    6.1069498   -5.1426829   -2.8605773  
H    6.5783501   -5.5424448   -5.1087699  
H    5.0291134   -4.2560707   -9.8829724  
C    2.4782017   -2.1081874   -5.8783654  
C    1.9212504   -1.6438934   -7.0265428  
C    0.8545976   -0.7486147   -6.6450169  
C    0.8356627   -0.7292241   -5.1698703  
N    1.8439050   -1.5742004   -4.7669405  
C   -0.0307352   -0.0004646   -4.4215603  
C   -1.0100803    0.8193482   -5.1153366  
O   -1.8333384    1.5114170   -4.5308816  
C   -1.0083727    0.8138725   -6.6773134  
O   -1.8284266    1.4999054   -7.2724030  
C   -0.0251105   -0.0124247   -7.3732162  
H    2.2230608   -1.8995533   -8.0266247  
H   -0.0304448   -0.0104835   -8.4547392  
H    2.0835082   -1.7709325   -3.8125117  
C    3.2573670   -0.0002920   -1.5109380  
C    2.5379468   -0.0001709   -0.3591961  
C    1.1435043    0.0000332   -0.7338500  
C    1.1092609   -0.0000082   -2.2088477  
N    2.4227562    0.0001909   -2.6182613  
C   -0.0265532   -0.0002522   -2.9515663  
C   -1.3003035   -0.0002639   -2.2514981  
O   -2.3786784   -0.0004131   -2.8306429  
C   -1.2877725    0.0000312   -0.6895608  
O   -2.3539958    0.0003307   -0.0892036  
C    0.0000000    0.0000000    0.0000000  
H    2.9384091   -0.0000369    0.6389239  
H    4.3270394   -0.0004765   -1.6439446  
H    2.7280494   -0.0013406   -3.5742113  
C    0.8681109    0.7263879    2.2709268  
C    0.6127770    0.5096195    3.5869401  
C   -0.4920590   -0.4175482    3.6542670  
C   -0.8620974   -0.7254003    2.2596025  
N    0.0000000    0.0000000    1.4700000  
C   -1.8641242   -1.5660088    1.8976294  
C   -2.6293522   -2.2103885    2.9520183  
O   -3.5512764   -2.9839180    2.7283916  
C   -2.2549728   -1.8987399    4.4361073  
O   -2.8923672   -2.4351063    5.3323774  
C   -1.1543735   -0.9755647    4.7012123  
H    1.1382914    0.9492124    4.4159191  
H   -2.1192137   -1.7782617    0.8686553  
H   -0.9013378   -0.7652422    5.7314848  
H    1.6172880    1.3558399    1.8188057  
