60

C    4.8833646    0.1895904   -7.9802429  
C    5.9729944   -0.4677663   -8.5027899  
C    6.0768040   -0.0791638   -9.8712975  
C    5.0144374    0.8246429  -10.1290514  
N    4.3080610    0.9642018   -8.9602187  
C    4.8080447    1.4118986  -11.3809786  
C    5.6903548    1.0809689  -12.3910257  
O    5.5352104    1.6258845  -13.6328028  
C    6.7562843    0.1808663  -12.1534840  
O    7.5478074   -0.0477625  -13.2600844  
C    6.9603388   -0.3990627  -10.9187495  
H    6.6134996   -1.1450106   -7.9641934  
H    3.5037786    1.5518977   -8.8348201  
H    4.0001802    2.1013731  -11.5839133  
H    6.2464037    1.2669552  -14.1792814  
H    8.2429360   -0.6658412  -13.0143635  
H    7.7854355   -1.0850793  -10.7668459  
C    6.1812373   -2.0122605   -4.4510963  
C    5.2702187   -1.6303461   -3.5260204  
C    4.3856200   -0.7126510   -4.2273195  
C    4.9238565   -0.6545500   -5.6033682  
N    5.9763881   -1.4143797   -5.7405736  
C    4.3191902    0.1574946   -6.6231959  
C    3.2262690    0.8784138   -6.2838837  
O    2.5612864    1.6787220   -7.1343809  
C    2.6590319    0.8406141   -4.9036753  
O    1.6623422    1.5226360   -4.6656073  
C    3.2973506   -0.0000934   -3.8752374  
H    5.2063283   -1.9339562   -2.4950917  
H    1.8346675    2.0540005   -6.6049052  
H    7.0103754   -2.6904142   -4.3261564  
C    3.3321174    0.0004714   -1.3379332  
C    2.6974186    0.0000115   -2.5332308  
C    1.2800441   -0.0002119   -2.2052838  
C    1.2395035    0.0000643   -0.7271293  
N    2.4394063    0.0005458   -0.2131034  
C    0.0000000    0.0000000    0.0000000  
C   -1.1468701    0.0000634   -0.7169542  
O   -2.3742201    0.0000072   -0.1695492  
C   -1.1388767    0.0001606   -2.2096354  
O   -2.2206229    0.0000903   -2.7970413  
C    0.1454526    0.0001815   -2.9324239  
H   -2.9844344    0.0001023   -0.9290168  
H    0.1083580    0.0003680   -4.0135594  
H    4.3940040    0.0007617   -1.1498630  
C    0.0000000    0.0000000    1.4700000  
C    1.0541688    0.0001722    2.3260392  
C    0.5103138    0.0000454    3.6635956  
C   -0.9576371   -0.0002459    3.5155732  
N   -1.2018458    0.0001392    2.1615969  
C   -1.8348311   -0.0008317    4.5510609  
C   -1.2972847   -0.0009736    5.9014604  
O   -2.0050672   -0.0014265    6.9001319  
C    0.2542623   -0.0004184    6.0817573  
O    0.7184670   -0.0002256    7.2139121  
C    1.0974552   -0.0000873    4.8889129  
H    2.0940752    0.0005483    2.0517982  
H   -2.9081052   -0.0011668    4.4207061  
H    2.1707277    0.0000911    5.0223670  
H   -2.1128194   -0.0014912    1.7406791  
