62

C    5.9903381   -1.9450969   -4.9067699  
C    7.0428436   -2.7871984   -4.6318796  
C    7.9091854   -2.7543139   -5.7645626  
C    7.3287825   -1.8671120   -6.7068638  
N    6.1637717   -1.3948732   -6.1551784  
C    7.9142824   -1.5912477   -7.9461690  
C    9.1075859   -2.2222741   -8.2394470  
O    9.7225030   -1.9885505   -9.4353824  
C    9.7020874   -3.1111045   -7.3124271  
O   10.8890007   -3.6603430   -7.7516508  
C    9.1249003   -3.3839297   -6.0897470  
H    7.1699314   -3.3561413   -3.7268123  
H    5.5406943   -0.7379995   -6.5890822  
H    7.4769100   -0.9161704   -8.6687882  
H   10.5287635   -2.5207238   -9.4364524  
H   11.2239383   -4.2477864   -7.0673034  
H    9.6036116   -4.0694106   -5.4002324  
C    4.5310508   -2.0790480   -2.8543218  
C    4.8140929   -1.6029425   -4.0941952  
C    3.7433600   -0.7037140   -4.4544102  
C    2.8066151   -0.6948784   -3.3145762  
N    3.3414841   -1.5491127   -2.3780461  
C    1.6628945    0.0339172   -3.2649299  
C    1.3323529    0.8649109   -4.4106728  
O    0.3247029    1.5579297   -4.4623207  
C    2.3099256    0.8707266   -5.6289190  
O    2.0419949    1.5662240   -6.5993606  
C    3.5120772    0.0432794   -5.5655568  
H    4.1838702    0.0530794   -6.4130956  
H    5.0912894   -2.7726311   -2.2485463  
H    2.9319190   -1.7542581   -1.4851746  
C    1.1243410    0.0100105   -0.7919003  
C    0.7474072    0.0234665   -2.1148542  
C   -0.6787384    0.0234379   -2.1414698  
C   -1.1201748    0.0098411   -0.7935547  
N    0.0000000    0.0000000    0.0000000  
C   -2.4730818    0.0063307   -0.4408240  
C   -3.3971962    0.0170429   -1.4675058  
O   -4.7313520    0.0145490   -1.1793468  
C   -2.9763654    0.0303020   -2.8186325  
O   -4.0166484    0.0394464   -3.7247625  
C   -1.6418567    0.0334992   -3.1673480  
H   -2.8160166   -0.0041569    0.5845966  
H   -5.1938823    0.0230023   -2.0274386  
H   -3.6464680    0.0481700   -4.6127343  
H   -1.3497475    0.0435647   -4.2109234  
H    2.1062466    0.0053162   -0.3505405  
C    0.0000000    0.0000000    1.4700000  
C    1.0541688    0.0001722    2.3260392  
C    0.5103138    0.0000454    3.6635956  
C   -0.9576371   -0.0002459    3.5155732  
N   -1.2018458    0.0001392    2.1615969  
C   -1.8348311   -0.0008317    4.5510609  
C   -1.2972847   -0.0009736    5.9014604  
O   -2.0050672   -0.0014265    6.9001319  
C    0.2542623   -0.0004184    6.0817573  
O    0.7184670   -0.0002256    7.2139121  
C    1.0974552   -0.0000873    4.8889129  
H    2.0940752    0.0005483    2.0517982  
H   -2.9081052   -0.0011668    4.4207061  
H    2.1707277    0.0000911    5.0223670  
H   -2.1128194   -0.0014912    1.7406791  
