60

C    2.7831249    0.0022106   -7.2781320  
C    3.4796185    0.0023607   -6.0918082  
C    4.8669158    0.0027570   -6.4234808  
C    4.9564145    0.0031200   -7.8390780  
N    3.6730897    0.0008239   -8.3266106  
C    6.1777313    0.0038668   -8.5196486  
C    7.3296829    0.0045613   -7.7572935  
O    8.5490304    0.0056572   -8.3706464  
C    7.2609349    0.0038382   -6.3437556  
O    8.4951307    0.0042509   -5.7272303  
C    6.0564235    0.0028281   -5.6716856  
H    3.0416619    0.0010987   -5.1083525  
H    3.4214686    0.0110606   -9.2984977  
H    6.2527038    0.0040026   -9.5983429  
H    9.2093670    0.0056885   -7.6655084  
H    8.3593308    0.0037393   -4.7747795  
H    6.0352035    0.0021100   -4.5881606  
C   -0.8712823    0.0001712   -4.7267111  
C    0.4275915    0.0003835   -5.1068516  
C    0.3927417    0.0003247   -6.5612537  
C   -1.0467457   -0.0000491   -6.8995728  
N   -1.7925759   -0.0000598   -5.8282523  
C   -1.5084807   -0.0001657   -8.2604132  
C   -0.5746200    0.0004689   -9.2387986  
O   -0.8627916    0.0004379  -10.5514290  
C    0.8856694    0.0012296   -8.9294208  
O    1.6794965    0.0016586   -9.8701967  
C    1.3340973    0.0012910   -7.5255561  
H    1.3014270    0.0006485   -4.4779741  
H   -2.5664446   -0.0006472   -8.4786405  
H    0.0042915    0.0010056  -10.9956353  
C    1.0965515    0.0001358   -0.8010304  
C    0.0000000    0.0000000    0.0000000  
C   -1.1546562    0.0001470   -0.8669514  
C   -0.6372012    0.0003520   -2.2486282  
N    0.7342873    0.0007338   -2.1395014  
C   -1.4147737    0.0001354   -3.3608717  
C   -2.8576047   -0.0001047   -3.1854463  
O   -3.6427778   -0.0002491   -4.1244908  
C   -3.4275837   -0.0000725   -1.7311667  
O   -4.6406828    0.0000333   -1.5710061  
C   -2.4891866   -0.0001090   -0.6116745  
H   -2.8919121   -0.0002919    0.3920865  
H    2.1388272    0.0000662   -0.5261647  
H    1.3735873   -0.0006098   -2.9130261  
C    2.5528530    2.1414826    2.8079335  
C    2.0663498    1.7338582    4.0032312  
C    0.9804344    0.8229586    3.6752840  
C    0.9495562    0.7966882    2.1971295  
N    1.8690446    1.5676019    1.6831036  
C    0.0000000    0.0000000    1.4700000  
C   -0.8785127   -0.7372425    2.1869543  
O   -1.8187535   -1.5261249    1.6395491  
C   -0.8723269   -0.7321790    3.6796354  
O   -1.7010379   -1.4274584    4.2670412  
C    0.1115397    0.0933559    4.4024240  
H    2.4028853    2.0163452    4.9860947  
H   -2.2861435   -1.9184361    2.3990168  
H    0.0832434    0.0693689    5.4835595  
H    3.3664920    2.8238276    2.6198634  
