60

C    2.1888758   -3.2775351  -10.0122414  
C    1.6156599   -2.5955665   -8.9640004  
C    1.5189124   -1.2286088   -9.3598116  
C    2.0530944   -1.1360257  -10.6705387  
N    2.4524230   -2.3976609  -11.0358201  
C    2.1182688    0.0685561  -11.3773078  
C    1.6351150    1.2002389  -10.7495863  
O    1.6742226    2.4026082  -11.3944072  
C    1.0986926    1.1281583   -9.4419656  
O    0.6590133    2.3413358   -8.9538831  
C    1.0343283   -0.0598046   -8.7440205  
H    1.3064172   -3.0297118   -8.0286496  
H    2.8608866   -2.6440959  -11.9192266  
H    2.5243473    0.1457995  -12.3764747  
H    1.2936031    3.0505331  -10.7872937  
H    0.3121042    2.2046700   -8.0669894  
H    2.4318923   -4.3217127  -10.1101933  
C    2.0485059   -2.1404838   -4.9352596  
C    2.0920573   -1.7327542   -6.2250031  
C    0.9665701   -0.8221932   -6.3687265  
C    0.3351125   -0.7962139   -5.0318758  
N    0.9649966   -1.5669927   -4.1874018  
C   -0.8287665    0.0000939   -4.7555305  
C   -1.3384137    0.7372507   -5.7685430  
O   -2.4204376    1.5257895   -5.6524722  
C   -0.7235766    0.7324748   -7.1287316  
O   -1.2406169    1.4276564   -8.0031532  
C    0.4698625   -0.0926719   -7.3871127  
H    2.8005017   -2.0149674   -6.9849629  
H   -2.5373015    1.9181275   -6.5365349  
H    2.7147577   -2.8226585   -4.4315535  
C    1.0672569   -0.0000698   -0.8321910  
C    0.0000000    0.0000000    0.0000000  
C   -1.1601223   -0.0000736   -0.8778472  
C   -0.5938729   -0.0000768   -2.2438435  
N    0.7113367   -0.0001553   -2.2234123  
C   -1.4286985   -0.0001877   -3.4135239  
C   -2.7683113   -0.0006798   -3.2270524  
O   -3.6653902   -0.0008302   -4.2276970  
C   -3.3702024   -0.0010610   -1.8610774  
O   -4.5974910   -0.0013779   -1.7662963  
C   -2.4926825   -0.0008943   -0.6770658  
H   -4.5324245   -0.0012258   -3.7833954  
H   -2.9677772   -0.0012974    0.2947961  
H    2.1134391   -0.0000547   -0.5705119  
C    0.0000000    0.0000000    1.4700000  
C    1.0541688    0.0001722    2.3260392  
C    0.5103138    0.0000454    3.6635956  
C   -0.9576371   -0.0002459    3.5155732  
N   -1.2018458    0.0001392    2.1615969  
C   -1.8348311   -0.0008317    4.5510609  
C   -1.2972847   -0.0009736    5.9014604  
O   -2.0050672   -0.0014265    6.9001319  
C    0.2542623   -0.0004184    6.0817573  
O    0.7184670   -0.0002256    7.2139121  
C    1.0974552   -0.0000873    4.8889129  
H    2.0940752    0.0005483    2.0517982  
H   -2.9081052   -0.0011668    4.4207061  
H    2.1707277    0.0000911    5.0223670  
H   -2.1128194   -0.0014912    1.7406791  
