60

C    0.8250144   -0.7186622   -5.2242752  
C   -0.0307359   -0.0004648   -4.4215606  
C   -0.9004945    0.7274894   -5.2865473  
C   -0.5248902    0.4107213   -6.6171507  
N    0.5270177   -0.4682865   -6.5433120  
C   -1.1704588    0.9499717   -7.7339496  
C   -2.2144091    1.8247010   -7.5033093  
O   -2.8796467    2.3800522   -8.5578509  
C   -2.6036870    2.1533952   -6.1829921  
O   -3.6599161    3.0386226   -6.1189936  
C   -1.9670931    1.6219995   -5.0807707  
H    0.9978802   -0.8772754   -7.3300762  
H   -0.8889030    0.7126781   -8.7506211  
H   -3.5609066    2.9516596   -8.1804727  
H   -3.8594903    3.2075692   -5.1931261  
H   -2.2874427    1.8925660   -4.0814470  
H    1.6252973   -1.3885971   -4.9602801  
C    3.2573667   -0.0002920   -1.5109386  
C    2.5379466   -0.0001709   -0.3591965  
C    1.1435040    0.0000332   -0.7338503  
C    1.1092604   -0.0000083   -2.2088478  
N    2.4227557    0.0001908   -2.6182616  
C   -0.0265538   -0.0002523   -2.9515663  
C   -1.3003040   -0.0002641   -2.2514979  
O   -2.3786787   -0.0004133   -2.8306426  
C   -1.2877728    0.0000312   -0.6895607  
O   -2.3539959    0.0003306   -0.0892033  
C    0.0000000    0.0000000    0.0000000  
H    2.9384091   -0.0000368    0.6389234  
H    2.7280486   -0.0013408   -3.5742120  
C    6.6174604   -0.0017052    1.3537075  
C    5.3857487   -0.0012520    0.7819025  
C    5.5854748   -0.0008506   -0.6481132  
C    7.0449748   -0.0011380   -0.8640996  
N    7.6133361   -0.0012552    0.3888392  
C    7.6418659   -0.0012961   -2.0828799  
C    6.7899759   -0.0009490   -3.2605124  
O    7.2316304   -0.0009951   -4.4021085  
C    5.2415214   -0.0003889   -3.0553448  
O    4.5141878    0.0002134   -4.0393397  
C    4.7161330   -0.0005435   -1.6923266  
H    4.4446710   -0.0010222    1.3024656  
H    8.7143816   -0.0016368   -2.2193397  
H    6.8814402   -0.0021131    2.3987935  
H    8.5996517   -0.0030077    0.5738412  
C    2.4951002    2.0940188    2.9809380  
C    1.9440701    1.6314916    1.8291961  
C    0.8759964    0.7350050    2.2038498  
C    0.8497377    0.7130254    3.6788474  
N    1.8560616    1.5571714    4.0882609  
C   -0.0205033   -0.0168748    4.4215661  
C   -0.9962600   -0.8356168    3.7214979  
O   -1.8224391   -1.5286685    4.3006425  
C   -0.9864710   -0.8277881    2.1595606  
O   -1.8030528   -1.5133726    1.5592035  
C    0.0000000    0.0000000    1.4700000  
H    2.2509283    1.8888011    0.8310761  
H   -0.0229599   -0.0187323    5.5027230  
H    3.3143982    2.7817323    3.1139444  
H    2.0889452    1.7545833    5.0442112  
