64

C    3.3041270    0.0001178   -1.5420432  
C    2.5845372   -0.0004779   -0.3695853  
C    1.2040007   -0.0000006   -0.7283591  
C    1.1422373    0.0006039   -2.1454374  
N    2.4348636    0.0026110   -2.6077466  
C   -0.0655186    0.0008800   -2.8497915  
C   -1.2321770    0.0002326   -2.1101397  
O   -2.4392818    0.0001149   -2.7472515  
C   -1.1911209   -0.0000006   -0.6955262  
O   -2.4371522   -0.0002319   -0.1032858  
C    0.0000000    0.0000000    0.0000000  
H    3.0031535   -0.0000661    0.6222580  
H    2.7054625   -0.0071097   -3.5745263  
H   -3.1132993   -0.0000646   -2.0551781  
H   -2.3200286   -0.0004070    0.8516413  
C    4.7577214    0.0005130   -1.7610465  
C    5.7908194   -0.0019867   -0.8526577  
C    7.0043637   -0.0008151   -1.6022635  
C    6.6458591    0.0027297   -2.9746294  
N    5.2743991    0.0015008   -3.0355627  
C    7.5924709    0.0050319   -4.0035658  
C    8.9252705    0.0040389   -3.6404916  
O    9.8910728    0.0065391   -4.6049778  
C    9.3028369    0.0001391   -2.2765834  
O   10.6680518   -0.0008065   -2.0777636  
C    8.3695203   -0.0024070   -1.2609855  
H    5.6830208   -0.0054673    0.2184915  
H    4.7309664    0.0139153   -3.8796649  
H    7.3257212    0.0075925   -5.0514401  
H   10.7390815    0.0050008   -4.1422200  
H   10.8374850   -0.0034605   -1.1307212  
H    8.6888286   -0.0055595   -0.2253647  
C    2.3128790   -2.1207452   -5.9853285  
C    1.8202482   -1.6594121   -4.7865983  
C    0.7463172   -0.7716432   -5.0917841  
C    0.6288895   -0.7306953   -6.5047452  
N    1.5962662   -1.5596062   -7.0163174  
C   -0.3301663    0.0460748   -7.1617300  
C   -1.1864721    0.7949192   -6.3780528  
O   -2.1419349    1.5709321   -6.9678906  
C   -1.0847738    0.7675650   -4.9667673  
O   -2.0088877    1.5678198   -4.3272755  
C   -0.1387086    0.0017020   -4.3179679  
H    2.1902172   -1.9286751   -3.8121168  
H    1.7489518   -1.7404140   -7.9920106  
H   -0.4247436    0.0817402   -8.2382912  
H   -2.6233442    2.0035649   -6.2507168  
H   -1.8718324    1.4918815   -3.3780374  
H    3.1196523   -2.8045581   -6.1865150  
C    2.5528530    2.1414826    2.8079335  
C    2.0663498    1.7338582    4.0032312  
C    0.9804344    0.8229586    3.6752840  
C    0.9495562    0.7966882    2.1971295  
N    1.8690446    1.5676019    1.6831036  
C    0.0000000    0.0000000    1.4700000  
C   -0.8785127   -0.7372425    2.1869543  
O   -1.8187535   -1.5261249    1.6395491  
C   -0.8723269   -0.7321790    3.6796354  
O   -1.7010379   -1.4274584    4.2670412  
C    0.1115397    0.0933559    4.4024240  
H    2.4028853    2.0163452    4.9860947  
H   -2.2861435   -1.9184361    2.3990168  
H    0.0832434    0.0693689    5.4835595  
H    3.3664920    2.8238276    2.6198634  
