66

C    3.3248309    1.0019794   -2.9707419  
C    4.3171847    1.8273395   -3.4466429  
C    3.7620853    2.5596925   -4.5375709  
C    2.4162880    2.1354709   -4.6817650  
N    2.1840425    1.1878619   -3.7159923  
C    1.5624041    2.6490165   -5.6625516  
C    2.0763695    3.6085065   -6.5130785  
O    1.2858803    4.1438477   -7.4885534  
C    3.4166974    4.0444021   -6.3852803  
O    3.7793073    5.0044027   -7.3073733  
C    4.2597240    3.5380182   -5.4181153  
H    5.3183677    1.8926410   -3.0563057  
H    0.5357515    2.3297783   -5.7777591  
H    1.8325269    4.7843146   -7.9620979  
H    4.6981326    5.2436398   -7.1520342  
H    3.3409473    0.2943667   -2.1595802  
C    0.0000000    0.0000000    0.0000000  
C    0.9239538    0.5033534   -0.8862337  
C    0.4321091    0.2346765   -2.1979126  
C   -0.8064419   -0.4401612   -2.0478675  
N   -1.0380301   -0.5680971   -0.7007906  
C   -1.5759412   -0.8596801   -3.1372081  
C   -1.0863568   -0.5928286   -4.4010418  
O   -1.7975576   -0.9801676   -5.4997571  
C    0.1475237    0.0790377   -4.5711959  
O    0.4989009    0.2701658   -5.8915548  
C    0.9073132    0.4929513   -3.4969889  
H    1.8403134    1.0017791   -0.6200562  
H   -1.8469743   -0.9972457   -0.2891814  
H   -2.5206556   -1.3745833   -3.0295503  
H   -1.2846727   -0.7010140   -6.2693586  
H    1.3435042    0.7301105   -5.9180046  
C    6.7388224    3.2279233   -5.0461638  
C    7.8681975    4.0127129   -5.0132266  
C    7.4526192    5.3516425   -5.2762137  
C    6.0468476    5.3220446   -5.4629121  
N    5.6458973    4.0170626   -5.3184183  
C    5.2966173    6.4685014   -5.7414431  
C    5.9778755    7.6667110   -5.8328740  
O    5.2942032    8.8168768   -6.1025476  
C    7.3803506    7.7165237   -5.6501137  
O    7.9122292    8.9835640   -5.7728235  
C    8.1211477    6.5858711   -5.3755777  
H    8.8686596    3.6629847   -4.8241292  
H    4.2250021    6.4525987   -5.8849348  
H    5.9499640    9.5259881   -6.1226110  
H    8.8628708    8.9289893   -5.6353247  
H    9.1942292    6.6550339   -5.2407043  
H    6.6266214    2.1674805   -4.8984080  
C    1.1188642   -0.0008217    2.2703808  
C    0.0000000    0.0000000    1.4700000  
C   -1.1323862   -0.0008904    2.3373528  
C   -0.6382662   -0.0019682    3.6669281  
N    0.7324016   -0.0038477    3.5902241  
C   -1.4770914   -0.0027325    4.7854808  
C   -2.8395474   -0.0020958    4.5576857  
O   -3.7039201   -0.0024443    5.6140350  
C   -3.3517868   -0.0013946    3.2384331  
O   -4.7300496   -0.0012389    3.1773122  
C   -2.5248543   -0.0009135    2.1344818  
H    1.3576314    0.0056174    4.3757045  
H   -1.1067570   -0.0036993    5.8013813  
H   -4.5940033   -0.0021850    5.2385129  
H   -4.9934601   -0.0007286    2.2519915  
H   -2.9462578   -0.0005617    1.1360343  
H    2.1619896   -0.0009344    2.0042067  
