62

C    5.2002476   -3.0525812   -1.8596024  
C    6.3825392   -3.7292634   -2.0513174  
C    6.6118321   -4.5074761   -0.8781130  
C    5.5266790   -4.2631779    0.0020503  
N    4.6889407   -3.3738765   -0.6240119  
C    5.4218183   -4.8664333    1.2589818  
C    6.4306383   -5.7323088    1.6341039  
O    6.3779278   -6.3488384    2.8507086  
C    7.5216949   -5.9885829    0.7699646  
O    8.4447395   -6.8736879    1.2875765  
C    7.6259313   -5.3936018   -0.4700591  
H    7.0039021   -3.6685065   -2.9283633  
H    3.8280741   -3.0223956   -0.2453942  
H    4.5973928   -4.6843092    1.9345236  
H    7.1679097   -6.9015958    2.9111481  
H    9.1482354   -6.9916516    0.6419903  
H    8.4734891   -5.6091613   -1.1101045  
C    4.4925596   -2.1138018   -2.7420827  
C    4.8565034   -1.6946783   -3.9763676  
C    3.8030381   -0.7794111   -4.3874593  
C    2.8583247   -0.7634593   -3.2499854  
N    3.2572738   -1.5436996   -2.2824868  
C    1.6628945    0.0339172   -3.2649299  
C    1.4223697    0.7816766   -4.3659923  
O    0.3461531    1.5724678   -4.5158194  
C    2.3568196    0.7871871   -5.5300085  
O    2.0745619    1.4917549   -6.4990988  
C    3.5763784   -0.0392785   -5.4905729  
H    5.7317950   -1.9722538   -4.5384111  
H    0.4536183    1.9730618   -5.3973683  
H    4.2275600   -0.0074308   -6.3538104  
C    1.1243410    0.0100105   -0.7919003  
C    0.7474072    0.0234665   -2.1148542  
C   -0.6787384    0.0234379   -2.1414698  
C   -1.1201748    0.0098411   -0.7935547  
N    0.0000000    0.0000000    0.0000000  
C   -2.4730818    0.0063307   -0.4408240  
C   -3.3971962    0.0170429   -1.4675058  
O   -4.7313520    0.0145490   -1.1793468  
C   -2.9763654    0.0303020   -2.8186325  
O   -4.0166484    0.0394464   -3.7247625  
C   -1.6418567    0.0334992   -3.1673480  
H   -2.8160166   -0.0041569    0.5845966  
H   -5.1938823    0.0230023   -2.0274386  
H   -3.6464680    0.0481700   -4.6127343  
H   -1.3497475    0.0435647   -4.2109234  
H    2.1062466    0.0053162   -0.3505405  
C    2.5128556    2.1077716    2.9199648  
C    1.9592212    1.6432552    4.0696553  
C    0.8915788    0.7479214    3.6910360  
C    0.8684491    0.7287414    2.2159470  
N    1.8754542    1.5738793    1.8102719  
C    0.0000000    0.0000000    1.4700000  
C   -0.9772830   -0.8200135    2.1664417  
O   -1.8021297   -1.5120829    1.5842315  
C   -0.9711318   -0.8147624    3.7284083  
O   -1.7894187   -1.5009653    4.3257297  
C    0.0140216    0.0115358    4.4216297  
H    2.2638494    1.8988021    5.0689105  
H    0.0117648    0.0094386    5.5031631  
H    3.3327358    2.7953732    2.7900019  
H    2.1123206    1.7707734    0.8551938  
