60

C    0.4748703   -3.2575410  -10.3898422  
C    0.3913849   -2.5515943   -9.2120746  
C    0.1379387   -1.1914408   -9.5589869  
C    0.0762102   -1.1275287  -10.9746247  
N    0.2868954   -2.3989555  -11.4475968  
C   -0.1598591    0.0631946  -11.6683372  
C   -0.3371400    1.2102419  -10.9193177  
O   -0.5710374    2.4001138  -11.5458245  
C   -0.2787487    1.1667888   -9.5059818  
O   -0.4748305    2.3923726   -8.9036195  
C   -0.0456301   -0.0074888   -8.8209595  
H    0.5009064   -2.9657975   -8.2244341  
H    0.2893749   -2.6650501  -12.4156719  
H   -0.2079417    0.1185902  -12.7471434  
H   -0.6636362    3.0622756  -10.8485205  
H   -0.4198316    2.2750016   -7.9503085  
H    0.6550525   -4.3053211  -10.5591086  
C    2.5563879   -2.1074457   -5.9371924  
C    1.9637245   -1.6426518   -7.0671445  
C    0.9098266   -0.7472305   -6.6519876  
C    0.9372954   -0.7283018   -5.1769697  
N    1.9574933   -1.5736536   -4.8062060  
C    0.0950446    0.0004351   -4.4015596  
C   -0.9054232    0.8207085   -5.0639425  
O   -1.7097172    1.5127954   -4.4536737  
C   -0.9528376    0.8157261   -6.6252021  
O   -1.7910236    1.5021490   -7.1939971  
C    0.0078423   -0.0105934   -7.3519361  
H    2.2338703   -1.8980699   -8.0763008  
H    3.3801404   -2.7951869   -5.8355360  
H    2.2269418   -1.7707467   -3.8598449  
C    3.3321173    0.0004713   -1.3379338  
C    2.6974181    0.0000116   -2.5332314  
C    1.2800438   -0.0002119   -2.2052841  
C    1.2395034    0.0000643   -0.7271299  
N    2.4394062    0.0005460   -0.2131038  
C    0.0000000    0.0000000    0.0000000  
C   -1.1468702    0.0000634   -0.7169543  
O   -2.3742203    0.0000074   -0.1695487  
C   -1.1388770    0.0001607   -2.2096355  
O   -2.2206234    0.0000905   -2.7970411  
C    0.1454522    0.0001815   -2.9324241  
H    3.1367984   -0.0000653   -3.5160950  
H   -2.9844346    0.0001026   -0.9290167  
H    4.3940038    0.0007618   -1.1498640  
C    0.0000000    0.0000000    1.4700000  
C    1.0662921    0.0000102    2.3034270  
C    0.4961870   -0.0000064    3.6418889  
C   -0.9663858    0.0000850    3.4240247  
N   -1.2632773    0.0000084    2.1528658  
C   -1.8985362    0.0000517    4.5177257  
C   -1.3925775   -0.0004564    5.7720543  
O   -2.1456383   -0.0005410    6.8851312  
C    0.0786232   -0.0009323    6.0245000  
O    0.4683759   -0.0012588    7.1921102  
C    1.0143166   -0.0008442    4.8859032  
H    2.1107198   -0.0000632    2.0421868  
H   -2.9622183    0.0003270    4.3293377  
H   -1.5042274   -0.0009692    7.6184419  
H    2.0724152   -0.0013148    5.1109744  
