60

C   -9.2055298    3.2819167   -1.5716916  
C   -8.0351663    2.5993548   -1.8100698  
C   -8.3854954    1.2325690   -2.0192741  
C   -9.7955295    1.1406976   -1.8956284  
N  -10.2617426    2.4025727   -1.6218869  
C  -10.4906682   -0.0635375   -2.0418775  
C   -9.7489012   -1.1955990   -2.3182766  
O  -10.3771555   -2.3976555   -2.4711533  
C   -8.3411835   -1.1242290   -2.4449792  
O   -7.7457068   -2.3377117   -2.7210412  
C   -7.6547243    0.0633916   -2.3005597  
H   -7.0499954    3.0330041   -1.8295595  
H  -11.2262171    2.6494955   -1.4922798  
H  -11.5652079   -0.1402386   -1.9487003  
H   -9.6850902   -3.0459319   -2.6556732  
H   -6.7958709   -2.2015247   -2.7908125  
H   -9.3703035    4.3261817   -1.3684181  
C   -4.3137496    2.1424313   -0.2077327  
C   -5.5591243    1.7353215   -0.5466749  
C   -5.3648109    0.8246408   -1.6644416  
C   -3.9011718    0.7979212   -1.8733214  
N   -3.2797688    1.5684041   -1.0223196  
C   -3.2941076    0.0012878   -2.9038237  
C   -4.1120066   -0.7354730   -3.6896733  
O   -3.6822295   -1.5242475   -4.6892565  
C   -5.5930509   -0.7299484   -3.5035596  
O   -6.2763273   -1.4248009   -4.2555796  
C   -6.1916588    0.0955201   -2.4395132  
H   -6.4941452    2.0180139   -0.0940188  
H   -4.4926448   -1.9161851   -5.0617686  
H   -4.0287171    2.8244781    0.5774694  
C    0.0000000    0.0000000    0.0000000  
C    1.0541688   -0.0001723   -0.8560392  
C    0.5103136   -0.0000455   -2.1935956  
C   -0.9576373    0.0002461   -2.0455730  
N   -1.2018460   -0.0001389   -0.6915968  
C   -1.8348314    0.0008319   -3.0810607  
C   -1.2972851    0.0009739   -4.4314603  
O   -2.0050676    0.0014268   -5.4301316  
C    0.2542619    0.0004184   -4.6117572  
O    0.7184666    0.0002257   -5.7439122  
C    1.0974551    0.0000873   -3.4189129  
H    2.0940752   -0.0005484   -0.5817983  
H    2.1707276   -0.0000912   -3.5523673  
H   -2.1128194    0.0014915   -0.2706789  
C    3.2798086   -0.0005857    2.9199648  
C    2.5571146   -0.0005566    4.0696553  
C    1.1637436   -0.0001548    3.6910360  
C    1.1336965    0.0000200    2.2159470  
N    2.4483514    0.0001428    1.8102719  
C    0.0000000    0.0000000    1.4700000  
C   -1.2757367    0.0000186    2.1664417  
O   -2.3524596    0.0000640    1.5842315  
C   -1.2676493    0.0000873    3.7284083  
O   -2.3355761    0.0004100    4.3257297  
C    0.0181563   -0.0001760    4.4216297  
H    2.9547357   -0.0006076    5.0689105  
H    0.0150794   -0.0003319    5.5031631  
H    4.3498549   -0.0008612    2.7900019  
H    2.7563627   -0.0012824    0.8551938  
