60

C   -0.7182089   -0.7320058   -9.5193974  
C   -1.0937623    0.5315566   -9.1259044  
C   -1.0004768    1.3706250  -10.2756270  
C   -0.5594305    0.5566369  -11.3502561  
N   -0.3958508   -0.7137134  -10.8562223  
C   -0.3563473    1.0532967  -12.6413314  
C   -0.6032827    2.3960708  -12.8514721  
O   -0.4215060    2.9330247  -14.0931046  
C   -1.0434920    3.2244937  -11.7918738  
O   -1.2452104    4.5385221  -12.1606321  
C   -1.2437905    2.7352625  -10.5178807  
H   -0.1003006   -1.5106322  -11.3905932  
H   -0.0201820    0.4381682  -13.4646241  
H   -0.6464347    3.8697658  -14.0210873  
H   -1.5411645    5.0292813  -11.3878642  
H   -1.5812951    3.3940370   -9.7263091  
H   -0.6534112   -1.6445392   -8.9519094  
C    0.4920766   -0.6868682   -5.2544637  
C   -0.2963293   -0.0005341   -4.3948471  
C   -1.2145546    0.7451069   -5.2418306  
C   -0.8279327    0.3808331   -6.6218351  
N    0.1718580   -0.4583450   -6.6355552  
C   -1.5071739    0.9172630   -7.7689881  
C   -2.5265720    1.7781564   -7.5475751  
O   -3.2476973    2.3546071   -8.5241627  
C   -2.9407254    2.1650499   -6.1666507  
O   -3.8771709    2.9538489   -6.0398159  
C   -2.2282744    1.6012170   -5.0062929  
H   -3.8964326    2.9117963   -8.0574343  
H   -2.5588935    1.9065102   -4.0225665  
H    1.3019141   -1.3594050   -5.0203042  
C    3.1301146   -0.0010313   -1.7028256  
C    2.5367765   -0.0002766   -0.4864669  
C    1.1089901    0.0001027   -0.7656184  
C    1.0177865   -0.0004150   -2.2415133  
N    2.1993571   -0.0011612   -2.7963824  
C   -0.2459219   -0.0002879   -2.9257116  
C   -1.3675326   -0.0000606   -2.1698520  
O   -2.6129318    0.0000865   -2.6748483  
C   -1.3083588    0.0000910   -0.6783229  
O   -2.3693264    0.0004206   -0.0541685  
C    0.0000000    0.0000000    0.0000000  
H    3.0096016   -0.0001007    0.4807518  
H   -3.1967444    0.0002093   -1.8949026  
H    4.1849275   -0.0015114   -1.9271979  
C    2.5128556    2.1077716    2.9199648  
C    1.9592212    1.6432552    4.0696553  
C    0.8915788    0.7479214    3.6910360  
C    0.8684491    0.7287414    2.2159470  
N    1.8754542    1.5738793    1.8102719  
C    0.0000000    0.0000000    1.4700000  
C   -0.9772830   -0.8200135    2.1664417  
O   -1.8021297   -1.5120829    1.5842315  
C   -0.9711318   -0.8147624    3.7284083  
O   -1.7894187   -1.5009653    4.3257297  
C    0.0140216    0.0115358    4.4216297  
H    2.2638494    1.8988021    5.0689105  
H    0.0117648    0.0094386    5.5031631  
H    3.3327358    2.7953732    2.7900019  
H    2.1123206    1.7707734    0.8551938  
