60

C    0.8704607   -0.7166978   -5.2245476  
C    0.0139746    0.0003883   -4.4216235  
C   -0.8565292    0.7277033   -5.2863984  
C   -0.4806003    0.4117082   -6.6170942  
N    0.5722077   -0.4662428   -6.5435119  
C   -1.1267213    0.9506226   -7.7337360  
C   -2.1715667    1.8242144   -7.5028414  
O   -2.8373735    2.3791914   -8.5572204  
C   -2.5611818    2.1521250   -6.1824277  
O   -3.6183169    3.0362509   -6.1181717  
C   -1.9240431    1.6210600   -5.0803612  
H    1.0434888   -0.8745196   -7.3303952  
H   -0.8449224    0.7139142   -8.7504759  
H   -3.5192187    2.9499905   -8.1796760  
H   -3.8180642    3.2047228   -5.1922548  
H   -2.2446704    1.8910067   -4.0809587  
H    1.6714293   -1.3858893   -4.9607472  
C    3.2798087    0.0005858   -1.4499643  
C    2.5571149    0.0005569   -2.5996548  
C    1.1637440    0.0001551   -2.2210358  
C    1.1336966   -0.0000198   -0.7459468  
N    2.4483512   -0.0001426   -0.3402714  
C    0.0000000    0.0000000    0.0000000  
C   -1.2757369   -0.0000185   -0.6964416  
O   -2.3524599   -0.0000639   -0.1142315  
C   -1.2676492   -0.0000870   -2.2584080  
O   -2.3355760   -0.0004099   -2.8557298  
C    0.0181565    0.0001762   -2.9516296  
H    2.9547360    0.0006079   -3.5989102  
H    2.7563627    0.0012824    0.6148067  
C    6.5739163    0.0018725   -4.3537884  
C    7.6280851    0.0019477   -3.4977492  
C    7.0842298    0.0017744   -2.1601927  
C    5.6162789    0.0015617   -2.3082154  
N    5.3720702    0.0020319   -3.6621915  
C    4.7390849    0.0009618   -1.2727274  
C    5.2766314    0.0007207    0.0776721  
O    4.5688490    0.0002477    1.0763436  
C    6.8281782    0.0011917    0.2579688  
O    7.2923830    0.0013006    1.3901237  
C    7.6713717    0.0015469   -0.9348754  
H    8.6679915    0.0022887   -3.7719902  
H    8.7446443    0.0016666   -0.8014213  
H    6.5739161    0.0019310   -5.4316983  
H    4.4610966    0.0004681   -4.0831091  
C    0.0000000    0.0000000    1.4700000  
C    1.0662921    0.0000102    2.3034270  
C    0.4961870   -0.0000064    3.6418889  
C   -0.9663858    0.0000850    3.4240247  
N   -1.2632773    0.0000084    2.1528658  
C   -1.8985362    0.0000517    4.5177257  
C   -1.3925775   -0.0004564    5.7720543  
O   -2.1456383   -0.0005410    6.8851312  
C    0.0786232   -0.0009323    6.0245000  
O    0.4683759   -0.0012588    7.1921102  
C    1.0143166   -0.0008442    4.8859032  
H    2.1107198   -0.0000632    2.0421868  
H   -2.9622183    0.0003270    4.3293377  
H   -1.5042274   -0.0009692    7.6184419  
H    2.0724152   -0.0013148    5.1109744  
