62

C    2.8394163   -0.6446731   -6.3863694  
C    4.1896994   -0.3940198   -6.4662233  
C    4.3798405    0.5244317   -7.5408830  
C    3.0988914    0.8007943   -8.0837642  
N    2.1864102    0.0732519   -7.3608002  
C    2.9058166    1.6701029   -9.1616387  
C    4.0262322    2.2716133   -9.7011150  
O    3.8947618    3.1295048  -10.7545614  
C    5.3127555    2.0082575   -9.1735550  
O    6.3274494    2.6836073   -9.8198075  
C    5.5040024    1.1505666   -8.1103913  
H    4.9448705   -0.8215161   -5.8290762  
H    1.9321714    1.8848169   -9.5801058  
H    4.7857624    3.4323246  -10.9729252  
H    7.1622102    2.4502465   -9.4022897  
H    6.5014781    0.9682319   -7.7279343  
H    2.2906141   -1.2798660   -5.7123487  
C   -1.2456296    0.0472577   -4.5828766  
C    0.0002605    0.0520443   -5.1230708  
C   -0.1629402    0.0660975   -6.5576450  
C   -1.6164586    0.0691567   -6.8107554  
N   -2.2165808    0.0569155   -5.5727758  
C   -2.1820808    0.0818100   -8.0442937  
C   -1.3004427    0.0929479   -9.1997691  
O   -1.7128467    0.1046495  -10.3521964  
C    0.2422773    0.0896881   -8.9552087  
O    0.9944631    0.0986758   -9.9202983  
C    0.7327431    0.0759273   -7.5793068  
H    0.9277599    0.0461949   -4.5787142  
H   -3.2507684    0.0839639   -8.2080410  
H   -3.2072922    0.0572146   -5.4129706  
C    1.1243418    0.0099155   -0.7919003  
C    0.7474093    0.0234033   -2.1148542  
C   -0.6787365    0.0234953   -2.1414700  
C   -1.1201738    0.0099357   -0.7935546  
N    0.0000000    0.0000000    0.0000000  
C   -2.4730811    0.0065398   -0.4408241  
C   -3.3971945    0.0173300   -1.4675058  
O   -4.7313507    0.0149490   -1.1793472  
C   -2.9763626    0.0305537   -2.8186325  
O   -4.0166449    0.0397860   -3.7247623  
C   -1.6418538    0.0336381   -3.1673481  
H    1.4178738    0.0310004   -2.9571209  
H   -2.8160170   -0.0039189    0.5845965  
H   -5.1938800    0.0234412   -2.0274384  
H   -3.6464643    0.0484782   -4.6127344  
H    2.1062469    0.0051381   -0.3505407  
C    2.4951002    2.0940188    2.9809380  
C    1.9440701    1.6314916    1.8291961  
C    0.8759964    0.7350050    2.2038498  
C    0.8497377    0.7130254    3.6788474  
N    1.8560616    1.5571714    4.0882609  
C   -0.0205033   -0.0168748    4.4215661  
C   -0.9962600   -0.8356168    3.7214979  
O   -1.8224391   -1.5286685    4.3006425  
C   -0.9864710   -0.8277881    2.1595606  
O   -1.8030528   -1.5133726    1.5592035  
C    0.0000000    0.0000000    1.4700000  
H    2.2509283    1.8888011    0.8310761  
H   -0.0229599   -0.0187323    5.5027230  
H    3.3143982    2.7817323    3.1139444  
H    2.0889452    1.7545833    5.0442112  
