62

C    9.9712239    0.7128612   -0.8556184  
C   11.1980714    0.4634760   -0.2854245  
C   10.9793962   -0.4450343    0.7922534  
C    9.5878286   -0.7169208    0.8315639  
N    9.0050235    0.0036228   -0.1812399  
C    9.0114426   -1.5764105    1.7716945  
C    9.8552472   -2.1725240    2.6886576  
O    9.3451653   -3.0207966    3.6284784  
C   11.2463613   -1.9135017    2.6657578  
O   11.9525061   -2.5825163    3.6440846  
C   11.8156337   -1.0654949    1.7387516  
H   12.1351803    0.8854223   -0.6060188  
H    7.9515741   -1.7876684    1.8070354  
H   10.0937325   -3.3212588    4.1601107  
H   12.8828159   -2.3526577    3.5586854  
H   12.8844219   -0.8862762    1.7459195  
H    9.7087475    1.3416487   -1.6890993  
C    6.8064686    0.0000400   -4.0743113  
C    7.7887312    0.0006875   -3.1111773  
C    7.1308655    0.0013414   -1.8455495  
C    5.7357521    0.0007674   -2.1016434  
N    5.5736258    0.0019332   -3.4648494  
C    4.7795901    0.0008674   -1.0815733  
C    5.2401774    0.0012525    0.2207464  
O    4.3497078    0.0010154    1.2551914  
C    6.6282665    0.0022029    0.4964750  
O    6.9274445    0.0029069    1.8432620  
C    7.5721095    0.0023780   -0.5093510  
H    8.8489885    0.0017936   -3.2978477  
H    4.6916431   -0.0087005   -3.9444062  
H    4.8738765    0.0016566    2.0666784  
H    7.8844233    0.0034996    1.9422370  
H    6.8877384   -0.0001770   -5.1477888  
C    3.3321168    0.0004716   -1.3379341  
C    2.6974177    0.0000118   -2.5332316  
C    1.2800432   -0.0002116   -2.2052842  
C    1.2395033    0.0000644   -0.7271298  
N    2.4394059    0.0005460   -0.2131041  
C    0.0000000    0.0000000    0.0000000  
C   -1.1468704    0.0000635   -0.7169542  
O   -2.3742206    0.0000074   -0.1695488  
C   -1.1388774    0.0001608   -2.2096352  
O   -2.2206238    0.0000906   -2.7970409  
C    0.1454514    0.0001818   -2.9324241  
H    3.1367978   -0.0000649   -3.5160956  
H   -2.9844350    0.0001027   -0.9290164  
H    0.1083567    0.0003684   -4.0135594  
C    0.8681109    0.7263879    2.2709268  
C    0.6127770    0.5096195    3.5869401  
C   -0.4920590   -0.4175482    3.6542670  
C   -0.8620974   -0.7254003    2.2596025  
N    0.0000000    0.0000000    1.4700000  
C   -1.8641242   -1.5660088    1.8976294  
C   -2.6293522   -2.2103885    2.9520183  
O   -3.5512764   -2.9839180    2.7283916  
C   -2.2549728   -1.8987399    4.4361073  
O   -2.8923672   -2.4351063    5.3323774  
C   -1.1543735   -0.9755647    4.7012123  
H    1.1382914    0.9492124    4.4159191  
H   -2.1192137   -1.7782617    0.8686553  
H   -0.9013378   -0.7652422    5.7314848  
H    1.6172880    1.3558399    1.8188057  
