60

C   -3.9766060    0.7197117   -6.3656155  
C   -3.2883813    0.0017550   -7.3160641  
C   -4.2562905   -0.7258790   -8.0699206  
C   -5.5288185   -0.4091725   -7.5292776  
N   -5.3227277    0.4694918   -6.4948247  
C   -6.7182132   -0.9481638   -8.0288957  
C   -6.6212551   -1.8225659   -9.0938838  
O   -7.7513744   -2.3776546   -9.6208755  
C   -5.3606579   -2.1511937   -9.6467961  
O   -5.4305597   -3.0360824  -10.7029348  
C   -4.1868575   -1.6200535   -9.1542435  
H   -6.0437348    0.8783638   -5.9282968  
H   -7.6911966   -0.7109155   -7.6211969  
H   -7.4630483   -2.9490587  -10.3444984  
H   -4.5373004   -3.2050062  -11.0178262  
H   -3.2359815   -1.8905613   -9.5982469  
H   -3.6136563    1.3893760   -5.6048420  
C    0.0139742    0.0003878   -4.4216236  
C    1.0657034    0.0004476   -5.2806583  
C    0.5180451    0.0007112   -6.6166624  
C   -0.9494787    0.0008302   -6.4644642  
N   -1.1898345    0.0002249   -5.1097987  
C   -1.8296152    0.0014750   -7.4974515  
C   -1.2959129    0.0018670   -8.8493753  
O   -2.0065337    0.0023910   -9.8460291  
C    0.2551150    0.0014974   -9.0340855  
O    0.7160969    0.0015157  -10.1675560  
C    1.1016984    0.0010811   -7.8436448  
H    2.1063859    0.0001391   -5.0093774  
H    2.1745868    0.0010324   -7.9801520  
H   -2.0996068    0.0017007   -4.6862906  
C    3.2798085    0.0005856   -1.4499646  
C    2.5571146    0.0005565   -2.5996553  
C    1.1637435    0.0001548   -2.2210360  
C    1.1336964   -0.0000200   -0.7459470  
N    2.4483515   -0.0001429   -0.3402716  
C    0.0000000    0.0000000    0.0000000  
C   -1.2757368   -0.0000187   -0.6964415  
O   -2.3524594   -0.0000640   -0.1142314  
C   -1.2676495   -0.0000873   -2.2584081  
O   -2.3355761   -0.0004101   -2.8557295  
C    0.0181563    0.0001759   -2.9516296  
H    2.9547358    0.0006075   -3.5989104  
H    4.3498547    0.0008611   -1.3200019  
H    2.7563628    0.0012823    0.6148064  
C    2.5128556    2.1077716    2.9199648  
C    1.9592212    1.6432552    4.0696553  
C    0.8915788    0.7479214    3.6910360  
C    0.8684491    0.7287414    2.2159470  
N    1.8754542    1.5738793    1.8102719  
C    0.0000000    0.0000000    1.4700000  
C   -0.9772830   -0.8200135    2.1664417  
O   -1.8021297   -1.5120829    1.5842315  
C   -0.9711318   -0.8147624    3.7284083  
O   -1.7894187   -1.5009653    4.3257297  
C    0.0140216    0.0115358    4.4216297  
H    2.2638494    1.8988021    5.0689105  
H    0.0117648    0.0094386    5.5031631  
H    3.3327358    2.7953732    2.7900019  
H    2.1123206    1.7707734    0.8551938  
