62

C    2.2309527   -2.0432771   -7.6542537  
C    3.3081849   -2.8928946   -7.7551863  
C    3.7097909   -2.8952548   -9.1238739  
C    2.8335025   -2.0208158   -9.8162623  
N    1.9466521   -1.5219538   -8.8947151  
C    2.9357942   -1.7789020  -11.1895077  
C    3.9411958   -2.4313855  -11.8762473  
O    4.0863365   -2.2310596  -13.2185647  
C    4.8251430   -3.3079592  -11.2031406  
O    5.7725020   -3.8816939  -12.0257486  
C    4.7246486   -3.5472950   -9.8484656  
H    3.7494750   -3.4441018   -6.9425195  
H    1.2121997   -0.8664331   -9.0918274  
H    2.2709779   -1.1137103  -11.7231194  
H    4.8359889   -2.7735162  -13.4961029  
H    6.3283632   -4.4587663  -11.4931981  
H    5.4161005   -4.2241236   -9.3603320  
C    1.5730420   -2.0888205   -5.2039063  
C    1.4267860   -1.6687787   -6.4820906  
C    0.2928030   -0.7579755   -6.4501582  
C   -0.1353499   -0.7453435   -5.0348454  
N    0.6114415   -1.5235255   -4.2995057  
C   -1.2456329    0.0471727   -4.5828766  
C   -1.8982727    0.7934559   -5.5029072  
O   -2.9511436    1.5798092   -5.2215677  
C   -1.4899798    0.8022328   -6.9386586  
O   -2.1295859    1.5052150   -7.7209246  
C   -0.3478305   -0.0192634   -7.3774789  
H   -3.1964695    1.9804398   -6.0750680  
H   -0.0836669    0.0148370   -8.4259469  
H    2.3057724   -2.7751201   -4.8101157  
C    1.1243410    0.0099923   -0.7919003  
C    0.7474076    0.0234544   -2.1148543  
C   -0.6787381    0.0234490   -2.1414700  
C   -1.1201745    0.0098592   -0.7935546  
N    0.0000000    0.0000000    0.0000000  
C   -2.4730816    0.0063709   -0.4408240  
C   -3.3971958    0.0170982   -1.4675058  
O   -4.7313517    0.0146259   -1.1793471  
C   -2.9763648    0.0303504   -2.8186324  
O   -4.0166480    0.0395118   -3.7247624  
C   -1.6418562    0.0335260   -3.1673481  
H    1.4178717    0.0310972   -2.9571209  
H   -2.8160166   -0.0041111    0.5845966  
H   -5.1938818    0.0230867   -2.0274384  
H   -3.6464675    0.0482293   -4.6127343  
H    2.1062467    0.0052819   -0.3505407  
C    0.8400945    0.7047457    2.2710304  
C    0.0000000    0.0000000    1.4700000  
C   -0.8844236   -0.7423113    2.3369512  
C   -0.4878984   -0.4098547    3.7186280  
N    0.5629682    0.4714286    3.6095011  
C   -1.0836927   -0.9095027    4.8308716  
C   -2.1891196   -1.8367527    4.6554461  
O   -2.7906899   -2.3413415    5.5944904  
C   -2.6257283   -2.2031529    3.2011665  
O   -3.5549479   -2.9829990    3.0410059  
C   -1.9068976   -1.5999348    2.0816745  
H   -0.7774656   -0.6525820    5.8354244  
H   -2.2155208   -1.8586617    1.0779135  
H    1.6384792    1.3747609    1.9961646  
H    1.0518368    0.8833920    4.3830260  
