60

C    2.4108149    0.0007336   -8.1502700  
C    3.4989655    0.0009321   -7.3086076  
C    4.6629948    0.0010885   -8.1330080  
C    4.2189401    0.0012620   -9.4801312  
N    2.8463638   -0.0009112   -9.4547397  
C    5.0990083    0.0017492  -10.5665342  
C    6.4519929    0.0023740  -10.2879478  
O    7.3552628    0.0032188  -11.3112337  
C    6.9145392    0.0018370   -8.9504625  
O    8.2895523    0.0021499   -8.8378435  
C    6.0469026    0.0010831   -7.8782065  
H    3.4587071   -0.0001446   -6.2327959  
H    2.2509428    0.0092403  -10.2630423  
H    4.7669225    0.0017398  -11.5955733  
H    8.2306810    0.0032436  -10.9026898  
H    8.5181765    0.0017766   -7.9033194  
H    6.4306741    0.0005031   -6.8646995  
C   -0.0307354   -0.0004645   -4.4215603  
C    1.0331817   -0.0004856   -5.2580174  
C    0.4592711   -0.0007207   -6.5948520  
C   -1.0026758   -0.0009307   -6.3728284  
N   -1.2959501   -0.0007011   -5.1008297  
C   -1.9379341   -0.0011510   -7.4638729  
C   -1.4355456   -0.0007720   -8.7196356  
O   -2.1917699   -0.0009256   -9.8305658  
C    0.0349311   -0.0001817   -8.9762653  
O    0.4213604    0.0000163  -10.1449796  
C    0.9738596   -0.0000094   -7.8403354  
H    2.0783481   -0.0002672   -4.9997493  
H   -3.0010760   -0.0015083   -7.2724592  
H   -1.5524476   -0.0005374  -10.5656984  
C    3.2573669   -0.0002919   -1.5109381  
C    2.5379467   -0.0001709   -0.3591962  
C    1.1435042    0.0000332   -0.7338501  
C    1.1092607   -0.0000081   -2.2088477  
N    2.4227561    0.0001910   -2.6182614  
C   -0.0265534   -0.0002522   -2.9515663  
C   -1.3003036   -0.0002639   -2.2514981  
O   -2.3786785   -0.0004131   -2.8306428  
C   -1.2877726    0.0000312   -0.6895608  
O   -2.3539957    0.0003306   -0.0892035  
C    0.0000000    0.0000000    0.0000000  
H    2.9384091   -0.0000368    0.6389238  
H    4.3270391   -0.0004764   -1.6439447  
H    2.7280492   -0.0013405   -3.5742114  
C    2.4951002    2.0940188    2.9809380  
C    1.9440701    1.6314916    1.8291961  
C    0.8759964    0.7350050    2.2038498  
C    0.8497377    0.7130254    3.6788474  
N    1.8560616    1.5571714    4.0882609  
C   -0.0205033   -0.0168748    4.4215661  
C   -0.9962600   -0.8356168    3.7214979  
O   -1.8224391   -1.5286685    4.3006425  
C   -0.9864710   -0.8277881    2.1595606  
O   -1.8030528   -1.5133726    1.5592035  
C    0.0000000    0.0000000    1.4700000  
H    2.2509283    1.8888011    0.8310761  
H   -0.0229599   -0.0187323    5.5027230  
H    3.3143982    2.7817323    3.1139444  
H    2.0889452    1.7545833    5.0442112  
