64

C   -0.1918093   -0.6567193   -5.1170602  
C   -0.1066354   -0.3930688   -6.4645397  
C   -1.1576407    0.5190708   -6.7775728  
C   -1.8568371    0.7783666   -5.5710006  
N   -1.2456334    0.0471639   -4.5828767  
C   -2.9578877    1.6374766   -5.5046090  
C   -3.3602483    2.2461477   -6.6775553  
O   -4.4293569    3.0946485   -6.6693814  
C   -2.6756822    1.9997977   -7.8914322  
O   -3.1976931    2.6804256   -8.9719849  
C   -1.5895575    1.1521743   -7.9577217  
H    0.6225531   -0.8080758   -7.1391113  
H   -3.4951651    1.8391732   -4.5881742  
H   -4.5387591    3.4047763   -7.5777414  
H   -2.6783306    2.4586747   -9.7508904  
H    0.4148926   -1.2922824   -4.4950222  
C    1.1243406    0.0100009   -0.7919006  
C    0.7474076    0.0234600   -2.1148541  
C   -0.6787382    0.0234440   -2.1414701  
C   -1.1201747    0.0098511   -0.7935543  
N    0.0000000    0.0000000    0.0000000  
C   -2.4730817    0.0063527   -0.4408239  
C   -3.3971961    0.0170733   -1.4675058  
O   -4.7313519    0.0145913   -1.1793472  
C   -2.9763651    0.0303289   -2.8186326  
O   -4.0166478    0.0394824   -3.7247625  
C   -1.6418566    0.0335141   -3.1673479  
H    1.4178714    0.0311078   -2.9571209  
H   -2.8160166   -0.0041319    0.5845963  
H   -5.1938823    0.0230486   -2.0274382  
H   -3.6464679    0.0482029   -4.6127345  
H    2.1062468    0.0052974   -0.3505403  
C   -0.4189206   -0.2891925   -9.6701787  
C    0.1717069   -0.1280176  -10.9021068  
C    0.0451798    1.2501564  -11.2474004  
C   -0.6368819    1.8860873  -10.1786109  
N   -0.9056486    0.9224596   -9.2385029  
C   -0.9358287    3.2518907  -10.1783636  
C   -0.5387412    3.9892155  -11.2769317  
O   -0.8049259    5.3269462  -11.3282661  
C    0.1425110    3.3726911  -12.3533195  
O    0.4708202    4.2411567  -13.3737724  
C    0.4375224    2.0252890  -12.3543605  
H    0.6355934   -0.9080529  -11.4811995  
H   -1.4555233    3.7425409   -9.3669562  
H   -0.4479625    5.6443445  -12.1679694  
H    0.9276683    3.7452425  -14.0600392  
H    0.9603423    1.5809866  -13.1932485  
H   -0.5327680   -1.1728580   -9.0659154  
C    2.3971438    2.0127888    3.1728260  
C    1.9431056    1.6308205    1.9564670  
C    0.8496017    0.7127664    2.2356185  
C    0.7794028    0.6545384    3.7115134  
N    1.6840587    1.4146091    4.2663826  
C   -0.1885723   -0.1578550    4.3957118  
C   -1.0476298   -0.8789867    3.6398520  
O   -2.0015663   -1.6796266    4.1448486  
C   -1.0022026   -0.8410666    2.1483229  
O   -1.8147390   -1.5232959    1.5241687  
C    0.0000000    0.0000000    1.4700000  
H    2.3054237    1.9346118    0.9892483  
H   -0.2170646   -0.1815267    5.4753125  
H   -2.4487139   -2.0549881    3.3649027  
H    3.2048689    2.6911772    3.3971983  
