66

C    0.8639127   -0.9785014   -9.5120948  
C    1.2131919   -0.5614964  -10.7756526  
C    0.9608036    0.8411006  -10.8358301  
C    0.4542450    1.2275891   -9.5685683  
N    0.4064071    0.0983733   -8.7893375  
C    0.0956904    2.5449290   -9.2671658  
C    0.2516252    3.4893702  -10.2631045  
O   -0.0827593    4.7906157  -10.0223561  
C    0.7550888    3.1231797  -11.5340281  
O    0.8513809    4.1774981  -12.4186095  
C    1.1087585    1.8237328  -11.8321566  
H    1.6010239   -1.1910183  -11.5581366  
H   -0.2911053    2.8459145   -8.3033206  
H    0.1006359    5.2750193  -10.8378230  
H    1.1993698    3.8448329  -13.2515812  
H    1.4914415    1.5732308  -12.8146446  
H    0.9035931   -1.9591463   -9.0696923  
C    1.9332186   -2.1183845   -5.2802478  
C    1.0132699   -1.6573355   -4.3672335  
C    0.1425864   -0.7692371   -5.0656542  
C    0.5838245   -0.7278052   -6.4130661  
N    1.6739349   -1.5567573   -6.5085374  
C   -0.0442370    0.0493840   -7.3909739  
C   -1.1378295    0.7981573   -7.0016523  
O   -1.7886902    1.5745666   -7.9163018  
C   -1.5929066    0.7703229   -5.6618962  
O   -2.6929017    1.5705682   -5.4317601  
C   -0.9736297    0.0040464   -4.6965763  
H    0.9751829   -1.9269942   -3.3256834  
H    2.1939842   -1.7372808   -7.3481452  
H   -2.5110529    2.0070699   -7.4425944  
H   -2.9357434    1.4942921   -4.5039595  
H    2.7546831   -2.8023048   -5.1521544  
C    1.1188642    0.0008222   -0.8003808  
C    0.0000000    0.0000000    0.0000000  
C   -1.1323862    0.0008899   -0.8673528  
C   -0.6382663    0.0019679   -2.1969280  
N    0.7324016    0.0038481   -2.1202242  
C   -1.4770914    0.0027318   -3.3154808  
C   -2.8395473    0.0020945   -3.0876857  
O   -3.7039201    0.0024425   -4.1440349  
C   -3.3517868    0.0013931   -1.7684331  
O   -4.7300497    0.0012366   -1.7073121  
C   -2.5248543    0.0009123   -0.6644817  
H    1.3576314   -0.0056167   -2.9057046  
H   -4.5940032    0.0021826   -3.7685128  
H   -4.9934602    0.0007259   -0.7819913  
H   -2.9462577    0.0005603    0.3339659  
H    2.1619895    0.0009355   -0.5342068  
C    0.0000000    0.0000000    1.4700000  
C    1.0521667    0.0011902    2.3562342  
C    0.4917218    0.0011957    3.6679131  
C   -0.9187428   -0.0003148    3.5178682  
N   -1.1833171    0.0009411    2.1707914  
C   -1.7951701   -0.0010350    4.6072090  
C   -1.2375837   -0.0005224    5.8710424  
O   -2.0474215   -0.0015360    6.9697579  
C    0.1673580    0.0013566    6.0411963  
O    0.5673524    0.0020687    7.3615553  
C    1.0325770    0.0023412    4.9669890  
H    2.0953057    0.0030649    2.0900562  
H   -2.0989778   -0.0102372    1.7591824  
H   -2.8710934   -0.0020419    4.4995513  
H   -1.4634884   -0.0006497    7.7393593  
H    1.5290710    0.0033153    7.3880045  
H    2.1042148    0.0039609    5.1284455  
