62

C   -0.3475984    1.0635007   -0.8003803  
C    0.0000000    0.0000000    0.0000000  
C    0.3501620   -1.0768871   -0.8673523  
C    0.1959735   -0.6074384   -2.1969276  
N   -0.2306831    0.6951354   -2.1202235  
C    0.4552593   -1.4051844   -3.3154805  
C    0.8781887   -2.7003362   -3.0876855  
O    1.1457887   -3.5222424   -4.1440351  
C    1.0376356   -3.1871284   -1.7684326  
O    1.4650070   -4.4974569   -1.7073122  
C    0.7817669   -2.4007771   -0.6644814  
H   -0.4154881    1.2925036   -2.9057036  
H    1.4219368   -4.3684050   -3.7685131  
H    1.5471424   -4.7477352   -0.7819918  
H    0.9127248   -2.8013158    0.3339653  
H   -0.6710458    2.0552119   -0.5342058  
C    1.3279961    2.3939411   -5.4763640  
C    1.2278548    1.4739118   -4.4888937  
C    0.6450942    0.3026108   -5.1252453  
C    0.4523334    0.7019820   -6.5358938  
N    0.8508958    1.9268350   -6.7477262  
C   -0.1100449   -0.1925692   -7.5098525  
C   -0.4634190   -1.4299792   -7.0935863  
O   -0.9995530   -2.3666398   -7.8943789  
C   -0.2810452   -1.8628765   -5.6767233  
O   -0.6251394   -3.0037903   -5.3682831  
C    0.2979504   -0.9269279   -4.6965757  
H    1.5141776    1.5772973   -3.4562241  
H   -0.2397453    0.1258650   -8.5339072  
H   -1.1421315   -3.1364754   -7.3145705  
C    2.3405845    4.3640400   -4.2708018  
C    1.8522933    3.7643559   -5.3870570  
C    1.9479119    4.7275474   -6.4584838  
C    2.5361799    5.9462634   -5.8707233  
N    2.7504514    5.6606423   -4.5420404  
C    2.7893288    7.0874136   -6.5602136  
C    2.4602487    7.1173789   -7.9756089  
O    2.6501524    8.0981069   -8.6830047  
C    1.8361586    5.8381052   -8.6188631  
O    1.5546761    5.8515939   -9.8095961  
C    1.6103876    4.6685348   -7.7732960  
H    3.2214901    7.9702894   -6.1100172  
H    1.1780980    3.7867464   -8.2263966  
H    2.4352956    3.9679273   -3.2727965  
H    3.1457565    6.2955376   -3.8729445  
C    2.5311839    2.1237619    3.0120429  
C    1.9795631    1.6616747    1.8395852  
C    0.9223175    0.7739173    2.1983588  
C    0.8753926    0.7337535    3.6154372  
N    1.8668922    1.5631002    4.0777464  
C   -0.0496243   -0.0427881    4.3197917  
C   -0.9437528   -0.7922060    3.5801400  
O   -1.8685244   -1.5680278    4.2172520  
C   -0.9124520   -0.7656372    2.1655264  
O   -1.8671164   -1.5663939    1.5732860  
C    0.0000000    0.0000000    1.4700000  
H    2.3005065    1.9304404    0.8477417  
H    2.0679347    1.7444845    5.0445261  
H   -0.0904770   -0.0778569    5.3997470  
H   -2.3849669   -2.0011402    3.5251786  
H   -1.7775064   -1.4909735    0.6183591  
H    3.3468514    2.8078103    3.1724291  
