64

C    0.3404993   -0.9881350   -9.5654316  
C    0.6412014   -0.6002851  -10.8505854  
C    0.3995483    0.8032888  -10.9292232  
C   -0.0506964    1.2203913   -9.6504611  
N   -0.0768047    0.1076851   -8.8468324  
C   -0.3842933    2.5471053   -9.3617879  
C   -0.2608369    3.4696151  -10.3825288  
O   -0.5729364    4.7787697  -10.1551072  
C    0.1863531    3.0727629  -11.6652407  
O    0.2558319    4.1079732  -12.5745556  
C    0.5153704    1.7640526  -11.9508112  
H    0.9905740   -1.2493686  -11.6352008  
H   -0.7281922    2.8713889   -8.3892786  
H   -0.4188602    5.2447265  -10.9872179  
H    0.5660643    3.7550537  -13.4140845  
H    0.8548581    1.4899049  -12.9428137  
H    0.3893118   -1.9599953   -9.1049284  
C    1.5640652   -2.0395934   -5.3856075  
C    0.7230585   -1.5862625   -4.4205823  
C   -0.2043663   -0.6833979   -5.0605464  
C    0.1679207   -0.6476541   -6.4877522  
N    1.2472261   -1.4907315   -6.6189377  
C   -0.4698103    0.0915038   -7.4304339  
C   -1.5980270    0.9063960   -7.0113715  
O   -2.2374220    1.6070672   -7.7850216  
C   -2.0096055    0.8840405   -5.5047499  
O   -2.9576824    1.5662687   -5.1400911  
C   -1.2456329    0.0471727   -4.5828766  
H    0.7494879   -1.8536712   -3.3792333  
H    2.3887876   -2.7282964   -5.2995223  
H    1.7291275   -1.6799011   -7.4786076  
C    1.1243410    0.0099923   -0.7919003  
C    0.7474076    0.0234544   -2.1148543  
C   -0.6787381    0.0234490   -2.1414700  
C   -1.1201745    0.0098592   -0.7935546  
N    0.0000000    0.0000000    0.0000000  
C   -2.4730816    0.0063709   -0.4408240  
C   -3.3971958    0.0170982   -1.4675058  
O   -4.7313517    0.0146259   -1.1793471  
C   -2.9763648    0.0303504   -2.8186324  
O   -4.0166480    0.0395118   -3.7247624  
C   -1.6418562    0.0335260   -3.1673481  
H    1.4178717    0.0310972   -2.9571209  
H   -2.8160166   -0.0041111    0.5845966  
H   -5.1938818    0.0230867   -2.0274384  
H   -3.6464675    0.0482293   -4.6127343  
H    2.1062467    0.0052819   -0.3505407  
C    2.5285572    2.1210227    2.9438989  
C    1.9331703    1.6216660    4.0790748  
C    0.8903039    0.7472258    3.6520102  
C    0.8972198    0.7527806    2.2336141  
N    1.9028376    1.5986179    1.8362361  
C    0.0000000    0.0000000    1.4700000  
C   -0.9207814   -0.7726952    2.1506477  
O   -1.8198395   -1.5274828    1.4542253  
C   -0.9436862   -0.7911793    3.5655508  
O   -1.9197945   -1.6098497    4.0950179  
C   -0.0590329   -0.0485852    4.3195194  
H    2.2150357    1.8593692    5.0905303  
H    2.1533708    1.7953814    0.8841339  
H   -2.3621246   -1.9821033    2.1118817  
H   -1.8668290   -1.5649508    5.0545920  
H   -0.1007624   -0.0827977    5.4019087  
H    3.3491200    2.8096064    2.8367138  
