60

C    1.2650305   -1.1106139   -9.4905592  
C    1.6998707   -0.7349231  -10.7404548  
C    1.4674096    0.6674791  -10.8580540  
C    0.8842645    1.0964320   -9.6382716  
N    0.7736688   -0.0084044   -8.8309793  
C    0.5215435    2.4254393   -9.3996067  
C    0.7519754    3.3381021  -10.4106088  
O    0.4171166    4.6489822  -10.2304003  
C    1.3324934    2.9293558  -11.6348406  
O    1.4974247    3.9557274  -12.5418707  
C    1.6903267    1.6183751  -11.8710837  
H    2.1305131   -1.3911570  -11.4772710  
H    0.0765786    2.7587328   -8.4721782  
H    0.6581990    5.1069995  -11.0460991  
H    1.8948531    3.5950524  -13.3403489  
H    2.1329500    1.3350188  -12.8188560  
H    1.2651866   -2.0778597   -9.0179142  
C    1.9999918   -2.1070890   -5.1447766  
C    1.9105667   -1.6426495   -6.4177158  
C    0.7784254   -0.7475272   -6.4606980  
C    0.2115582   -0.7283877   -5.0986826  
N    0.9973786   -1.5733444   -4.3494008  
C   -0.8712826    0.0001710   -4.7267111  
C   -1.5219797    0.8200163   -5.7351666  
O   -2.5037637    1.5119151   -5.4992068  
C   -0.9387700    0.8148045   -7.1841813  
O   -1.4783591    1.5008668   -8.0417488  
C    0.2330300   -0.0112902   -7.4640108  
H    2.5631036   -1.8981143   -7.2335262  
H    2.7138547   -2.7945382   -4.7208625  
H    0.8643846   -1.7702172   -3.3744130  
C    1.0965514    0.0001359   -0.8010305  
C    0.0000000    0.0000000    0.0000000  
C   -1.1546563    0.0001470   -0.8669513  
C   -0.6372014    0.0003519   -2.2486282  
N    0.7342871    0.0007337   -2.1395014  
C   -1.4147739    0.0001352   -3.3608717  
C   -2.8576049   -0.0001048   -3.1854462  
O   -3.6427779   -0.0002494   -4.1244907  
C   -3.4275840   -0.0000725   -1.7311666  
O   -4.6406831    0.0000333   -1.5710060  
C   -2.4891867   -0.0001091   -0.6116744  
H   -2.8919122   -0.0002918    0.3920866  
H    2.1388272    0.0000663   -0.5261648  
H    1.3735872   -0.0006099   -2.9130262  
C    0.0000000    0.0000000    1.4700000  
C    1.0541688    0.0001722    2.3260392  
C    0.5103138    0.0000454    3.6635956  
C   -0.9576371   -0.0002459    3.5155732  
N   -1.2018458    0.0001392    2.1615969  
C   -1.8348311   -0.0008317    4.5510609  
C   -1.2972847   -0.0009736    5.9014604  
O   -2.0050672   -0.0014265    6.9001319  
C    0.2542623   -0.0004184    6.0817573  
O    0.7184670   -0.0002256    7.2139121  
C    1.0974552   -0.0000873    4.8889129  
H    2.0940752    0.0005483    2.0517982  
H   -2.9081052   -0.0011668    4.4207061  
H    2.1707277    0.0000911    5.0223670  
H   -2.1128194   -0.0014912    1.7406791  
