60

C    0.7378049   -2.9691386   -9.4461637  
C    0.0466971   -1.9850120   -8.7780831  
C    0.2234704   -0.7775372   -9.5165663  
C    1.0383391   -1.0891653  -10.6349593  
N    1.3343235   -2.4276360  -10.5607448  
C    1.4176489   -0.1347867  -11.5836810  
C    0.9658778    1.1576602  -11.4002117  
O    1.3061729    2.1288988  -12.2968214  
C    0.1522793    1.4882377  -10.2904401  
O   -0.2160293    2.8170886  -10.2474663  
C   -0.2220856    0.5472886   -9.3539618  
H   -0.5147683   -2.1204927   -7.8695715  
H    1.8887993   -2.9370849  -11.2248215  
H    2.0386297   -0.3658709  -12.4381885  
H    0.8929274    2.9447483  -11.9855624  
H   -0.7633065    2.9559782   -9.4684924  
H    0.8536075   -4.0141869   -9.2150298  
C   -0.0323134   -0.6779777   -5.1766170  
C   -1.0641734    0.0073898   -4.6315339  
C   -1.6436470    0.7548044   -5.7370117  
C   -0.8149132    0.3925081   -6.9068520  
N    0.1311772   -0.4471328   -6.5845079  
C   -1.0682723    0.9310665   -8.2148468  
C   -2.1027597    1.7921066   -8.3481908  
O   -2.4529912    2.3704387   -9.5096168  
C   -2.9577285    2.1770345   -7.1867179  
O   -3.8822556    2.9660878   -7.3813055  
C   -2.6775427    1.6110359   -5.8551526  
H   -3.2210373    2.9272097   -9.2876634  
H   -3.3201087    1.9149462   -5.0396906  
H    0.6514401   -1.3512741   -4.6845539  
C    1.1319248    0.0015675   -0.8009270  
C    0.7969916    0.0034959   -2.1169404  
C   -0.6453336    0.0035703   -2.1842672  
C   -1.1266831    0.0015415   -0.7896027  
N    0.0000000    0.0000000    0.0000000  
C   -2.4346129    0.0013924   -0.4276297  
C   -3.4350110    0.0031352   -1.4820184  
O   -4.6384610    0.0030897   -1.2583919  
C   -2.9478958    0.0050460   -2.9661075  
O   -3.7809377    0.0062160   -3.8623775  
C   -1.5113821    0.0053068   -3.2312125  
H    1.4821240    0.0045436   -2.9459192  
H   -2.7664565    0.0000185    0.6013447  
H    2.1104318    0.0009428   -0.3488058  
C    0.8400945    0.7047457    2.2710304  
C    0.0000000    0.0000000    1.4700000  
C   -0.8844236   -0.7423113    2.3369512  
C   -0.4878984   -0.4098547    3.7186280  
N    0.5629682    0.4714286    3.6095011  
C   -1.0836927   -0.9095027    4.8308716  
C   -2.1891196   -1.8367527    4.6554461  
O   -2.7906899   -2.3413415    5.5944904  
C   -2.6257283   -2.2031529    3.2011665  
O   -3.5549479   -2.9829990    3.0410059  
C   -1.9068976   -1.5999348    2.0816745  
H   -0.7774656   -0.6525820    5.8354244  
H   -2.2155208   -1.8586617    1.0779135  
H    1.6384792    1.3747609    1.9961646  
H    1.0518368    0.8833920    4.3830260  
