60

C    5.2823569   -3.2902670   -9.5728630  
C    4.8296823   -2.6062175   -8.4684948  
C    4.6907891   -1.2397205   -8.8531964  
C    5.0762080   -1.1495499  -10.2152706  
N    5.4313942   -2.4121172  -10.6207142  
C    5.0635633    0.0539624  -10.9267382  
C    4.6540971    1.1870365  -10.2509742  
O    4.6224234    2.3884511  -10.8979780  
C    4.2661246    1.1173662   -8.8917686  
O    3.8844300    2.3316920   -8.3597294  
C    4.2786088   -0.0695405   -8.1891848  
H    4.6258292   -3.0387157   -7.5039320  
H    5.7390220   -2.6602283  -11.5436356  
H    5.3562527    0.1293681  -11.9649326  
H    4.3121421    3.0376315  -10.2533425  
H    3.6380251    2.1966433   -7.4395937  
H    5.5120734   -4.3348356   -9.6956048  
C    5.7075976   -2.1458901   -4.5134262  
C    5.6080286   -1.7400307   -5.8006494  
C    4.4743458   -0.8284976   -5.8198979  
C    3.9952578   -0.7999673   -4.4212399  
N    4.7143360   -1.5702093   -3.6507568  
C    2.8699641   -0.0020530   -4.0185824  
C    2.2516356    0.7342028   -4.9698617  
O    1.1898872    1.5240358   -4.7355640  
C    2.7116332    0.7268602   -6.3899000  
O    2.1013096    1.4213445   -7.2025606  
C    3.8682737   -0.0998984   -6.7779432  
H    6.2274583   -2.0240590   -6.6341425  
H    0.9759272    1.9152451   -5.6017797  
H    6.4250583   -2.8280479   -4.0857758  
C    3.2573670   -0.0002921   -1.5109382  
C    2.5379468   -0.0001711   -0.3591962  
C    1.1435043    0.0000330   -0.7338498  
C    1.1092608   -0.0000085   -2.2088474  
N    2.4227562    0.0001906   -2.6182610  
C   -0.0265533   -0.0002525   -2.9515663  
C   -1.3003033   -0.0002641   -2.2514979  
O   -2.3786785   -0.0004132   -2.8306425  
C   -1.2877724    0.0000310   -0.6895608  
O   -2.3539956    0.0003306   -0.0892035  
C    0.0000000    0.0000000    0.0000000  
H    2.9384091   -0.0000370    0.6389240  
H   -0.0296290   -0.0004088   -4.0327231  
H    4.3270394   -0.0004767   -1.6439445  
C    0.8681109    0.7263879    2.2709268  
C    0.6127770    0.5096195    3.5869401  
C   -0.4920590   -0.4175482    3.6542670  
C   -0.8620974   -0.7254003    2.2596025  
N    0.0000000    0.0000000    1.4700000  
C   -1.8641242   -1.5660088    1.8976294  
C   -2.6293522   -2.2103885    2.9520183  
O   -3.5512764   -2.9839180    2.7283916  
C   -2.2549728   -1.8987399    4.4361073  
O   -2.8923672   -2.4351063    5.3323774  
C   -1.1543735   -0.9755647    4.7012123  
H    1.1382914    0.9492124    4.4159191  
H   -2.1192137   -1.7782617    0.8686553  
H   -0.9013378   -0.7652422    5.7314848  
H    1.6172880    1.3558399    1.8188057  
