60

C    5.0202617   -0.8836667   -7.3120236  
C    4.3580266    0.1994875   -6.7822218  
C    4.7230002    1.3344619   -7.5653109  
C    5.6176416    0.8786004   -8.5671747  
N    5.7779692   -0.4723916   -8.3835085  
C    6.1814984    1.7302683   -9.5219089  
C    5.8356862    3.0664137   -9.4644029  
O    6.3570393    3.9417382  -10.3727045  
C    4.9449727    3.5404174   -8.4720492  
O    4.6998858    4.8960281   -8.5468527  
C    4.3885459    2.7008429   -7.5296952  
H    6.3488249   -1.0716369   -8.9518481  
H    6.8641009    1.3890798  -10.2879665  
H    5.9915131    4.8094659  -10.1565938  
H    4.0895461    5.1340937   -7.8422860  
H    3.7094946    3.0928199   -6.7815501  
H    5.0131795   -1.9168073   -7.0094854  
C    4.6658418   -2.0084115   -3.0381695  
C    3.5410043   -1.6272096   -2.3893217  
C    2.8760350   -0.7078756   -3.2998932  
C    3.7621632   -0.6481449   -4.4821757  
N    4.8129013   -1.4085087   -4.3345750  
C    3.4519830    0.1658076   -5.6251350  
C    2.3083468    0.8869947   -5.5888132  
O    1.8948241    1.6890060   -6.5847135  
C    1.3931660    0.8475795   -4.4102332  
O    0.3692891    1.5299498   -4.4458469  
C    1.7334695    0.0049281   -3.2500363  
H    3.2040804   -1.9322774   -1.4133648  
H    1.0533181    2.0640200   -6.2678775  
H    5.4313254   -2.6873260   -2.6974587  
C    1.1319246    0.0015678   -0.8009268  
C    0.7969914    0.0034958   -2.1169401  
C   -0.6453340    0.0035696   -2.1842669  
C   -1.1266832    0.0015410   -0.7896025  
N    0.0000000    0.0000000    0.0000000  
C   -2.4346129    0.0013913   -0.4276292  
C   -3.4350111    0.0031335   -1.4820181  
O   -4.6384614    0.0030875   -1.2583914  
C   -2.9478961    0.0050442   -2.9661074  
O   -3.7809382    0.0062135   -3.8623773  
C   -1.5113825    0.0053055   -3.2312122  
H   -2.7664565    0.0000174    0.6013448  
H   -1.1823533    0.0068381   -4.2614848  
H    2.1104316    0.0009435   -0.3488059  
C    2.5528530    2.1414826    2.8079335  
C    2.0663498    1.7338582    4.0032312  
C    0.9804344    0.8229586    3.6752840  
C    0.9495562    0.7966882    2.1971295  
N    1.8690446    1.5676019    1.6831036  
C    0.0000000    0.0000000    1.4700000  
C   -0.8785127   -0.7372425    2.1869543  
O   -1.8187535   -1.5261249    1.6395491  
C   -0.8723269   -0.7321790    3.6796354  
O   -1.7010379   -1.4274584    4.2670412  
C    0.1115397    0.0933559    4.4024240  
H    2.4028853    2.0163452    4.9860947  
H   -2.2861435   -1.9184361    2.3990168  
H    0.0832434    0.0693689    5.4835595  
H    3.3664920    2.8238276    2.6198634  
