64

C   -7.6161291   -0.0919663   -2.1419065  
C   -8.4049831    0.5551249   -1.2191661  
C   -9.7508314    0.1526472   -1.4667604  
C   -9.7209956   -0.7486541   -2.5616083  
N   -8.4097829   -0.8734402   -2.9486042  
C  -10.8732737   -1.3471771   -3.0800820  
C  -12.0775750   -1.0303000   -2.4822320  
O  -13.2334876   -1.5866260   -2.9484725  
C  -12.1278260   -0.1329171   -1.3890735  
O  -13.4013956    0.0811443   -0.9037457  
C  -10.9915060    0.4581221   -0.8772383  
H   -8.0537450    1.2346063   -0.4615844  
H   -8.0781928   -1.4561036   -3.6959548  
H  -10.8572611   -2.0348143   -3.9144090  
H  -13.9463029   -1.2364060   -2.3984680  
H  -13.3466609    0.6983374   -0.1677562  
H  -11.0612111    1.1417207   -0.0391974  
C   -4.4234436    2.1223642   -0.0294722  
C   -3.3650553    1.6607018   -0.7772353  
C   -3.9025226    0.7730947   -1.7559501  
C   -5.3060598    0.7325804   -1.5550348  
N   -5.5885468    1.5615827   -0.4978812  
C   -6.1607755   -0.0439296   -2.3432494  
C   -5.5882321   -0.7929544   -3.3528697  
O   -6.3766930   -1.5687279   -4.1525698  
C   -4.1898435   -0.7660323   -3.5687436  
O   -3.7729988   -1.5664196   -4.6122779  
C   -3.3460097   -0.0004262   -2.7913647  
H   -2.3324969    1.9296472   -0.6341108  
H   -6.5054887    1.7426746   -0.1312688  
H   -5.7851989   -2.0015455   -4.7819092  
H   -2.8170936   -1.4907765   -4.6905560  
H   -4.4392677    2.8061856    0.8018507  
C    0.0000000    0.0000000    0.0000000  
C    1.0662919   -0.0000103   -0.8334272  
C    0.4961868    0.0000066   -2.1718889  
C   -0.9663860   -0.0000849   -1.9540248  
N   -1.2632775   -0.0000084   -0.6828659  
C   -1.8985364   -0.0000515   -3.0477258  
C   -1.3925778    0.0004567   -4.3020543  
O   -2.1456385    0.0005412   -5.4151314  
C    0.0786229    0.0009326   -4.5544999  
O    0.4683756    0.0012594   -5.7221104  
C    1.0143162    0.0008443   -3.4159034  
H    2.1107195    0.0000631   -0.5721869  
H   -1.5042277    0.0009692   -6.1484420  
H    2.0724151    0.0013151   -3.6409746  
C    3.3041272   -0.0001177    3.0120429  
C    2.5845372    0.0004780    1.8395852  
C    1.2040006    0.0000008    2.1983588  
C    1.1422373   -0.0006037    3.6154372  
N    2.4348639   -0.0026109    4.0777464  
C   -0.0655181   -0.0008797    4.3197917  
C   -1.2321768   -0.0002324    3.5801400  
O   -2.4392816   -0.0001146    4.2172520  
C   -1.1911209    0.0000007    2.1655264  
O   -2.4371527    0.0002320    1.5732860  
C    0.0000000    0.0000000    1.4700000  
H    3.0031534    0.0000661    0.8477417  
H    2.7054629    0.0071099    5.0445261  
H   -0.1193549   -0.0014844    5.3997470  
H   -3.1132988    0.0000648    3.5251786  
H   -2.3200282    0.0004071    0.6183591  
H    4.3686625   -0.0004071    3.1724291  
