62

C    9.8923007    0.7200250   -0.4016059  
C    9.2819200    0.0021532    0.6006729  
C   10.3067608   -0.7254663    1.2751147  
C   11.5322090   -0.4088389    0.6348409  
N   11.2444299    0.4697663   -0.3799761  
C   12.7575939   -0.9478396    1.0382024  
C   12.7457182   -1.8221700    2.1075867  
O   13.9141942   -2.3772642    2.5429574  
C   11.5331389   -2.1507182    2.7591426  
O   11.6868886   -3.0355418    3.8064212  
C   10.3238617   -1.6195687    2.3615828  
H   11.9180494    0.8785766   -1.0021431  
H   13.6950316   -0.7106516    0.5543072  
H   13.6843846   -2.9486118    3.2872785  
H   10.8215339   -3.2044140    4.1914492  
H    9.4113509   -1.8900148    2.8799087  
H    9.4699468    1.3896530   -1.1311084  
C    5.7595788    0.0007157   -2.0216249  
C    4.7795901    0.0008674   -1.0815733  
C    5.4318897    0.0011976    0.2065809  
C    6.8826349    0.0012556   -0.0619866  
N    7.0143612    0.0005548   -1.4314891  
C    7.8422292    0.0019359    0.8976400  
C    7.4178692    0.0024333    2.2877672  
O    8.2055926    0.0029965    3.2246726  
C    5.8864735    0.0021297    2.5953924  
O    5.5172086    0.0022369    3.7619706  
C    4.9477888    0.0016668    1.4761415  
H    3.8891764    0.0016642    1.6976445  
H    5.6706931    0.0004912   -3.0958635  
H    7.8875232    0.0019717   -1.9260937  
C    3.3321168    0.0004716   -1.3379341  
C    2.6974177    0.0000118   -2.5332316  
C    1.2800432   -0.0002116   -2.2052842  
C    1.2395033    0.0000644   -0.7271298  
N    2.4394059    0.0005460   -0.2131041  
C    0.0000000    0.0000000    0.0000000  
C   -1.1468704    0.0000635   -0.7169542  
O   -2.3742206    0.0000074   -0.1695488  
C   -1.1388774    0.0001608   -2.2096352  
O   -2.2206238    0.0000906   -2.7970409  
C    0.1454514    0.0001818   -2.9324241  
H    3.1367978   -0.0000649   -3.5160956  
H   -2.9844350    0.0001027   -0.9290164  
H    0.1083567    0.0003684   -4.0135594  
C    2.5311839    2.1237619    3.0120429  
C    1.9795631    1.6616747    1.8395852  
C    0.9223175    0.7739173    2.1983588  
C    0.8753926    0.7337535    3.6154372  
N    1.8668922    1.5631002    4.0777464  
C   -0.0496243   -0.0427881    4.3197917  
C   -0.9437528   -0.7922060    3.5801400  
O   -1.8685244   -1.5680278    4.2172520  
C   -0.9124520   -0.7656372    2.1655264  
O   -1.8671164   -1.5663939    1.5732860  
C    0.0000000    0.0000000    1.4700000  
H    2.3005065    1.9304404    0.8477417  
H    2.0679347    1.7444845    5.0445261  
H   -0.0904770   -0.0778569    5.3997470  
H   -2.3849669   -2.0011402    3.5251786  
H   -1.7775064   -1.4909735    0.6183591  
H    3.3468514    2.8078103    3.1724291  
