62

C    5.1635323   -3.7199739    0.3283641  
C    4.7072872   -4.5220549    1.3486445  
C    3.2899400   -4.3689852    1.3965633  
C    2.9353302   -3.4535262    0.3727889  
N    4.0967319   -3.0775561   -0.2552322  
C    1.6141788   -3.0666037    0.1285789  
C    0.6331003   -3.6140325    0.9323105  
O   -0.6734794   -3.2709591    0.7369581  
C    0.9670943   -4.5288092    1.9591734  
O   -0.1217903   -4.9849591    2.6730368  
C    2.2702591   -4.9107615    2.2008350  
H    5.3207011   -5.1404572    1.9813348  
H    1.3373638   -2.3692147   -0.6500249  
H   -1.1852219   -3.7586958    1.3953642  
H    0.1906354   -5.5973158    3.3460994  
H    2.4955564   -5.6132548    2.9947010  
H    6.1656645   -3.5542129   -0.0283055  
C    4.1863612   -2.1478769   -1.3903811  
C    5.2964354   -1.7420564   -2.0496420  
C    4.8117016   -0.8307209   -3.0748252  
C    3.3454835   -0.8022506   -2.8851479  
N    2.9730518   -1.5723541   -1.8991335  
C    2.4861704   -0.0045255   -3.7159919  
C    3.0653208    0.7316068   -4.6917118  
O    2.3851025    1.5212592   -5.5401182  
C    4.5422559    0.7243205   -4.9079759  
O    5.0006617    1.4186849   -5.8151378  
C    5.4023457   -0.1022428   -4.0425497  
H    6.3180530   -2.0259909   -1.8632149  
H    3.0670359    1.9124169   -6.1155445  
H    6.4672338   -0.0798677   -4.2316059  
C    0.0000000    0.0000000    0.0000000  
C    1.0521669   -0.0011848   -0.8862341  
C    0.4917221   -0.0011931   -2.1979130  
C   -0.9187427    0.0003100   -2.0478683  
N   -1.1833170   -0.0009472   -0.7007915  
C   -1.7951698    0.0010259   -3.1372090  
C   -1.2375835    0.0005161   -4.4010425  
O   -2.0474208    0.0015256   -5.4997580  
C    0.1673584   -0.0013557   -4.5711962  
O    0.5673529   -0.0020659   -5.8915551  
C    1.0325773   -0.0023359   -3.4969890  
H    2.0953059   -0.0030542   -0.6200560  
H   -2.0989777    0.0102265   -0.2891825  
H   -2.8710930    0.0020274   -3.0295514  
H   -1.4634881    0.0006427   -6.2693593  
H    1.5290715   -0.0033076   -5.9180042  
C    3.2798086   -0.0005857    2.9199648  
C    2.5571146   -0.0005566    4.0696553  
C    1.1637436   -0.0001548    3.6910360  
C    1.1336965    0.0000200    2.2159470  
N    2.4483514    0.0001428    1.8102719  
C    0.0000000    0.0000000    1.4700000  
C   -1.2757367    0.0000186    2.1664417  
O   -2.3524596    0.0000640    1.5842315  
C   -1.2676493    0.0000873    3.7284083  
O   -2.3355761    0.0004100    4.3257297  
C    0.0181563   -0.0001760    4.4216297  
H    2.9547357   -0.0006076    5.0689105  
H    0.0150794   -0.0003319    5.5031631  
H    4.3498549   -0.0008612    2.7900019  
H    2.7563627   -0.0012824    0.8551938  
