60

C    0.5486496   -0.7097072   -5.2160866  
C    0.2216139   -0.4592711   -6.5286400  
C   -0.8774659    0.4498517   -6.5177136  
C   -1.1798183    0.7210113   -5.1586764  
N   -0.2963289   -0.0005348   -4.3948470  
C   -2.2117132    1.5808265   -4.7704765  
C   -2.9516735    2.1780189   -5.7724740  
O   -3.9706965    3.0266526   -5.4493235  
C   -2.6655126    1.9197343   -7.1341709  
O   -3.4917885    2.5897948   -8.0125953  
C   -1.6478464    1.0714073   -7.5178672  
H    0.7138729   -0.8809275   -7.3882216  
H   -2.4472968    1.7915347   -3.7364050  
H   -4.3505467    3.3278805   -6.2849321  
H   -3.2316367    2.3603821   -8.9099785  
H   -1.4522912    0.8927719   -8.5687367  
H    1.3168717   -1.3392020   -4.8007205  
C    3.1301148   -0.0010315   -1.7028253  
C    2.5367766   -0.0002767   -0.4864666  
C    1.1089903    0.0001025   -0.7656183  
C    1.0177867   -0.0004153   -2.2415131  
N    2.1993574   -0.0011616   -2.7963821  
C   -0.2459218   -0.0002884   -2.9257117  
C   -1.3675324   -0.0000610   -2.1698519  
O   -2.6129318    0.0000862   -2.6748483  
C   -1.3083588    0.0000908   -0.6783229  
O   -2.3693264    0.0004202   -0.0541688  
C    0.0000000    0.0000000    0.0000000  
H    3.0096015   -0.0001006    0.4807520  
H   -3.1967441    0.0002093   -1.8949029  
C    4.5679459   -0.0016858   -2.0086704  
C    5.6049851   -0.0016935   -1.1391137  
C    6.7955417   -0.0024724   -1.9752204  
C    6.2781448   -0.0029791   -3.3604583  
N    4.9730334   -0.0024407   -3.3863785  
C    7.1539707   -0.0037592   -4.4997631  
C    8.4861191   -0.0036322   -4.2658499  
O    9.4181578   -0.0043068   -5.2340156  
C    9.0391353   -0.0027534   -2.8793678  
O   10.2622853   -0.0028101   -2.7410749  
C    8.1201338   -0.0020069   -1.7272567  
H    5.5667632   -0.0011380   -0.0631886  
H    6.7483977   -0.0043232   -5.5009723  
H   10.2688719   -0.0039804   -4.7592124  
H    8.5604255   -0.0012659   -0.7391411  
C    0.8400945    0.7047457    2.2710304  
C    0.0000000    0.0000000    1.4700000  
C   -0.8844236   -0.7423113    2.3369512  
C   -0.4878984   -0.4098547    3.7186280  
N    0.5629682    0.4714286    3.6095011  
C   -1.0836927   -0.9095027    4.8308716  
C   -2.1891196   -1.8367527    4.6554461  
O   -2.7906899   -2.3413415    5.5944904  
C   -2.6257283   -2.2031529    3.2011665  
O   -3.5549479   -2.9829990    3.0410059  
C   -1.9068976   -1.5999348    2.0816745  
H   -0.7774656   -0.6525820    5.8354244  
H   -2.2155208   -1.8586617    1.0779135  
H    1.6384792    1.3747609    1.9961646  
H    1.0518368    0.8833920    4.3830260  
