64

C    5.8291058   -2.4131144   -6.4841746  
C    6.8420202   -2.6229555   -7.3910574  
C    7.0397289   -1.3932870   -8.0863475  
C    6.1110890   -0.4613894   -7.5561388  
N    5.3904104   -1.1137416   -6.5867688  
C    6.0229694    0.8588631   -8.0077549  
C    6.8882713    1.2454978   -9.0127138  
O    6.8451858    2.5232918   -9.4906244  
C    7.8215828    0.3301169   -9.5547714  
O    8.6131903    0.8667092  -10.5491410  
C    7.9088892   -0.9725740   -9.1099122  
H    7.3723363   -3.5487739   -7.5346531  
H    5.3173032    1.5739491   -7.6078930  
H    7.5220516    2.5808736  -10.1775041  
H    9.2148616    0.1836895  -10.8607156  
H    8.6337564   -1.6509940   -9.5444141  
H    5.3838926   -3.0879115   -5.7732641  
C    4.1166495   -0.7277095   -4.4446868  
C    4.3274848   -0.5121296   -5.7687521  
C    3.3125434    0.4146606   -6.2112330  
C    2.4872300    0.7235865   -5.0279279  
N    3.0267438   -0.0008951   -3.9901699  
C    1.4218471    1.5642107   -5.0317840  
C    1.0640295    2.2074756   -6.2850642  
O    0.1212861    2.9809271   -6.3914054  
C    1.9240488    1.8946787   -7.5508964  
O    1.6321775    2.4301015   -8.6117427  
C    3.0488646    0.9715983   -7.4221962  
H    0.8297743    1.7772612   -4.1525974  
H    3.6394524    0.7604768   -8.3033078  
H    4.6656586   -1.3565611   -3.7627602  
C    3.3003547    0.0005277   -1.4738986  
C    2.5232816    0.0003497   -2.6090746  
C    1.1623203   -0.0001319   -2.1820102  
C    1.1711884    0.0000584   -0.7636141  
N    2.4852301   -0.0014919   -0.3662359  
C    0.0000000    0.0000000    0.0000000  
C   -1.2020383    0.0000520   -0.6806479  
O   -2.3759248    0.0003493    0.0157745  
C   -1.2314655   -0.0005115   -2.0955511  
O   -2.5054388   -0.0008040   -2.6250184  
C   -0.0764513   -0.0007274   -2.8495195  
H    2.8036266    0.0088183    0.5858662  
H   -3.0835639    0.0000346   -0.6418822  
H   -2.4360043   -0.0011529   -3.5845924  
H   -0.1304091   -0.0013423   -3.9319089  
H    4.3715553    0.0004897   -1.3667133  
C    2.5311839    2.1237619    3.0120429  
C    1.9795631    1.6616747    1.8395852  
C    0.9223175    0.7739173    2.1983588  
C    0.8753926    0.7337535    3.6154372  
N    1.8668922    1.5631002    4.0777464  
C   -0.0496243   -0.0427881    4.3197917  
C   -0.9437528   -0.7922060    3.5801400  
O   -1.8685244   -1.5680278    4.2172520  
C   -0.9124520   -0.7656372    2.1655264  
O   -1.8671164   -1.5663939    1.5732860  
C    0.0000000    0.0000000    1.4700000  
H    2.3005065    1.9304404    0.8477417  
H    2.0679347    1.7444845    5.0445261  
H   -0.0904770   -0.0778569    5.3997470  
H   -2.3849669   -2.0011402    3.5251786  
H   -1.7775064   -1.4909735    0.6183591  
H    3.3468514    2.8078103    3.1724291  
