60

C    5.2518945   -4.3052305   -3.6658978  
C    5.9433145   -4.9156797   -4.6865629  
C    5.3637001   -4.4654614   -5.9096540  
C    4.3140403   -3.5741410   -5.5695235  
N    4.2721113   -3.5009599   -4.1993030  
C    3.5218373   -2.9372290   -6.5294953  
C    3.7944193   -3.2047425   -7.8570168  
O    3.0517353   -2.6094702   -8.8353238  
C    4.8372812   -4.0914032   -8.2163066  
O    4.9836815   -4.2544525   -9.5784096  
C    5.6190352   -4.7202949   -7.2697965  
H    6.7637209   -5.6020006   -4.5645373  
H    3.6343814   -2.9366229   -3.6675079  
H    3.4024726   -2.9288811   -9.6768843  
H    5.7082175   -4.8677005   -9.7351855  
H    6.4106273   -5.3945206   -7.5752129  
H    5.3791881   -4.3810028   -2.5995900  
C    2.4320882   -2.0124030   -6.1859205  
C    2.0200837   -1.6305796   -4.9546439  
C    0.9177872   -0.7123209   -5.1959807  
C    0.7970290   -0.6538285   -6.6685907  
N    1.6820128   -1.4139329   -7.2542818  
C   -0.1937174    0.1588212   -7.3190579  
C   -1.0262436    0.8799454   -6.5340644  
O   -1.9968167    1.6808089   -7.0059188  
C   -0.9297033    0.8417617   -5.0449767  
O   -1.7202575    1.5239995   -4.3932128  
C    0.0950446    0.0004351   -4.4015596  
H    2.4153101   -1.9345894   -4.0004689  
H   -0.2592098    0.1826830   -8.3970423  
H   -2.4169006    2.0561000   -6.2110357  
C    3.3321173    0.0004713   -1.3379338  
C    2.6974181    0.0000116   -2.5332314  
C    1.2800438   -0.0002119   -2.2052841  
C    1.2395034    0.0000643   -0.7271299  
N    2.4394062    0.0005460   -0.2131038  
C    0.0000000    0.0000000    0.0000000  
C   -1.1468702    0.0000634   -0.7169543  
O   -2.3742203    0.0000074   -0.1695487  
C   -1.1388770    0.0001607   -2.2096355  
O   -2.2206234    0.0000905   -2.7970411  
C    0.1454522    0.0001815   -2.9324241  
H    3.1367984   -0.0000653   -3.5160950  
H   -2.9844346    0.0001026   -0.9290167  
H    4.3940038    0.0007618   -1.1498640  
C    0.8681109    0.7263879    2.2709268  
C    0.6127770    0.5096195    3.5869401  
C   -0.4920590   -0.4175482    3.6542670  
C   -0.8620974   -0.7254003    2.2596025  
N    0.0000000    0.0000000    1.4700000  
C   -1.8641242   -1.5660088    1.8976294  
C   -2.6293522   -2.2103885    2.9520183  
O   -3.5512764   -2.9839180    2.7283916  
C   -2.2549728   -1.8987399    4.4361073  
O   -2.8923672   -2.4351063    5.3323774  
C   -1.1543735   -0.9755647    4.7012123  
H    1.1382914    0.9492124    4.4159191  
H   -2.1192137   -1.7782617    0.8686553  
H   -0.9013378   -0.7652422    5.7314848  
H    1.6172880    1.3558399    1.8188057  
