60

C    1.7615151   -1.8478838   -8.4860912  
C    2.7156337   -2.6675376   -9.0431298  
C    2.5623911   -2.5826751  -10.4587266  
C    1.4901134   -1.6883601  -10.7084202  
N    1.0252061   -1.2620674   -9.4890956  
C    1.0592999   -1.3656881  -11.9987968  
C    1.7232331   -1.9563513  -13.0563817  
O    1.3437336   -1.6760724  -14.3371774  
C    2.7951951   -2.8515266  -12.8275252  
O    3.3536875   -3.3569813  -13.9833570  
C    3.2205630   -3.1705187  -11.5547990  
H    3.4330308   -3.2552620   -8.4963985  
H    0.2730471   -0.6118070   -9.3498137  
H    0.2426113   -0.6849410  -12.1957894  
H    1.9284462   -2.1858323  -14.9129561  
H    4.0695622   -3.9519943  -13.7402787  
H    4.0444060   -3.8597044  -11.4106336  
C    2.1451928   -2.0951773   -5.9900943  
C    1.6340471   -1.6323753   -4.8202142  
C    0.5538824   -0.7357923   -5.1581773  
C    0.4770637   -0.7140558   -6.6314102  
N    1.4686361   -1.5584202   -7.0749453  
C   -0.4180293    0.0158494   -7.3439773  
C   -1.3690894    0.8348539   -6.6110028  
O   -2.2145426    1.5279314   -7.1615959  
C   -1.3057472    0.8272852   -5.0503184  
O   -2.1011642    1.5130918   -4.4224315  
C   -0.2963293   -0.0005341   -4.3948471  
H    1.9749144   -1.8895632   -3.8331589  
H   -0.4575579    0.0175262   -8.4244138  
H    2.9593496   -2.7830347   -6.1509979  
C    3.1301146   -0.0010313   -1.7028256  
C    2.5367765   -0.0002766   -0.4864669  
C    1.1089901    0.0001027   -0.7656184  
C    1.0177865   -0.0004150   -2.2415133  
N    2.1993571   -0.0011612   -2.7963824  
C   -0.2459219   -0.0002879   -2.9257116  
C   -1.3675326   -0.0000606   -2.1698520  
O   -2.6129318    0.0000865   -2.6748483  
C   -1.3083588    0.0000910   -0.6783229  
O   -2.3693264    0.0004206   -0.0541685  
C    0.0000000    0.0000000    0.0000000  
H    3.0096016   -0.0001007    0.4807518  
H   -3.1967444    0.0002093   -1.8949026  
H    4.1849275   -0.0015114   -1.9271979  
C    2.5128556    2.1077716    2.9199648  
C    1.9592212    1.6432552    4.0696553  
C    0.8915788    0.7479214    3.6910360  
C    0.8684491    0.7287414    2.2159470  
N    1.8754542    1.5738793    1.8102719  
C    0.0000000    0.0000000    1.4700000  
C   -0.9772830   -0.8200135    2.1664417  
O   -1.8021297   -1.5120829    1.5842315  
C   -0.9711318   -0.8147624    3.7284083  
O   -1.7894187   -1.5009653    4.3257297  
C    0.0140216    0.0115358    4.4216297  
H    2.2638494    1.8988021    5.0689105  
H    0.0117648    0.0094386    5.5031631  
H    3.3327358    2.7953732    2.7900019  
H    2.1123206    1.7707734    0.8551938  
