60

C    0.8704607   -0.7166978   -5.2245476  
C    0.0139746    0.0003883   -4.4216235  
C   -0.8565292    0.7277033   -5.2863984  
C   -0.4806003    0.4117082   -6.6170942  
N    0.5722077   -0.4662428   -6.5435119  
C   -1.1267213    0.9506226   -7.7337360  
C   -2.1715667    1.8242144   -7.5028414  
O   -2.8373735    2.3791914   -8.5572204  
C   -2.5611818    2.1521250   -6.1824277  
O   -3.6183169    3.0362509   -6.1181717  
C   -1.9240431    1.6210600   -5.0803612  
H    1.0434888   -0.8745196   -7.3303952  
H   -0.8449224    0.7139142   -8.7504759  
H   -3.5192187    2.9499905   -8.1796760  
H   -3.8180642    3.2047228   -5.1922548  
H   -2.2446704    1.8910067   -4.0809587  
H    1.6714293   -1.3858893   -4.9607472  
C    3.2798087    0.0005858   -1.4499643  
C    2.5571149    0.0005569   -2.5996548  
C    1.1637440    0.0001551   -2.2210358  
C    1.1336966   -0.0000198   -0.7459468  
N    2.4483512   -0.0001426   -0.3402714  
C    0.0000000    0.0000000    0.0000000  
C   -1.2757369   -0.0000185   -0.6964416  
O   -2.3524599   -0.0000639   -0.1142315  
C   -1.2676492   -0.0000870   -2.2584080  
O   -2.3355760   -0.0004099   -2.8557298  
C    0.0181565    0.0001762   -2.9516296  
H    2.9547360    0.0006079   -3.5989102  
H    2.7563627    0.0012824    0.6148067  
C    6.4690089    0.0019760   -4.4192229  
C    7.5790615    0.0025238   -3.6450379  
C    7.0826145    0.0021769   -2.2775436  
C    5.6103558    0.0015088   -2.4155191  
N    5.2447515    0.0013075   -3.6686446  
C    4.7390849    0.0009618   -1.2727274  
C    5.3125317    0.0006881   -0.0477812  
O    4.6211392    0.0001830    1.1046148  
C    6.7952872    0.0009754    0.1242552  
O    7.2479829    0.0008246    1.2689331  
C    7.6676537    0.0015801   -1.0635585  
H    8.6077305    0.0030027   -3.9627096  
H    5.3014934    0.0000726    1.8019459  
H    8.7364300    0.0016573   -0.8963826  
H    6.4103419    0.0020020   -5.4960386  
C    2.3971438    2.0127888    3.1728260  
C    1.9431056    1.6308205    1.9564670  
C    0.8496017    0.7127664    2.2356185  
C    0.7794028    0.6545384    3.7115134  
N    1.6840587    1.4146091    4.2663826  
C   -0.1885723   -0.1578550    4.3957118  
C   -1.0476298   -0.8789867    3.6398520  
O   -2.0015663   -1.6796266    4.1448486  
C   -1.0022026   -0.8410666    2.1483229  
O   -1.8147390   -1.5232959    1.5241687  
C    0.0000000    0.0000000    1.4700000  
H    2.3054237    1.9346118    0.9892483  
H   -0.2170646   -0.1815267    5.4753125  
H   -2.4487139   -2.0549881    3.3649027  
H    3.2048689    2.6911772    3.3971983  
