62

C    5.9544420   -0.0109776   -4.5530911  
C    6.1720646   -0.0122767   -3.1947445  
C    7.5850229   -0.0154092   -2.9994501  
C    8.1829660   -0.0156061   -4.2856802  
N    7.1646431   -0.0148273   -5.2063504  
C    9.5681229   -0.0180584   -4.4757509  
C   10.3641587   -0.0200467   -3.3468130  
O   11.7230492   -0.0221292   -3.4749796  
C    9.7862938   -0.0202620   -2.0549578  
O   10.7119567   -0.0227715   -1.0319786  
C    8.4198831   -0.0181169   -1.8666985  
H    5.4065806   -0.0122153   -2.4377589  
H    7.2835379   -0.0041964   -6.2032114  
H   10.0300703   -0.0183661   -5.4534035  
H   12.0818976   -0.0235719   -2.5780448  
H   10.2392320   -0.0227185   -0.1940438  
H    8.0062533   -0.0185240   -0.8650060  
C    1.6707638   -0.0012342   -3.2725973  
C    3.0463716   -0.0037083   -3.2854242  
C    3.4499897   -0.0054180   -4.6535213  
C    2.2671975   -0.0035760   -5.4364169  
N    1.2050910   -0.0030039   -4.5666199  
C    2.2856101   -0.0042331   -6.8344329  
C    3.5205418   -0.0064893   -7.4533968  
O    3.5962555   -0.0068717   -8.8162179  
C    4.7118874   -0.0087263   -6.6895196  
O    5.8613546   -0.0112432   -7.4524488  
C    4.6944759   -0.0083529   -5.3103087  
H    3.6808654   -0.0053233   -2.4157071  
H    0.2370776    0.0088102   -4.8326878  
H    1.3876895   -0.0029823   -7.4368772  
H    4.5366398   -0.0088425   -9.0374357  
H    6.6195102   -0.0126142   -6.8601634  
C    1.0965515    0.0001359   -0.8010305  
C    0.0000000    0.0000000    0.0000000  
C   -1.1546564    0.0001470   -0.8669509  
C   -0.6372018    0.0003521   -2.2486279  
N    0.7342868    0.0007339   -2.1395011  
C   -1.4147743    0.0001355   -3.3608714  
C   -2.8576049   -0.0001046   -3.1854455  
O   -3.6427782   -0.0002491   -4.1244898  
C   -3.4275842   -0.0000725   -1.7311664  
O   -4.6406831    0.0000334   -1.5710053  
C   -2.4891868   -0.0001091   -0.6116742  
H   -1.0150456    0.0001619   -4.3654242  
H   -2.8919123   -0.0002920    0.3920869  
H    2.1388270    0.0000663   -0.5261648  
C    0.8400945    0.7047457    2.2710304  
C    0.0000000    0.0000000    1.4700000  
C   -0.8844236   -0.7423113    2.3369512  
C   -0.4878984   -0.4098547    3.7186280  
N    0.5629682    0.4714286    3.6095011  
C   -1.0836927   -0.9095027    4.8308716  
C   -2.1891196   -1.8367527    4.6554461  
O   -2.7906899   -2.3413415    5.5944904  
C   -2.6257283   -2.2031529    3.2011665  
O   -3.5549479   -2.9829990    3.0410059  
C   -1.9068976   -1.5999348    2.0816745  
H   -0.7774656   -0.6525820    5.8354244  
H   -2.2155208   -1.8586617    1.0779135  
H    1.6384792    1.3747609    1.9961646  
H    1.0518368    0.8833920    4.3830260  
