60

C    2.9700418   -5.6376890   -8.7577695  
C    2.5437525   -4.6522671   -7.8977182  
C    2.4605076   -3.4462532   -8.6548188  
C    2.8511154   -3.7600665   -9.9817975  
N    3.1557469   -5.0983741  -10.0091712  
C    2.8879048   -2.8075564  -11.0046179  
C    2.5234532   -1.5147674  -10.6820525  
O    2.5410562   -0.5452960  -11.6426931  
C    2.1311233   -1.1820223   -9.3636546  
O    1.7978889    0.1468960   -9.2015591  
C    2.0948544   -2.1211265   -8.3540534  
H    2.3213295   -4.7859686   -6.8529004  
H    3.4544062   -5.6091168  -10.8202962  
H    3.1848191   -3.0403103  -12.0179636  
H    2.2562729    0.2711523  -11.2119078  
H    1.5449833    0.2873081   -8.2839939  
H    3.1576925   -6.6822713   -8.5772318  
C    2.2088374   -2.1426207   -5.8191636  
C    1.6816910   -1.7351242   -6.9971456  
C    0.6077898   -0.8240080   -6.6323121  
C    0.6276205   -0.7974855   -5.1539725  
N    1.5640846   -1.5684500   -4.6716456  
C   -0.2963293   -0.0005341   -4.3948471  
C   -1.1988050    0.7367191   -5.0813820  
O   -2.1196089    1.5258328   -4.5021932  
C   -1.2438086    0.7314044   -6.5733964  
O   -2.0920754    1.4267084   -7.1321594  
C   -0.2854236   -0.0943979   -7.3293548  
H   -2.6127108    1.9180864   -5.2452546  
H   -0.3507728   -0.0705877   -8.4088885  
H    3.0283492   -2.8250551   -5.6589865  
C    3.1301146   -0.0010313   -1.7028256  
C    2.5367765   -0.0002766   -0.4864669  
C    1.1089901    0.0001027   -0.7656184  
C    1.0177865   -0.0004150   -2.2415133  
N    2.1993571   -0.0011612   -2.7963824  
C   -0.2459219   -0.0002879   -2.9257116  
C   -1.3675326   -0.0000606   -2.1698520  
O   -2.6129318    0.0000865   -2.6748483  
C   -1.3083588    0.0000910   -0.6783229  
O   -2.3693264    0.0004206   -0.0541685  
C    0.0000000    0.0000000    0.0000000  
H    3.0096016   -0.0001007    0.4807518  
H   -3.1967444    0.0002093   -1.8949026  
H    4.1849275   -0.0015114   -1.9271979  
C    0.8175213    0.6860729    2.3021913  
C    0.0000000    0.0000000    1.4700000  
C   -0.8887526   -0.7456559    2.3478473  
C   -0.4549825   -0.3816753    3.7138435  
N    0.5448156    0.4573574    3.6934124  
C   -1.0945674   -0.9182058    4.8835240  
C   -2.1210866   -1.7789155    4.6970523  
O   -2.8083856   -2.3554314    5.6976972  
C   -2.5824069   -2.1655116    3.3310774  
O   -3.5227682   -2.9541547    3.2362962  
C   -1.9100805   -1.6015804    2.1470656  
H   -0.7567140   -0.6349833    5.8697035  
H   -3.4728268   -2.9124471    5.2533954  
H   -2.2742832   -1.9066565    1.1752040  
H    1.6189533    1.3585343    2.0405121  
