62

C    7.5156892   -0.7421714   -4.7084940  
C    8.8799839   -0.7335972   -4.5321546  
C    9.3231224    0.5998665   -4.7773139  
C    8.1749492    1.3670541   -5.1014284  
N    7.0948291    0.5211534   -5.0523488  
C    8.2370537    2.7308919   -5.4028883  
C    9.4808519    3.3312616   -5.3763824  
O    9.5986176    4.6606780   -5.6623812  
C   10.6381478    2.5825223   -5.0556466  
O   11.8017694    3.3235121   -5.0718985  
C   10.5776617    1.2369680   -4.7584081  
H    9.4819059   -1.5840915   -4.2613365  
H    7.3656882    3.3211820   -5.6508422  
H   10.5379550    4.8737630   -5.5881873  
H   12.5349255    2.7434520   -4.8447070  
H   11.4811963    0.6895749   -4.5166170  
H    6.8096988   -1.5498051   -4.6175945  
C    3.4298634   -0.6917985   -3.0313909  
C    2.4861704   -0.0045255   -3.7159919  
C    3.2229048    0.7397797   -4.7258094  
C    4.6377454    0.3737856   -4.5002906  
N    4.7652643   -0.4651681   -3.5083810  
C    5.6998705    0.9085432   -5.3071427  
C    5.3638096    1.7694808   -6.2946565  
O    6.2517355    2.3444731   -7.1235179  
C    3.9449184    2.1580891   -6.5474272  
O    3.7122547    2.9468277   -7.4633852  
C    2.8734597    1.5959541   -5.7060568  
H    5.7142197    2.9021184   -7.7145004  
H    1.8586325    1.9024603   -5.9214876  
H    3.2895179   -1.3638312   -2.1997369  
C    0.0000000    0.0000000    0.0000000  
C    1.0521669   -0.0011848   -0.8862341  
C    0.4917221   -0.0011931   -2.1979130  
C   -0.9187427    0.0003100   -2.0478683  
N   -1.1833170   -0.0009472   -0.7007915  
C   -1.7951698    0.0010259   -3.1372090  
C   -1.2375835    0.0005161   -4.4010425  
O   -2.0474208    0.0015256   -5.4997580  
C    0.1673584   -0.0013557   -4.5711962  
O    0.5673529   -0.0020659   -5.8915551  
C    1.0325773   -0.0023359   -3.4969890  
H    2.0953059   -0.0030542   -0.6200560  
H   -2.0989777    0.0102265   -0.2891825  
H   -2.8710930    0.0020274   -3.0295514  
H   -1.4634881    0.0006427   -6.2693593  
H    1.5290715   -0.0033076   -5.9180042  
C    1.0965515   -0.0001358    2.2710304  
C    0.0000000    0.0000000    1.4700000  
C   -1.1546562   -0.0001469    2.3369512  
C   -0.6372014   -0.0003519    3.7186280  
N    0.7342871   -0.0007337    3.6095011  
C   -1.4147739   -0.0001353    4.8308716  
C   -2.8576048    0.0001048    4.6554461  
O   -3.6427778    0.0002493    5.5944904  
C   -3.4275839    0.0000726    3.2011665  
O   -4.6406829   -0.0000333    3.0410059  
C   -2.4891866    0.0001091    2.0816745  
H   -1.0150448   -0.0001615    5.8354244  
H   -2.8919121    0.0002919    1.0779135  
H    2.1388271   -0.0000662    1.9961646  
H    1.3735872    0.0006099    4.3830260  
