62

C    0.0000000    0.0000000    0.0000000  
C   -1.0390147   -0.1658433   -0.8862349  
C   -0.4856762   -0.0768739   -2.1979136  
C    0.9071445    0.1455283   -2.0478681  
N    1.1681643    0.1887663   -0.7007909  
C    1.7725738    0.2839392   -3.1372085  
C    1.2219763    0.1959356   -4.4010421  
O    2.0217073    0.3234872   -5.4997575  
C   -0.1654501   -0.0252260   -4.5711965  
O   -0.5604855   -0.0880169   -5.8915553  
C   -1.0198557   -0.1615970   -3.4969897  
H   -2.0692252   -0.3295775   -0.6200569  
H    2.0739892    0.3230793   -0.2891817  
H    1.4450377    0.2316700   -6.2693589  
H   -1.5102079   -0.2394472   -5.9180050  
H   -2.0781624   -0.3301068   -3.6584465  
C    4.7272234   -1.3784698   -0.3461907  
C    5.8379856   -0.7305210   -0.7825901  
C    5.4296301    0.1109514   -1.8825927  
C    3.9795101   -0.1013769   -2.0524723  
N    3.6152868   -1.0154848   -1.0908915  
C    3.2169408    0.5147724   -2.9908496  
C    3.8679032    1.4492619   -3.8939074  
O    3.2677163    2.0542236   -4.7725981  
C    5.4028569    1.6892544   -3.7322716  
O    5.9619144    2.4735413   -4.4869964  
C    6.1175431    0.9666530   -2.6830224  
H    6.8301977   -0.8307500   -0.3799947  
H    7.1801082    1.1385921   -2.5775863  
H    2.6846499   -1.3636169   -0.9503001  
C    7.7277907   -2.9739331    2.3811869  
C    6.9960133   -3.8130714    3.1505549  
C    5.6394553   -3.7069679    2.6357808  
C    5.7366742   -2.7335490    1.5269127  
N    6.9584309   -2.3004499    1.3728808  
C    4.5911424   -2.3498746    0.7486858  
C    3.4025924   -2.9133347    1.0636401  
O    2.2523166   -2.6474821    0.4215899  
C    3.2722510   -3.8991755    2.1768740  
O    2.1593916   -4.3718377    2.4078598  
C    4.4620380   -4.2764452    2.9604550  
H    7.3349395   -4.4281691    3.9665572  
H    1.5849450   -3.1971165    0.8706667  
H    4.3256926   -4.9939193    3.7584973  
H    8.7842914   -2.7668762    2.4436987  
C    1.1243417   -0.0099156    2.2619005  
C    0.7474090   -0.0234034    3.5848544  
C   -0.6787367   -0.0234952    3.6114698  
C   -1.1201739   -0.0099357    2.2635546  
N    0.0000000    0.0000000    1.4700000  
C   -2.4730812   -0.0065396    1.9108239  
C   -3.3971947   -0.0173298    2.9375057  
O   -4.7313508   -0.0149487    2.6493466  
C   -2.9763630   -0.0305536    4.2886322  
O   -4.0166453   -0.0397858    5.1947621  
C   -1.6418541   -0.0336380    4.6373480  
H    1.4178735   -0.0310004    4.4271209  
H   -2.8160170    0.0039190    0.8854031  
H   -5.1938803   -0.0234410    3.4974381  
H   -3.6464643   -0.0484781    6.0827341  
H   -1.3497443   -0.0436789    5.6809233  
H    2.1062470   -0.0051382    1.8205408  
