62

C   -5.5864019   -0.7057442   -6.7525055  
C   -5.8400928   -0.4554320   -8.0812097  
C   -6.9376428    0.4542208   -8.1313617  
C   -7.3146924    0.7258167   -6.7912149  
N   -6.4752336    0.0040100   -5.9794753  
C   -8.3660877    1.5862109   -6.4609429  
C   -9.0491037    2.1835435   -7.5025095  
O  -10.0840475    3.0327362   -7.2364721  
C   -8.6880664    1.9248300   -8.8462126  
O   -9.4640760    2.5950993   -9.7691920  
C   -7.6511221    1.0759319   -9.1727771  
H   -5.3011732   -0.8775090   -8.9121183  
H   -8.6584958    1.7972530   -5.4415510  
H  -10.4168708    3.3339673   -8.0918979  
H   -9.1547192    2.3653694  -10.6507396  
H   -7.3977338    0.8969778  -10.2111651  
H   -4.8426822   -1.3355190   -6.2950972  
C   -3.2578655    0.0024039   -2.9908504  
C   -4.0046939    0.0033127   -1.8566891  
C   -5.3897520    0.0044627   -2.2646703  
C   -5.3886196    0.0041179   -3.7400651  
N   -4.0656854    0.0032561   -4.1178667  
C   -6.5062987    0.0045469   -4.5098036  
C   -7.7964683    0.0056314   -3.8404773  
O   -8.8606461    0.0061492   -4.4453120  
C   -7.8213913    0.0062654   -2.2786888  
O   -8.9017018    0.0074856   -1.7040695  
C   -6.5505228    0.0054371   -1.5584490  
H   -3.6282786    0.0033735   -0.8492543  
H   -6.5764550    0.0056781   -0.4772225  
H   -3.7375606    0.0012862   -5.0662218  
C    0.0000000    0.0000000    0.0000000  
C    1.0521667   -0.0011902   -0.8862342  
C    0.4917216   -0.0011957   -2.1979129  
C   -0.9187429    0.0003148   -2.0478680  
N   -1.1833171   -0.0009412   -0.7007912  
C   -1.7951702    0.0010350   -3.1372088  
C   -1.2375841    0.0005225   -4.4010424  
O   -2.0474217    0.0015360   -5.4997576  
C    0.1673577   -0.0013567   -4.5711964  
O    0.5673522   -0.0020688   -5.8915554  
C    1.0325769   -0.0023413   -3.4969890  
H    2.0953057   -0.0030649   -0.6200562  
H   -2.0989779    0.0102372   -0.2891821  
H   -1.4634887    0.0006498   -6.2693588  
H    1.5290708   -0.0033153   -5.9180049  
H    2.1042148   -0.0039610   -3.6584453  
C    1.0965515   -0.0001358    2.2710304  
C    0.0000000    0.0000000    1.4700000  
C   -1.1546562   -0.0001469    2.3369512  
C   -0.6372014   -0.0003519    3.7186280  
N    0.7342871   -0.0007337    3.6095011  
C   -1.4147739   -0.0001353    4.8308716  
C   -2.8576048    0.0001048    4.6554461  
O   -3.6427778    0.0002493    5.5944904  
C   -3.4275839    0.0000726    3.2011665  
O   -4.6406829   -0.0000333    3.0410059  
C   -2.4891866    0.0001091    2.0816745  
H   -1.0150448   -0.0001615    5.8354244  
H   -2.8919121    0.0002919    1.0779135  
H    2.1388271   -0.0000662    1.9961646  
H    1.3735872    0.0006099    4.3830260  
