62

C    2.1798970   -2.1221809   -5.9542190  
C    1.5460057   -1.6229255   -7.0683970  
C    0.5185219   -0.7482587   -6.6059737  
C    0.5740707   -0.7535768   -5.1886487  
N    1.5926027   -1.5994973   -4.8258413  
C   -0.2963289   -0.0005348   -4.3948470  
C   -1.2397980    0.7721833   -5.0436536  
O   -2.1143387    1.5272212   -4.3169418  
C   -1.3112050    0.7904336   -6.4569421  
O   -2.3047778    1.6091607   -6.9527676  
C   -0.4530321    0.0475817   -7.2406747  
H    1.7929880   -1.8608404   -8.0888820  
H    1.8756085   -1.7961384   -3.8828561  
H   -2.6787915    1.9818125   -4.9556942  
H   -2.2847545    1.5640932   -7.9135863  
H   -0.5318481    0.0816191   -8.3210022  
H    3.0035535   -2.8108683   -5.8751157  
C    3.1301148   -0.0010315   -1.7028253  
C    2.5367766   -0.0002767   -0.4864666  
C    1.1089903    0.0001025   -0.7656183  
C    1.0177867   -0.0004153   -2.2415131  
N    2.1993574   -0.0011616   -2.7963821  
C   -0.2459218   -0.0002884   -2.9257117  
C   -1.3675324   -0.0000610   -2.1698519  
O   -2.6129318    0.0000862   -2.6748483  
C   -1.3083588    0.0000908   -0.6783229  
O   -2.3693264    0.0004202   -0.0541688  
C    0.0000000    0.0000000    0.0000000  
H    3.0096015   -0.0001006    0.4807520  
H   -3.1967441    0.0002093   -1.8949029  
C    6.5698747   -0.0006428    0.9721603  
C    7.6069602   -0.0018571    0.1026602  
C    6.9912939   -0.0024309   -1.2154652  
C    5.5370519   -0.0015110   -0.9475768  
N    5.2839241   -0.0003803    0.3330149  
C    4.5679459   -0.0016858   -2.0086704  
C    5.0305951   -0.0023432   -3.2796108  
O    4.2398089   -0.0025856   -4.3662103  
C    6.4922740   -0.0029076   -3.5823567  
O    6.8417591   -0.0036182   -4.7626446  
C    7.4664602   -0.0027586   -2.4765150  
H    8.6597315   -0.0022174    0.3279326  
H    4.8556972   -0.0030421   -5.1210842  
H    8.5162190   -0.0030663   -2.7377369  
H    6.6068542    0.0001033    2.0499385  
C    0.8576279    0.7185626    2.2703808  
C    0.0000000    0.0000000    1.4700000  
C   -0.8668858   -0.7285659    2.3373528  
C   -0.4876752   -0.4117774    3.6669281  
N    0.5635254    0.4678311    3.5902241  
C   -1.1297612   -0.9515493    4.7854808  
C   -2.1738724   -1.8268314    4.5576857  
O   -2.8357962   -2.3827064    5.6140350  
C   -2.5667212   -2.1555554    3.2384331  
O   -3.6226318   -3.0413663    3.1773122  
C   -1.9335634   -1.6236449    2.1344818  
H    1.0363952    0.8769718    4.3757045  
H   -0.8454472   -0.7142436    5.8013813  
H   -3.5178062   -2.9546422    5.2385129  
H   -3.8247440   -3.2102924    2.2519915  
H   -2.2566033   -1.8942483    1.1360343  
H    1.6567807    1.3889844    2.0042067  
