60

C    5.8392102   -1.1103929   -6.2988424  
C    6.8064859   -1.9945659   -5.8804137  
C    7.6479193   -2.2530233   -7.0028174  
C    7.1408806   -1.4919984   -8.0871044  
N    6.0414505   -0.8114414   -7.6258977  
C    7.7253735   -1.5025466   -9.3571625  
C    8.8422404   -2.2955598   -9.5358129  
O    9.4526267   -2.3426927  -10.7557396  
C    9.3628190   -3.0623491   -8.4663046  
O   10.4785759   -3.8005647   -8.8031530  
C    8.7865561   -3.0526374   -7.2131674  
H    6.8941068   -2.4038569   -4.8885486  
H    5.4792225   -0.1811745   -8.1687087  
H    7.3436842   -0.9249152  -10.1877390  
H   10.2006276   -2.9470717  -10.6636241  
H   10.7664595   -4.2886327   -8.0256459  
H    9.2076187   -3.6506008   -6.4134023  
C    4.4169309   -0.7262692   -4.2519971  
C    4.7208615   -0.5096739   -5.5576722  
C    3.7394659    0.4171465   -6.0702171  
C    2.8323824    0.7249833   -4.9480643  
N    3.2973506   -0.0000934   -3.8752374  
C    1.7696619    1.5653070   -5.0267138  
C    1.5012132    2.2093745   -6.3017228  
O    0.5680988    2.9826342   -6.4739682  
C    2.4487563    1.8977358   -7.5037412  
O    2.2325066    2.4338409   -8.5822068  
C    3.5619542    0.9748830   -7.2964134  
H    1.1167873    1.7775543   -4.1914795  
H    4.2134827    0.7645654   -8.1336704  
H    4.9165185   -1.3554568   -3.5333701  
C    3.3321174    0.0004714   -1.3379332  
C    2.6974186    0.0000115   -2.5332308  
C    1.2800441   -0.0002119   -2.2052838  
C    1.2395035    0.0000643   -0.7271293  
N    2.4394063    0.0005458   -0.2131034  
C    0.0000000    0.0000000    0.0000000  
C   -1.1468701    0.0000634   -0.7169542  
O   -2.3742201    0.0000072   -0.1695492  
C   -1.1388767    0.0001606   -2.2096354  
O   -2.2206229    0.0000903   -2.7970413  
C    0.1454526    0.0001815   -2.9324239  
H   -2.9844344    0.0001023   -0.9290168  
H    0.1083580    0.0003680   -4.0135594  
H    4.3940040    0.0007617   -1.1498630  
C    2.5528530    2.1414826    2.8079335  
C    2.0663498    1.7338582    4.0032312  
C    0.9804344    0.8229586    3.6752840  
C    0.9495562    0.7966882    2.1971295  
N    1.8690446    1.5676019    1.6831036  
C    0.0000000    0.0000000    1.4700000  
C   -0.8785127   -0.7372425    2.1869543  
O   -1.8187535   -1.5261249    1.6395491  
C   -0.8723269   -0.7321790    3.6796354  
O   -1.7010379   -1.4274584    4.2670412  
C    0.1115397    0.0933559    4.4024240  
H    2.4028853    2.0163452    4.9860947  
H   -2.2861435   -1.9184361    2.3990168  
H    0.0832434    0.0693689    5.4835595  
H    3.3664920    2.8238276    2.6198634  
