62

C    2.8619465   -3.3822849   -8.7551410  
C    2.4862156   -2.1188251   -8.3614868  
C    2.5790356   -1.2796747   -9.5111867  
C    3.0199937   -2.0935091  -10.5859694  
N    3.1839711   -3.3638503  -10.0920436  
C    3.2226510   -1.5967354  -11.8770673  
C    2.9753723   -0.2540038  -12.0870743  
O    3.1567268    0.2830563  -13.3287234  
C    2.5352441    0.5742668  -11.0273239  
O    2.3331495    1.8882708  -11.3959611  
C    2.3353657    0.0849233   -9.7533075  
H    3.4795624   -4.1606761  -10.6265306  
H    3.5587469   -2.2117466  -12.7004762  
H    2.9316119    1.2197452  -13.2565997  
H    2.0372796    2.3789237  -10.6230931  
H    1.9979132    0.7435815   -8.9616176  
H    2.9270818   -4.2948344   -8.1877173  
C    2.6001987   -2.1411819   -5.8266045  
C    2.0730546   -1.7332818   -7.0044479  
C    0.9991587   -0.8222833   -6.6393046  
C    1.0189898   -0.7962636   -5.1609560  
N    1.9554493   -1.5673975   -4.6788913  
C    0.0950446    0.0004351   -4.4015596  
C   -0.8074268    0.7379269   -5.0878437  
O   -1.7282260    1.5268491   -4.5083866  
C   -0.8524306    0.7331198   -6.5798599  
O   -1.7006933    1.4286187   -7.1383864  
C    0.1059495   -0.0924311   -7.3360990  
H   -2.2213257    1.9193582   -5.2513147  
H    0.0406004   -0.0682535   -8.4156246  
H    3.4197067   -2.8236756   -5.6666595  
C    3.3321173    0.0004713   -1.3379338  
C    2.6974181    0.0000116   -2.5332314  
C    1.2800438   -0.0002119   -2.2052841  
C    1.2395034    0.0000643   -0.7271299  
N    2.4394062    0.0005460   -0.2131038  
C    0.0000000    0.0000000    0.0000000  
C   -1.1468702    0.0000634   -0.7169543  
O   -2.3742203    0.0000074   -0.1695487  
C   -1.1388770    0.0001607   -2.2096355  
O   -2.2206234    0.0000905   -2.7970411  
C    0.1454522    0.0001815   -2.9324241  
H    3.1367984   -0.0000653   -3.5160950  
H   -2.9844346    0.0001026   -0.9290167  
H    4.3940038    0.0007618   -1.1498640  
C    2.5311839    2.1237619    3.0120429  
C    1.9795631    1.6616747    1.8395852  
C    0.9223175    0.7739173    2.1983588  
C    0.8753926    0.7337535    3.6154372  
N    1.8668922    1.5631002    4.0777464  
C   -0.0496243   -0.0427881    4.3197917  
C   -0.9437528   -0.7922060    3.5801400  
O   -1.8685244   -1.5680278    4.2172520  
C   -0.9124520   -0.7656372    2.1655264  
O   -1.8671164   -1.5663939    1.5732860  
C    0.0000000    0.0000000    1.4700000  
H    2.3005065    1.9304404    0.8477417  
H    2.0679347    1.7444845    5.0445261  
H   -0.0904770   -0.0778569    5.3997470  
H   -2.3849669   -2.0011402    3.5251786  
H   -1.7775064   -1.4909735    0.6183591  
H    3.3468514    2.8078103    3.1724291  
