66

C   -7.5657081   -0.0885043   -2.6760231  
C   -8.4212724    0.5605892   -1.8162818  
C   -9.7451536    0.1606993   -2.1656038  
C   -9.6337990   -0.7411594   -3.2547213  
N   -8.2971636   -0.8687524   -3.5406242  
C  -10.7444287   -1.3376062   -3.8593234  
C  -11.9901433   -1.0180407   -3.3550894  
O  -13.1082913   -1.5722595   -3.9079003  
C  -12.1217314   -0.1200604   -2.2692113  
O  -13.4281468    0.0967771   -1.8824203  
C  -11.0265240    0.4689315   -1.6724421  
H   -8.1274097    1.2397103   -1.0343402  
H   -7.9107680   -1.4524205   -4.2603538  
H  -10.6662783   -2.0256547   -4.6897958  
H  -13.8602357   -1.2203597   -3.4139257  
H  -13.4284069    0.7141948   -1.1445864  
H  -11.1585025    1.1530509   -0.8423576  
C   -4.4706949    2.1246860   -0.3281857  
C   -5.6599778    1.6264296   -0.8075743  
C   -5.3396889    0.7516498   -1.8877479  
C   -3.9276472    0.7558729   -2.0220872  
N   -3.4313261    1.6012781   -1.0610605  
C   -3.2578655    0.0024282   -2.9908505  
C   -4.0275333   -0.7695740   -3.8392615  
O   -3.4247947   -1.5249627   -4.8031641  
C   -5.4377033   -0.7867288   -3.7211790  
O   -6.0624936   -1.6048448   -4.6396926  
C   -6.0991482   -0.0434787   -2.7658800  
H   -6.6381202    1.8650658   -0.4264137  
H   -2.4588262    1.7971334   -0.9065738  
H   -4.1336017   -1.9789343   -5.2772602  
H   -7.0119839   -1.5590485   -4.4914533  
H   -4.2816969    2.8131205    0.4776034  
C    0.0000000    0.0000000    0.0000000  
C    1.0521666   -0.0011982   -0.8862343  
C    0.4917215   -0.0011996   -2.1979132  
C   -0.9187429    0.0003215   -2.0478682  
N   -1.1833171   -0.0009323   -0.7007913  
C   -1.7951703    0.0010483   -3.1372089  
C   -1.2375841    0.0005313   -4.4010422  
O   -2.0474218    0.0015510   -5.4997578  
C    0.1673576   -0.0013585   -4.5711963  
O    0.5673520   -0.0020735   -5.8915554  
C    1.0325768   -0.0023493   -3.4969892  
H    2.0953056   -0.0030808   -0.6200564  
H   -2.0989778    0.0102529   -0.2891822  
H   -1.4634888    0.0006601   -6.2693595  
H    1.5290707   -0.0033271   -5.9180047  
H    2.1042146   -0.0039770   -3.6584456  
C    1.1243417   -0.0099156    2.2619005  
C    0.7474090   -0.0234034    3.5848544  
C   -0.6787367   -0.0234952    3.6114698  
C   -1.1201739   -0.0099357    2.2635546  
N    0.0000000    0.0000000    1.4700000  
C   -2.4730812   -0.0065396    1.9108239  
C   -3.3971947   -0.0173298    2.9375057  
O   -4.7313508   -0.0149487    2.6493466  
C   -2.9763630   -0.0305536    4.2886322  
O   -4.0166453   -0.0397858    5.1947621  
C   -1.6418541   -0.0336380    4.6373480  
H    1.4178735   -0.0310004    4.4271209  
H   -2.8160170    0.0039190    0.8854031  
H   -5.1938803   -0.0234410    3.4974381  
H   -3.6464643   -0.0484781    6.0827341  
H   -1.3497443   -0.0436789    5.6809233  
H    2.1062470   -0.0051382    1.8205408  
