60

C   -4.3404919    0.7171000   -6.0640503  
C   -3.7360896   -0.0009298   -7.0698328  
C   -4.7648509   -0.7290894   -7.7376902  
C   -5.9864212   -0.4126136   -7.0899740  
N   -5.6926525    0.4664252   -6.0772512  
C   -7.2141067   -0.9521226   -7.4855833  
C   -7.2085645   -1.8268147   -8.5547237  
O   -8.3795358   -2.3824109   -8.9826863  
C   -5.9999293   -2.1552193   -9.2136373  
O   -6.1598692   -3.0404468  -10.2596470  
C   -4.7883830   -1.6235681   -8.8237274  
H   -6.3625442    0.8752447   -5.4510784  
H   -8.1486130   -0.7150526   -6.9959937  
H   -8.1541510   -2.9539433   -9.7282178  
H   -5.2968550   -3.2091892  -10.6499497  
H   -3.8790063   -1.8939157   -9.3475832  
H   -3.9138484    1.3871048   -5.3373955  
C   -0.2963294   -0.0005341   -4.3948471  
C    0.7407565   -0.0008427   -5.2643483  
C    0.1250898   -0.0009651   -6.5824732  
C   -1.3291522   -0.0008024   -6.3145845  
N   -1.5822800   -0.0004688   -5.0339928  
C   -2.2982584   -0.0008135   -7.3756780  
C   -1.8356090   -0.0005907   -8.6466189  
O   -2.6263952   -0.0005805   -9.7332184  
C   -0.3739301   -0.0003760   -8.9493653  
O   -0.0244449   -0.0003028  -10.1296537  
C    0.6002563   -0.0004129   -7.8435231  
H    1.7935279   -0.0008810   -5.0390757  
H   -2.0105073   -0.0003708  -10.4880914  
H    1.6500152   -0.0001373   -8.1047447  
C    3.1301143   -0.0010313   -1.7028257  
C    2.5367765   -0.0002767   -0.4864669  
C    1.1089900    0.0001027   -0.7656184  
C    1.0177864   -0.0004150   -2.2415133  
N    2.1993571   -0.0011613   -2.7963824  
C   -0.2459220   -0.0002879   -2.9257116  
C   -1.3675327   -0.0000606   -2.1698519  
O   -2.6129319    0.0000866   -2.6748482  
C   -1.3083588    0.0000910   -0.6783229  
O   -2.3693264    0.0004206   -0.0541685  
C    0.0000000    0.0000000    0.0000000  
H    3.0096014   -0.0001008    0.4807517  
H   -3.1967445    0.0002093   -1.8949025  
H    4.1849272   -0.0015113   -1.9271980  
C    0.8681109    0.7263879    2.2709268  
C    0.6127770    0.5096195    3.5869401  
C   -0.4920590   -0.4175482    3.6542670  
C   -0.8620974   -0.7254003    2.2596025  
N    0.0000000    0.0000000    1.4700000  
C   -1.8641242   -1.5660088    1.8976294  
C   -2.6293522   -2.2103885    2.9520183  
O   -3.5512764   -2.9839180    2.7283916  
C   -2.2549728   -1.8987399    4.4361073  
O   -2.8923672   -2.4351063    5.3323774  
C   -1.1543735   -0.9755647    4.7012123  
H    1.1382914    0.9492124    4.4159191  
H   -2.1192137   -1.7782617    0.8686553  
H   -0.9013378   -0.7652422    5.7314848  
H    1.6172880    1.3558399    1.8188057  
