62

C    5.0811244   -4.3462244   -3.6771787  
C    4.0659136   -3.5130336   -4.0865778  
C    4.0435564   -3.5533411   -5.5122267  
C    5.0766105   -4.4356803   -5.9199072  
N    5.6880606   -4.8980010   -4.7810452  
C    5.3450596   -4.7165918   -7.2629679  
C    4.5560804   -4.0957074   -8.2117524  
O    4.7748004   -4.3347250   -9.5376664  
C    3.5207731   -3.2118603   -7.8247527  
O    2.8242993   -2.6727187   -8.8866345  
C    3.2555523   -2.9340594   -6.4999842  
H    3.4215327   -2.9451107   -3.4375564  
H    6.4514362   -5.5496159   -4.7558505  
H    6.1310332   -5.3880052   -7.5802216  
H    4.1237716   -3.8093914  -10.0208338  
H    2.1440204   -2.0880728   -8.5387646  
H    5.4212334   -4.5894542   -2.6851484  
C    2.1709843   -2.0097061   -6.1391748  
C    1.7780130   -1.6284992   -4.9015021  
C    0.6718283   -0.7104846   -5.1253424  
C    0.5282247   -0.6514440   -6.5958784  
N    1.4042466   -1.4110426   -7.1955321  
C   -0.4727377    0.1611588   -7.2305732  
C   -1.2932051    0.8817142   -6.4324705  
O   -2.2712225    1.6824660   -6.8888906  
C   -1.1735669    0.8429683   -4.9450744  
O   -1.9541224    1.5247033   -4.2808521  
C   -0.1387079    0.0017019   -4.3179684  
H    2.1880843   -1.9327664   -3.9536948  
H   -0.5549505    0.1854289   -8.3074023  
H   -2.6790395    2.0573116   -6.0874366  
C    3.3041273    0.0001178   -1.5420428  
C    2.5845373   -0.0004780   -0.3695851  
C    1.2040007   -0.0000007   -0.7283589  
C    1.1422374    0.0006038   -2.1454372  
N    2.4348641    0.0026111   -2.6077464  
C   -0.0655179    0.0008799   -2.8497918  
C   -1.2321766    0.0002325   -2.1101402  
O   -2.4392814    0.0001148   -2.7472522  
C   -1.1911209   -0.0000007   -0.6955266  
O   -2.4371528   -0.0002320   -0.1032862  
C    0.0000000    0.0000000    0.0000000  
H    3.0031533   -0.0000660    0.6222584  
H    2.7054631   -0.0071097   -3.5745261  
H   -3.1132988   -0.0000648   -2.0551787  
H   -2.3200282   -0.0004072    0.8516409  
H    4.3686625    0.0004073   -1.7024290  
C    0.0000000    0.0000000    1.4700000  
C    1.0662921    0.0000102    2.3034270  
C    0.4961870   -0.0000064    3.6418889  
C   -0.9663858    0.0000850    3.4240247  
N   -1.2632773    0.0000084    2.1528658  
C   -1.8985362    0.0000517    4.5177257  
C   -1.3925775   -0.0004564    5.7720543  
O   -2.1456383   -0.0005410    6.8851312  
C    0.0786232   -0.0009323    6.0245000  
O    0.4683759   -0.0012588    7.1921102  
C    1.0143166   -0.0008442    4.8859032  
H    2.1107198   -0.0000632    2.0421868  
H   -2.9622183    0.0003270    4.3293377  
H   -1.5042274   -0.0009692    7.6184419  
H    2.0724152   -0.0013148    5.1109744  
