62

C    5.1445295   -2.4157546   -4.6850902  
C    6.4023392   -2.6264291   -5.2008392  
C    6.8220001   -1.3970958   -5.7900965  
C    5.7700576   -0.4645340   -5.6012258  
N    4.7662197   -1.1161853   -4.9287104  
C    5.8388974    0.8556145   -6.0564822  
C    6.9907711    1.2414606   -6.7141189  
O    7.1108204    2.5191183   -7.1790827  
C    8.0510894    0.3254093   -6.9125944  
O    9.1300630    0.8612551   -7.5849259  
C    7.9837547   -0.9771797   -6.4639810  
H    6.9495759   -3.5525740   -5.1586249  
H    5.0405555    1.5712042   -5.9158262  
H    7.9785065    2.5761162   -7.5999594  
H    9.8008867    0.1778157   -7.6771763  
H    8.8118020   -1.6561250   -6.6308626  
H    4.4867353   -3.0900816   -4.1639867  
C    2.8494835   -0.7287725   -3.3362167  
C    3.4912467   -0.5137431   -4.5134921  
C    2.6833698    0.4134337   -5.2701383  
C    1.5099393    0.7231864   -4.4311483  
N    1.6707636   -0.0012343   -3.2725974  
C    0.5077399    1.5643692   -4.7913044  
C    0.5901938    2.2074060   -6.0921659  
O   -0.2621883    2.9813176   -6.5078653  
C    1.8239356    1.8937367   -6.9973164  
O    1.9040948    2.4289607   -8.0947548  
C    2.8403293    0.9701078   -6.4996160  
H   -0.3442082    1.7780229   -4.1608711  
H    3.6915232    0.7583833   -7.1323605  
H    3.1383514   -1.3576862   -2.5098316  
C    1.0965514    0.0001358   -0.8010306  
C    0.0000000    0.0000000    0.0000000  
C   -1.1546565    0.0001470   -0.8669508  
C   -0.6372019    0.0003520   -2.2486278  
N    0.7342867    0.0007338   -2.1395012  
C   -1.4147744    0.0001354   -3.3608712  
C   -2.8576052   -0.0001047   -3.1854454  
O   -3.6427785   -0.0002490   -4.1244896  
C   -3.4275841   -0.0000727   -1.7311660  
O   -4.6406832    0.0000333   -1.5710049  
C   -2.4891868   -0.0001090   -0.6116739  
H   -1.0150456    0.0001617   -4.3654239  
H   -2.8919122   -0.0002919    0.3920871  
H    2.1388270    0.0000663   -0.5261650  
C    2.5311839    2.1237619    3.0120429  
C    1.9795631    1.6616747    1.8395852  
C    0.9223175    0.7739173    2.1983588  
C    0.8753926    0.7337535    3.6154372  
N    1.8668922    1.5631002    4.0777464  
C   -0.0496243   -0.0427881    4.3197917  
C   -0.9437528   -0.7922060    3.5801400  
O   -1.8685244   -1.5680278    4.2172520  
C   -0.9124520   -0.7656372    2.1655264  
O   -1.8671164   -1.5663939    1.5732860  
C    0.0000000    0.0000000    1.4700000  
H    2.3005065    1.9304404    0.8477417  
H    2.0679347    1.7444845    5.0445261  
H   -0.0904770   -0.0778569    5.3997470  
H   -2.3849669   -2.0011402    3.5251786  
H   -1.7775064   -1.4909735    0.6183591  
H    3.3468514    2.8078103    3.1724291  
