64

C    6.1887898    0.7189139   -5.9785362  
C    6.1355534    0.4715746   -7.3307408  
C    7.1938495   -0.4368043   -7.6298349  
C    7.8643738   -0.7107226   -6.4102889  
N    7.2298304    0.0085371   -5.4281291  
C    8.9637185   -1.5706652   -6.3282676  
C    9.3938241   -2.1651511   -7.4986414  
O   10.4626109   -3.0137792   -7.4754444  
C    8.7381005   -1.9040904   -8.7253001  
O    9.2856507   -2.5716544   -9.8013536  
C    7.6536763   -1.0556360   -8.8070052  
H    5.4224354    0.8947656   -8.0173012  
H    9.4792187   -1.7834686   -5.4018890  
H   10.5935220   -3.3129157   -8.3846445  
H    8.7848060   -2.3404622  -10.5895853  
H    7.1719091   -0.8748408   -9.7607819  
H    5.5674224    1.3469646   -5.3633834  
C    4.7577216    0.0005129   -1.7610467  
C    5.7908194   -0.0019948   -0.8526581  
C    7.0043636   -0.0008192   -1.6022642  
C    6.6458593    0.0027363   -2.9746300  
N    5.2743991    0.0015095   -3.0355632  
C    7.5924713    0.0050451   -4.0035663  
C    8.9252693    0.0040476   -3.6404922  
O    9.8910729    0.0065539   -4.6049783  
C    9.3028361    0.0001370   -2.2765841  
O   10.6680520   -0.0008114   -2.0777646  
C    8.3695192   -0.0024152   -1.2609859  
H    5.6830214   -0.0054833    0.2184911  
H    4.7309661    0.0139309   -3.8796650  
H   10.7390815    0.0050110   -4.1422208  
H   10.8374849   -0.0034725   -1.1307222  
H    8.6888292   -0.0055758   -0.2253654  
C    3.3041270    0.0001177   -1.5420435  
C    2.5845370   -0.0004780   -0.3695856  
C    1.2040004   -0.0000007   -0.7283590  
C    1.1422370    0.0006038   -2.1454373  
N    2.4348634    0.0026110   -2.6077469  
C   -0.0655187    0.0008799   -2.8497918  
C   -1.2321769    0.0002326   -2.1101398  
O   -2.4392822    0.0001149   -2.7472517  
C   -1.1911211   -0.0000007   -0.6955263  
O   -2.4371526   -0.0002319   -0.1032858  
C    0.0000000    0.0000000    0.0000000  
H    3.0031534   -0.0000661    0.6222578  
H    2.7054623   -0.0071098   -3.5745266  
H   -0.1193555    0.0014846   -3.9297472  
H   -3.1132992   -0.0000646   -2.0551783  
H   -2.3200279   -0.0004070    0.8516411  
C    2.5128556    2.1077716    2.9199648  
C    1.9592212    1.6432552    4.0696553  
C    0.8915788    0.7479214    3.6910360  
C    0.8684491    0.7287414    2.2159470  
N    1.8754542    1.5738793    1.8102719  
C    0.0000000    0.0000000    1.4700000  
C   -0.9772830   -0.8200135    2.1664417  
O   -1.8021297   -1.5120829    1.5842315  
C   -0.9711318   -0.8147624    3.7284083  
O   -1.7894187   -1.5009653    4.3257297  
C    0.0140216    0.0115358    4.4216297  
H    2.2638494    1.8988021    5.0689105  
H    0.0117648    0.0094386    5.5031631  
H    3.3327358    2.7953732    2.7900019  
H    2.1123206    1.7707734    0.8551938  
