60

C    5.1569702   -1.1167905   -7.1673576  
C    4.4960352   -0.0158401   -6.6738591  
C    4.8943293    1.0997244   -7.4685146  
C    5.8070250    0.6142269   -8.4397012  
N    5.9455637   -0.7349774   -8.2273990  
C    6.4046531    1.4408957   -9.3958651  
C    6.0746789    2.7820498   -9.3713633  
O    6.6289995    3.6337608  -10.2825883  
C    5.1663723    3.2854587   -8.4099201  
O    4.9405335    4.6423593   -8.5155652  
C    4.5766255    2.4705576   -7.4661715  
H    6.5222782   -1.3517312   -8.7705346  
H    7.1011558    1.0770630  -10.1386377  
H    6.2694895    4.5098183  -10.0914353  
H    4.3164350    4.9010543   -7.8305974  
H    3.8847559    2.8847877   -6.7421490  
H    5.1293541   -2.1439366   -6.8461611  
C    4.5294737   -2.1111778   -2.7873602  
C    4.8355748   -1.6481497   -4.0267077  
C    3.7722452   -0.7522110   -4.4158856  
C    2.8147156   -0.7310541   -3.2936206  
N    3.3317090   -1.5757412   -2.3385758  
C    1.6707636   -0.0012343   -3.2725974  
C    1.3618921    0.8179366   -4.4328097  
O    0.3558259    1.5108613   -4.5101842  
C    2.3616939    0.8105939   -5.6328715  
O    2.1121098    1.4960722   -6.6152601  
C    3.5619235   -0.0167230   -5.5388102  
H    5.7067350   -1.9050624   -4.6026323  
H    5.0780201   -2.7986807   -2.1642014  
H    2.9056661   -1.7713787   -1.4512985  
C    1.0965514    0.0001358   -0.8010306  
C    0.0000000    0.0000000    0.0000000  
C   -1.1546565    0.0001470   -0.8669508  
C   -0.6372019    0.0003520   -2.2486278  
N    0.7342867    0.0007338   -2.1395012  
C   -1.4147744    0.0001354   -3.3608712  
C   -2.8576052   -0.0001047   -3.1854454  
O   -3.6427785   -0.0002490   -4.1244896  
C   -3.4275841   -0.0000727   -1.7311660  
O   -4.6406832    0.0000333   -1.5710049  
C   -2.4891868   -0.0001090   -0.6116739  
H   -1.0150456    0.0001617   -4.3654239  
H   -2.8919122   -0.0002919    0.3920871  
H    2.1388270    0.0000663   -0.5261650  
C    2.5128556    2.1077716    2.9199648  
C    1.9592212    1.6432552    4.0696553  
C    0.8915788    0.7479214    3.6910360  
C    0.8684491    0.7287414    2.2159470  
N    1.8754542    1.5738793    1.8102719  
C    0.0000000    0.0000000    1.4700000  
C   -0.9772830   -0.8200135    2.1664417  
O   -1.8021297   -1.5120829    1.5842315  
C   -0.9711318   -0.8147624    3.7284083  
O   -1.7894187   -1.5009653    4.3257297  
C    0.0140216    0.0115358    4.4216297  
H    2.2638494    1.8988021    5.0689105  
H    0.0117648    0.0094386    5.5031631  
H    3.3327358    2.7953732    2.7900019  
H    2.1123206    1.7707734    0.8551938  
