60

C    6.5363374    2.1247504   -5.4847272  
C    6.7881911    1.6626334   -4.2137101  
C    7.9018985    0.7762182   -4.3060336  
C    8.2906060    0.7368664   -5.6695896  
N    7.4395738    1.5653831   -6.3580099  
C    9.3595673   -0.0382912   -6.1291994  
C   10.0488755   -0.7871339   -5.1952476  
O   11.1013160   -1.5616082   -5.5896750  
C    9.6759397   -0.7613588   -3.8303034  
O   10.4597369   -1.5613950   -3.0247312  
C    8.6213209    0.0029129   -3.3762192  
H    6.2363155    1.9305174   -3.3290269  
H    7.4783957    1.7470676   -7.3446526  
H    9.6607458   -0.0727359   -7.1671331  
H   11.4353237   -1.9945304   -4.7932573  
H   10.1414783   -1.4865848   -2.1199004  
H    5.7829697    2.8079977   -5.8376709  
C    4.7390840    0.0009613   -1.2727298  
C    5.7159780    0.0017137   -2.2159966  
C    6.9782049    0.0017419   -1.5148417  
C    6.6542736    0.0009092   -0.0754467  
N    5.2807306    0.0008646    0.0037337  
C    7.5764457    0.0002870    0.9201955  
C    8.9818048    0.0006743    0.5493866  
O    9.8878556    0.0002336    1.3724144  
C    9.3478544    0.0018078   -0.9691032  
O   10.5277193    0.0024491   -1.2934190  
C    8.2653746    0.0021236   -1.9499649  
H    5.5691178    0.0023766   -3.2813817  
H    7.3176385   -0.0004497    1.9699235  
H    4.7530492   -0.0011857    0.8573115  
C    3.2798077    0.0005856   -1.4499661  
C    2.5571132    0.0005565   -2.5996564  
C    1.1637425    0.0001547   -2.2210366  
C    1.1336959   -0.0000200   -0.7459475  
N    2.4483509   -0.0001429   -0.3402730  
C    0.0000000    0.0000000    0.0000000  
C   -1.2757370   -0.0000187   -0.6964411  
O   -2.3524597   -0.0000640   -0.1142306  
C   -1.2676502   -0.0000874   -2.2584078  
O   -2.3355774   -0.0004102   -2.8557287  
C    0.0181551    0.0001758   -2.9516297  
H    2.9547342    0.0006074   -3.5989118  
H    0.0150776    0.0003317   -4.0331632  
H    2.7563626    0.0012823    0.6148051  
C    0.8681109    0.7263879    2.2709268  
C    0.6127770    0.5096195    3.5869401  
C   -0.4920590   -0.4175482    3.6542670  
C   -0.8620974   -0.7254003    2.2596025  
N    0.0000000    0.0000000    1.4700000  
C   -1.8641242   -1.5660088    1.8976294  
C   -2.6293522   -2.2103885    2.9520183  
O   -3.5512764   -2.9839180    2.7283916  
C   -2.2549728   -1.8987399    4.4361073  
O   -2.8923672   -2.4351063    5.3323774  
C   -1.1543735   -0.9755647    4.7012123  
H    1.1382914    0.9492124    4.4159191  
H   -2.1192137   -1.7782617    0.8686553  
H   -0.9013378   -0.7652422    5.7314848  
H    1.6172880    1.3558399    1.8188057  
