60

C    3.9197680   -5.4752696   -7.4528155  
C    4.6389574   -5.0067522   -8.5278624  
C    4.3578398   -3.6129408   -8.6412768  
C    3.4532977   -3.2846453   -7.5991870  
N    3.2066815   -4.4386158   -6.8976529  
C    2.9589963   -1.9910940   -7.4063661  
C    3.3858326   -1.0110405   -8.2812851  
O    2.9346477    0.2691969   -8.1383228  
C    4.2877335   -1.3190578   -9.3274775  
O    4.6174304   -0.2348710  -10.1143572  
C    4.7755723   -2.5950144   -9.5184599  
H    5.2856847   -5.5972014   -9.1540466  
H    2.6092612   -4.5129033   -6.0941908  
H    3.3495648    0.7850896   -8.8418586  
H    5.2296642   -0.5286562  -10.7958729  
H    5.4651843   -2.8008170  -10.3287429  
H    3.8579315   -6.4671802   -7.0389962  
C    2.0577021   -2.1067618   -5.0538579  
C    2.0213371   -1.6421655   -6.3293585  
C    0.8918563   -0.7471751   -6.4193650  
C    0.2687260   -0.7282838   -5.0821511  
N    1.0227497   -1.5732440   -4.3008824  
C   -0.8287665    0.0000939   -4.7555305  
C   -1.4369817    0.8199931   -5.7901201  
O   -2.4278330    1.5117415   -5.5951873  
C   -0.7938992    0.8150427   -7.2135759  
O   -1.2973733    1.5011524   -8.0927958  
C    0.3886477   -0.0108724   -7.4444391  
H    0.8279791   -0.0085683   -8.4327239  
H    2.7533681   -2.7941799   -4.6006534  
H    0.8492696   -1.7702610   -3.3323083  
C    1.0672569   -0.0000698   -0.8321910  
C    0.0000000    0.0000000    0.0000000  
C   -1.1601223   -0.0000736   -0.8778472  
C   -0.5938729   -0.0000768   -2.2438435  
N    0.7113367   -0.0001553   -2.2234123  
C   -1.4286985   -0.0001877   -3.4135239  
C   -2.7683113   -0.0006798   -3.2270524  
O   -3.6653902   -0.0008302   -4.2276970  
C   -3.3702024   -0.0010610   -1.8610774  
O   -4.5974910   -0.0013779   -1.7662963  
C   -2.4926825   -0.0008943   -0.6770658  
H   -4.5324245   -0.0012258   -3.7833954  
H   -2.9677772   -0.0012974    0.2947961  
H    2.1134391   -0.0000547   -0.5705119  
C    2.4951002    2.0940188    2.9809380  
C    1.9440701    1.6314916    1.8291961  
C    0.8759964    0.7350050    2.2038498  
C    0.8497377    0.7130254    3.6788474  
N    1.8560616    1.5571714    4.0882609  
C   -0.0205033   -0.0168748    4.4215661  
C   -0.9962600   -0.8356168    3.7214979  
O   -1.8224391   -1.5286685    4.3006425  
C   -0.9864710   -0.8277881    2.1595606  
O   -1.8030528   -1.5133726    1.5592035  
C    0.0000000    0.0000000    1.4700000  
H    2.2509283    1.8888011    0.8310761  
H   -0.0229599   -0.0187323    5.5027230  
H    3.3143982    2.7817323    3.1139444  
H    2.0889452    1.7545833    5.0442112  
