62

C    2.5432474   -2.1201839   -5.9711738  
C    1.9944233   -1.6589125   -4.7970838  
C    0.9351222   -0.7723427   -5.1527170  
C    0.8841191   -0.7320295   -6.5696505  
N    1.8752704   -1.5601472   -7.0349012  
C   -0.0438064    0.0435294   -7.2712560  
C   -0.9367047    0.7917924   -6.5289536  
O   -1.8641931    1.5666222   -7.1633176  
C   -0.9013486    0.7650563   -5.1144385  
O   -1.8552613    1.5646082   -4.5193668  
C    0.0139746    0.0003883   -4.4216235  
H    2.3185015   -1.9274449   -3.8061970  
H    2.0737737   -1.7411560   -8.0022747  
H   -0.0877729    0.0787063   -8.3510857  
H   -2.3791717    1.9990292   -6.4697144  
H   -1.7628468    1.4891551   -3.5647096  
H    3.3592557   -2.8032527   -6.1339813  
C    3.2798087    0.0005858   -1.4499643  
C    2.5571149    0.0005569   -2.5996548  
C    1.1637440    0.0001551   -2.2210358  
C    1.1336966   -0.0000198   -0.7459468  
N    2.4483512   -0.0001426   -0.3402714  
C    0.0000000    0.0000000    0.0000000  
C   -1.2757369   -0.0000185   -0.6964416  
O   -2.3524599   -0.0000639   -0.1142315  
C   -1.2676492   -0.0000870   -2.2584080  
O   -2.3355760   -0.0004099   -2.8557298  
C    0.0181565    0.0001762   -2.9516296  
H    2.9547360    0.0006079   -3.5989102  
H    2.7563627    0.0012824    0.6148067  
C    5.6706444   -0.0000104   -2.2998280  
C    6.9366752   -0.0017176   -1.8086679  
C    6.8296111   -0.0022720   -0.3687470  
C    5.3870846   -0.0007662   -0.0590620  
N    4.7390849    0.0009618   -1.2727274  
C    4.8700559   -0.0011608    1.1956833  
C    5.7961359   -0.0029788    2.3159095  
O    5.4290421   -0.0034056    3.4836178  
C    7.3281298   -0.0043419    2.0112831  
O    8.1174233   -0.0055697    2.9463102  
C    7.7645004   -0.0040395    0.6172124  
H    7.8422134   -0.0023168   -2.3888531  
H    3.8085778   -0.0001646    1.4010438  
H    8.8269282   -0.0051949    0.4148021  
H    5.3397995    0.0008362   -3.3257084  
C    2.5311839    2.1237619    3.0120429  
C    1.9795631    1.6616747    1.8395852  
C    0.9223175    0.7739173    2.1983588  
C    0.8753926    0.7337535    3.6154372  
N    1.8668922    1.5631002    4.0777464  
C   -0.0496243   -0.0427881    4.3197917  
C   -0.9437528   -0.7922060    3.5801400  
O   -1.8685244   -1.5680278    4.2172520  
C   -0.9124520   -0.7656372    2.1655264  
O   -1.8671164   -1.5663939    1.5732860  
C    0.0000000    0.0000000    1.4700000  
H    2.3005065    1.9304404    0.8477417  
H    2.0679347    1.7444845    5.0445261  
H   -0.0904770   -0.0778569    5.3997470  
H   -2.3849669   -2.0011402    3.5251786  
H   -1.7775064   -1.4909735    0.6183591  
H    3.3468514    2.8078103    3.1724291  
