62

C    0.2910411   -3.1051137  -10.3267811  
C    0.0749775   -2.3043162  -11.4242820  
C   -0.1279528   -0.9785095  -10.9388371  
C   -0.0230896   -1.0322345   -9.5253159  
N    0.2297525   -2.3383909   -9.1867250  
C   -0.1685664    0.0961883   -8.7127348  
C   -0.4242640    1.3008436   -9.3385168  
O   -0.5747409    2.4341170   -8.5928203  
C   -0.5327672    1.3746266  -10.7476300  
O   -0.7901510    2.6452201  -11.2195286  
C   -0.3896336    0.2617685  -11.5498671  
H    0.0637872   -2.6352505  -12.4486600  
H    0.3637560   -2.6801847   -8.2522729  
H   -0.7442965    3.1513939   -9.2173442  
H   -0.8483664    2.6072862  -12.1790989  
H   -0.4782140    0.3491291  -12.6264357  
H    0.4825970   -4.1627905  -10.2669162  
C    2.5712577   -2.1206951   -5.9616534  
C    1.9373695   -1.6210575   -7.0756615  
C    0.9098907   -0.7465417   -6.6129414  
C    0.9654398   -0.7523422   -5.1956172  
N    1.9839667   -1.5983919   -4.8330982  
C    0.0950446    0.0004351   -4.4015596  
C   -0.8484203    0.7733794   -5.0501034  
O   -1.7229561    1.5281752   -4.3231349  
C   -0.9198270    0.7921109   -6.4633859  
O   -1.9133951    1.6110120   -6.9589329  
C   -0.0616587    0.0495203   -7.2473711  
H    2.1843498   -1.8586263   -8.0962283  
H    2.2669716   -1.7953553   -3.8901799  
H   -2.2874065    1.9829869   -4.9617323  
H   -1.8933722    1.5662712   -7.9197660  
H    3.3949109   -2.8094146   -5.8827842  
C    3.3321173    0.0004713   -1.3379338  
C    2.6974181    0.0000116   -2.5332314  
C    1.2800438   -0.0002119   -2.2052841  
C    1.2395034    0.0000643   -0.7271299  
N    2.4394062    0.0005460   -0.2131038  
C    0.0000000    0.0000000    0.0000000  
C   -1.1468702    0.0000634   -0.7169543  
O   -2.3742203    0.0000074   -0.1695487  
C   -1.1388770    0.0001607   -2.2096355  
O   -2.2206234    0.0000905   -2.7970411  
C    0.1454522    0.0001815   -2.9324241  
H    3.1367984   -0.0000653   -3.5160950  
H   -2.9844346    0.0001026   -0.9290167  
H    4.3940038    0.0007618   -1.1498640  
C    0.0000000    0.0000000    1.4700000  
C    1.0662921    0.0000102    2.3034270  
C    0.4961870   -0.0000064    3.6418889  
C   -0.9663858    0.0000850    3.4240247  
N   -1.2632773    0.0000084    2.1528658  
C   -1.8985362    0.0000517    4.5177257  
C   -1.3925775   -0.0004564    5.7720543  
O   -2.1456383   -0.0005410    6.8851312  
C    0.0786232   -0.0009323    6.0245000  
O    0.4683759   -0.0012588    7.1921102  
C    1.0143166   -0.0008442    4.8859032  
H    2.1107198   -0.0000632    2.0421868  
H   -2.9622183    0.0003270    4.3293377  
H   -1.5042274   -0.0009692    7.6184419  
H    2.0724152   -0.0013148    5.1109744  
