64

C    8.0573293    0.7180724   -4.4124313  
C    8.6569830    0.4706170   -5.6255471  
C    9.7289943   -0.4383711   -5.3823739  
C    9.7346470   -0.7125243   -3.9907083  
N    8.7081107    0.0071868   -3.4313735  
C   10.6605115   -1.5730580   -3.3931736  
C   11.5975505   -2.1679034   -4.2155442  
O   12.5247074   -3.0171121   -3.6842834  
C   11.6082920   -1.9066171   -5.6063821  
O   12.6033455   -2.5745950   -6.2897682  
C   10.6953759   -1.0575796   -6.1965057  
H    8.3591588    0.8941233   -6.5694406  
H   10.6702155   -1.7860425   -2.3331054  
H   13.0742505   -3.3164176   -4.4202751  
H   12.5404682   -2.3432142   -7.2214947  
H   10.7283807   -0.8766244   -7.2645155  
H    7.2177968    1.3465279   -4.1691473  
C    4.7630507    0.0004755   -1.3275395  
C    5.7496385    0.0026097   -2.2862402  
C    6.9990004    0.0020490   -1.5979847  
C    6.7092701   -0.0007640   -0.2094692  
N    5.3425445    0.0002945   -0.0803285  
C    7.7059377   -0.0023356    0.7710609  
C    9.0190064   -0.0013508    0.3420777  
O   10.0316325   -0.0031543    1.2572819  
C    9.3281966    0.0018248   -1.0389397  
O   10.6818191    0.0028611   -1.3054863  
C    8.3454711    0.0036499   -2.0068103  
H    5.5886421    0.0054611   -3.3506954  
H    4.8418150   -0.0117182    0.7897905  
H    7.4916924   -0.0043362    1.8309178  
H   10.8555488   -0.0017543    0.7528762  
H   10.8038891    0.0049982   -2.2597913  
C    3.3003548    0.0005276   -1.4738982  
C    2.5232817    0.0003497   -2.6090743  
C    1.1623204   -0.0001319   -2.1820101  
C    1.1711886    0.0000583   -0.7636140  
N    2.4852302   -0.0014919   -0.3662356  
C    0.0000000    0.0000000    0.0000000  
C   -1.2020379    0.0000520   -0.6806479  
O   -2.3759249    0.0003495    0.0157742  
C   -1.2314652   -0.0005112   -2.0955511  
O   -2.5054384   -0.0008036   -2.6250184  
C   -0.0764510   -0.0007271   -2.8495195  
H    2.8919962   -0.0005619   -3.6205297  
H    2.8036267    0.0088181    0.5858667  
H   -3.0835636    0.0000348   -0.6418823  
H   -2.4360038   -0.0011526   -3.5845925  
H   -0.1304090   -0.0013420   -3.9319089  
C    0.8681109    0.7263879    2.2709268  
C    0.6127770    0.5096195    3.5869401  
C   -0.4920590   -0.4175482    3.6542670  
C   -0.8620974   -0.7254003    2.2596025  
N    0.0000000    0.0000000    1.4700000  
C   -1.8641242   -1.5660088    1.8976294  
C   -2.6293522   -2.2103885    2.9520183  
O   -3.5512764   -2.9839180    2.7283916  
C   -2.2549728   -1.8987399    4.4361073  
O   -2.8923672   -2.4351063    5.3323774  
C   -1.1543735   -0.9755647    4.7012123  
H    1.1382914    0.9492124    4.4159191  
H   -2.1192137   -1.7782617    0.8686553  
H   -0.9013378   -0.7652422    5.7314848  
H    1.6172880    1.3558399    1.8188057  
