62

C    0.4572291    0.7179851   -7.2868845  
C    1.4751621   -0.0000331   -7.8706057  
C    0.9023485   -0.7280298   -8.9552735  
C   -0.4799787   -0.4114713   -8.9850665  
N   -0.7170240    0.4674580   -7.9574917  
C   -1.3591731   -0.9508167   -9.9289485  
C   -0.8332778   -1.8254275  -10.8598995  
O   -1.6471825   -2.3808638  -11.8043902  
C    0.5432117   -2.1539124  -10.8461899  
O    0.9133366   -3.0390424  -11.8376009  
C    1.4110904   -1.6224228   -9.9151525  
H   -1.6071343    0.8763021   -7.7371931  
H   -2.4137761   -0.7136828   -9.9569064  
H   -1.0870382   -2.9523635  -12.3455843  
H    1.8571259   -3.2078485  -11.7577875  
H    2.4604508   -1.8928287   -9.9293665  
H    0.4756273    1.3878880   -6.4443582  
C    3.2973507   -0.0000930   -3.8752373  
C    4.6090968    0.0000004   -4.2265165  
C    4.6584750   -0.0001366   -5.6695683  
C    3.2579285   -0.0002894   -6.1335298  
N    2.4824025   -0.0006537   -4.9971105  
C    2.8797120   -0.0000493   -7.4368546  
C    3.9215751    0.0001631   -8.4502930  
O    3.6829943    0.0003255   -9.6508680  
C    5.4116105    0.0000756   -7.9816786  
O    6.2974484   -0.0000538   -8.8258060  
C    5.6945666    0.0000909   -6.5485740  
H    5.4465358   -0.0000338   -3.5517507  
H    6.7288538    0.0002355   -6.2323876  
H    1.4789637    0.0007244   -4.9846260  
C    3.3321175    0.0004715   -1.3379331  
C    2.6974186    0.0000117   -2.5332308  
C    1.2800441   -0.0002117   -2.2052838  
C    1.2395036    0.0000644   -0.7271292  
N    2.4394065    0.0005460   -0.2131033  
C    0.0000000    0.0000000    0.0000000  
C   -1.1468701    0.0000635   -0.7169542  
O   -2.3742199    0.0000073   -0.1695491  
C   -1.1388766    0.0001607   -2.2096354  
O   -2.2206227    0.0000905   -2.7970412  
C    0.1454526    0.0001817   -2.9324239  
H   -2.9844344    0.0001026   -0.9290168  
H    0.1083579    0.0003683   -4.0135594  
H    4.3940038    0.0007619   -1.1498630  
C    0.8676693    0.7151171    2.2619005  
C    0.5875920    0.4624972    3.5848544  
C   -0.5048400   -0.4542819    3.6114698  
C   -0.8517165   -0.7276451    2.2635546  
N    0.0000000    0.0000000    1.4700000  
C   -1.8902865   -1.5946756    1.9108239  
C   -2.5912627   -2.1969500    2.9375057  
O   -3.6148162   -3.0527051    2.6493466  
C   -2.2603868   -1.9365747    4.2886322  
O   -3.0513550   -2.6123276    5.1947621  
C   -1.2361111   -1.0811317    4.6373480  
H    1.1060808    0.8876438    4.4271209  
H   -2.1597133   -1.8070987    0.8854031  
H   -3.9636755   -3.3565188    3.4974381  
H   -2.7621927   -2.3810384    6.0827341  
H   -1.0058879   -0.9010589    5.6809233  
H    1.6167816    1.3499334    1.8205408  
