62

C    3.4087101   -0.7064436   -3.0324172  
C    4.6439231   -0.4554585   -3.5835292  
C    4.4407869    0.4527126   -4.6645291  
C    3.0496381    0.7227526   -4.7254378  
N    2.4521480    0.0014830   -3.7217483  
C    2.4867659    1.5814353   -5.6744523  
C    3.3439020    2.1786251   -6.5782559  
O    2.8473359    3.0261783   -7.5259307  
C    4.7348360    1.9214476   -6.5337634  
O    5.4551834    2.5913534   -7.5010634  
C    5.2907831    1.0742382   -5.5979831  
H    5.5765049   -0.8761479   -3.2484102  
H    1.4272937    1.7912865   -5.7262423  
H    3.6036617    3.3276082   -8.0459079  
H    6.3843599    2.3627319   -7.4012289  
H    6.3597902    0.8964358   -5.5885603  
H    3.1341695   -1.3355410   -2.2030664  
C    0.0000000    0.0000000    0.0000000  
C    1.0662921   -0.0000106   -0.8334269  
C    0.4961870    0.0000059   -2.1718889  
C   -0.9663856   -0.0000854   -1.9540246  
N   -1.2632773   -0.0000087   -0.6828657  
C   -1.8985362   -0.0000522   -3.0477258  
C   -1.3925773    0.0004558   -4.3020541  
O   -2.1456384    0.0005402   -5.4151311  
C    0.0786236    0.0009315   -4.5544999  
O    0.4683762    0.0012578   -5.7221098  
C    1.0143167    0.0008435   -3.4159031  
H    2.1107198    0.0000631   -0.5721865  
H   -1.5042271    0.0009682   -6.1484419  
C   -3.3460094   -0.0004268   -2.7913647  
C   -4.0351700    0.0002974   -1.6007663  
C   -5.4244873    0.0000965   -1.9238721  
C   -5.5227199   -0.0010538   -3.3388900  
N   -4.2424267    0.0006057   -3.8343331  
C   -6.7482123   -0.0018516   -4.0119107  
C   -7.8954377   -0.0017884   -3.2424625  
O   -9.1185480   -0.0028971   -3.8482791  
C   -7.8179693   -0.0002734   -1.8293759  
O   -9.0483375    0.0000109   -1.2052464  
C   -6.6093335    0.0007875   -1.1647521  
H   -3.5911527    0.0020018   -0.6200324  
H   -3.9968103   -0.0102587   -4.8077478  
H   -6.8298400   -0.0025855   -5.0901217  
H   -9.7745203   -0.0023402   -3.1390795  
H   -8.9066624    0.0010313   -0.2536527  
H   -6.5814276    0.0021214   -0.0813786  
C    3.2573670    0.0002920    2.9809380  
C    2.5379467    0.0001709    1.8291961  
C    1.1435042   -0.0000331    2.2038498  
C    1.1092607    0.0000083    3.6788474  
N    2.4227561   -0.0001909    4.0882609  
C   -0.0265533    0.0002524    4.4215661  
C   -1.3003036    0.0002640    3.7214979  
O   -2.3786784    0.0004133    4.3006425  
C   -1.2877726   -0.0000311    2.1595606  
O   -2.3539958   -0.0003306    1.5592035  
C    0.0000000    0.0000000    1.4700000  
H    2.9384090    0.0000368    0.8310761  
H   -0.0296291    0.0004086    5.5027230  
H    4.3270393    0.0004765    3.1139444  
H    2.7280493    0.0013407    5.0442112  
