62

C   -4.2597101    0.7226391   -7.6894050  
C   -5.5066307    0.4734714   -8.2143557  
C   -5.3274471   -0.4335250   -9.3005649  
C   -3.9381677   -0.7047549   -9.3914654  
N   -3.3187311    0.0147086   -8.3998563  
C   -3.3964689   -1.5627567  -10.3533309  
C   -4.2732449   -2.1580291  -11.2393843  
O   -3.7977982   -3.0048430  -12.1984835  
C   -5.6626727   -1.8996418  -11.1649182  
O   -6.4041129   -2.5676753  -12.1174613  
C   -6.1977402   -1.0531030  -10.2164455  
H   -6.4314584    0.8945885   -7.8589021  
H   -2.3385389   -1.7735070  -10.4279657  
H   -4.5653242   -3.3049302  -12.7025832  
H   -7.3307354   -2.3383335  -11.9975485  
H   -7.2661368   -0.8743393  -10.1840041  
H   -3.9669541    1.3504433   -6.8653209  
C   -1.0641738    0.0073911   -4.6315339  
C    0.2004553    0.0078178   -5.1262942  
C    0.0892946    0.0101555   -6.5659030  
C   -1.3541083    0.0110917   -6.8714806  
N   -1.9986532    0.0089311   -5.6559784  
C   -1.8747039    0.0136545   -8.1247479  
C   -0.9518136    0.0153963   -9.2476043  
O   -1.3222287    0.0176755  -10.4142606  
C    0.5810414    0.0141933   -8.9473387  
O    1.3676713    0.0153340   -9.8846081  
C    1.0213765    0.0116821   -7.5545177  
H    1.1076402    0.0064481   -4.5486895  
H    2.0843764    0.0110680   -7.3551324  
H   -2.9945001    0.0104955   -5.5321487  
C    1.1319245    0.0015656   -0.8009271  
C    0.7969914    0.0034943   -2.1169404  
C   -0.6453340    0.0035712   -2.1842672  
C   -1.1266833    0.0015434   -0.7896027  
N    0.0000000    0.0000000    0.0000000  
C   -2.4346131    0.0013965   -0.4276296  
C   -3.4350110    0.0031409   -1.4820182  
O   -4.6384610    0.0030975   -1.2583916  
C   -2.9478961    0.0050507   -2.9661073  
O   -3.7809383    0.0062220   -3.8623773  
C   -1.5113824    0.0053091   -3.2312124  
H    1.4821237    0.0045409   -2.9459193  
H   -2.7664564    0.0000233    0.6013449  
H    2.1104315    0.0009392   -0.3488061  
C    2.5311839    2.1237619    3.0120429  
C    1.9795631    1.6616747    1.8395852  
C    0.9223175    0.7739173    2.1983588  
C    0.8753926    0.7337535    3.6154372  
N    1.8668922    1.5631002    4.0777464  
C   -0.0496243   -0.0427881    4.3197917  
C   -0.9437528   -0.7922060    3.5801400  
O   -1.8685244   -1.5680278    4.2172520  
C   -0.9124520   -0.7656372    2.1655264  
O   -1.8671164   -1.5663939    1.5732860  
C    0.0000000    0.0000000    1.4700000  
H    2.3005065    1.9304404    0.8477417  
H    2.0679347    1.7444845    5.0445261  
H   -0.0904770   -0.0778569    5.3997470  
H   -2.3849669   -2.0011402    3.5251786  
H   -1.7775064   -1.4909735    0.6183591  
H    3.3468514    2.8078103    3.1724291  
