62

C    6.7850966   -3.4355610   -7.2871386  
C    7.5050103   -3.4382337   -8.4593949  
C    7.4660789   -2.1088370   -8.9749420  
C    6.7017399   -1.3324248   -8.0667032  
N    6.3019374   -2.1691626   -7.0544561  
C    6.4553888    0.0304780   -8.2580068  
C    6.9906346    0.6204102   -9.3865767  
O    6.7811149    1.9484435   -9.6220370  
C    7.7556731   -0.1376352  -10.3046726  
O    8.2193914    0.5935334  -11.3787778  
C    7.9988792   -1.4822737  -10.1167235  
H    7.9967040   -4.2934259   -8.8905291  
H    5.8735347    0.6277661   -7.5696079  
H    7.2341983    2.1537203  -10.4501914  
H    8.7256971    0.0076107  -11.9497003  
H    8.5883942   -2.0369439  -10.8373419  
H    6.5768361   -4.2371257   -6.5993297  
C    5.6440040   -2.1665158   -4.6036936  
C    5.4988194   -1.7703775   -5.8896074  
C    4.3672733   -0.8561082   -5.8749504  
C    3.9392116   -0.8155206   -4.4601357  
N    4.6839520   -1.5816220   -3.7101753  
C    2.8310662   -0.0116220   -4.0232752  
C    2.1803844    0.7188361   -4.9572875  
O    1.1296278    1.5131867   -4.6909083  
C    2.5886427    0.6993187   -6.3929423  
O    1.9508845    1.3890588   -7.1883942  
C    3.7285775   -0.1333905   -6.8161072  
H    0.8853384    1.8982282   -5.5518488  
H    3.9927899   -0.1198662   -7.8650302  
H    6.3749157   -2.8471856   -4.1969619  
C    3.3041270    0.0001177   -1.5420434  
C    2.5845372   -0.0004781   -0.3695856  
C    1.2040006   -0.0000008   -0.7283592  
C    1.1422371    0.0006037   -2.1454375  
N    2.4348636    0.0026109   -2.6077467  
C   -0.0655183    0.0008798   -2.8497920  
C   -1.2321770    0.0002326   -2.1101400  
O   -2.4392818    0.0001147   -2.7472520  
C   -1.1911210   -0.0000007   -0.6955263  
O   -2.4371527   -0.0002320   -0.1032859  
C    0.0000000    0.0000000    0.0000000  
H    3.0031533   -0.0000660    0.6222577  
H   -0.1193553    0.0014844   -3.9297472  
H   -3.1132989   -0.0000648   -2.0551784  
H   -2.3200282   -0.0004069    0.8516410  
H    4.3686624    0.0004070   -1.7024294  
C    0.0000000    0.0000000    1.4700000  
C    1.0541688    0.0001722    2.3260392  
C    0.5103138    0.0000454    3.6635956  
C   -0.9576371   -0.0002459    3.5155732  
N   -1.2018458    0.0001392    2.1615969  
C   -1.8348311   -0.0008317    4.5510609  
C   -1.2972847   -0.0009736    5.9014604  
O   -2.0050672   -0.0014265    6.9001319  
C    0.2542623   -0.0004184    6.0817573  
O    0.7184670   -0.0002256    7.2139121  
C    1.0974552   -0.0000873    4.8889129  
H    2.0940752    0.0005483    2.0517982  
H   -2.9081052   -0.0011668    4.4207061  
H    2.1707277    0.0000911    5.0223670  
H   -2.1128194   -0.0014912    1.7406791  
