60

C    1.1924170   -1.0992566   -7.3242668  
C    2.1998230   -1.9843475   -7.0173233  
C    2.9113215   -2.2410444   -8.2266524  
C    2.2873228   -1.4780496   -9.2466478  
N    1.2461718   -0.7980619   -8.6650659  
C    2.7271723   -1.4865305  -10.5737683  
C    3.8169825   -2.2794643  -10.8766686  
O    4.2881176   -2.3246217  -12.1569055  
C    4.4527948   -3.0482013   -9.8728744  
O    5.5239569   -3.7860649  -10.3327766  
C    4.0192448   -3.0405292   -8.5634845  
H    2.3968749   -2.3953639   -6.0420140  
H    0.6273972   -0.1667457   -9.1410264  
H    2.2558465   -0.9073914  -11.3558508  
H    5.0414826   -2.9293123  -12.1494369  
H    5.8962003   -4.2755302   -9.5928697  
H    4.5262713   -3.6399554   -7.8164300  
C    0.0063619   -0.7183662   -5.1315057  
C    0.1635194   -0.4995852   -6.4624871  
C   -0.8683531    0.4283181   -6.8613239  
C   -1.6451037    0.7344082   -5.6448719  
N   -1.0641734    0.0073898   -4.6315339  
C   -2.7096537    1.5750845   -5.6036130  
C   -3.1177620    2.2214017   -6.8398400  
O   -4.0639258    2.9951482   -6.9061028  
C   -2.3096709    1.9116388   -8.1401633  
O   -2.6441218    2.4496447   -9.1870416  
C   -1.1807007    0.9882017   -8.0592834  
H   -3.2656645    1.7860272   -4.7006926  
H   -0.6262509    0.7791922   -8.9640622  
H    0.5824060   -1.3488928   -4.4738595  
C    1.1319248    0.0015675   -0.8009270  
C    0.7969916    0.0034959   -2.1169404  
C   -0.6453336    0.0035703   -2.1842672  
C   -1.1266831    0.0015415   -0.7896027  
N    0.0000000    0.0000000    0.0000000  
C   -2.4346129    0.0013924   -0.4276297  
C   -3.4350110    0.0031352   -1.4820184  
O   -4.6384610    0.0030897   -1.2583919  
C   -2.9478958    0.0050460   -2.9661075  
O   -3.7809377    0.0062160   -3.8623775  
C   -1.5113821    0.0053068   -3.2312125  
H    1.4821240    0.0045436   -2.9459192  
H   -2.7664565    0.0000185    0.6013447  
H    2.1104318    0.0009428   -0.3488058  
C    0.8400945    0.7047457    2.2710304  
C    0.0000000    0.0000000    1.4700000  
C   -0.8844236   -0.7423113    2.3369512  
C   -0.4878984   -0.4098547    3.7186280  
N    0.5629682    0.4714286    3.6095011  
C   -1.0836927   -0.9095027    4.8308716  
C   -2.1891196   -1.8367527    4.6554461  
O   -2.7906899   -2.3413415    5.5944904  
C   -2.6257283   -2.2031529    3.2011665  
O   -3.5549479   -2.9829990    3.0410059  
C   -1.9068976   -1.5999348    2.0816745  
H   -0.7774656   -0.6525820    5.8354244  
H   -2.2155208   -1.8586617    1.0779135  
H    1.6384792    1.3747609    1.9961646  
H    1.0518368    0.8833920    4.3830260  
