64

C   -3.0265997   -0.0294220   -3.9901710  
C   -4.3186069   -0.0412078   -4.4624480  
C   -4.2413142   -0.0388993   -5.8867445  
C   -2.8648267   -0.0256970   -6.2288462  
N   -2.1549313   -0.0182735   -5.0538530  
C   -2.4145256   -0.0203305   -7.5524736  
C   -3.3712051   -0.0287464   -8.5489031  
O   -2.9866692   -0.0243737   -9.8585307  
C   -4.7493946   -0.0415761   -8.2275846  
O   -5.5773829   -0.0483379   -9.3310944  
C   -5.1943522   -0.0466034   -6.9220143  
H   -5.2074590   -0.0492398   -3.8551008  
H   -1.1536137   -0.0190880   -4.9807540  
H   -1.3668500   -0.0101318   -7.8198213  
H   -3.7988390   -0.0314065  -10.3815956  
H   -6.4899566   -0.0569272   -9.0265634  
C   -3.3001833   -0.0335852   -1.4738997  
C   -2.5231508   -0.0256239   -2.6090755  
C   -1.1622625   -0.0115104   -2.1820103  
C   -1.1711287   -0.0117894   -0.7636142  
N   -2.4851201   -0.0234013   -0.3662366  
C    0.0000000    0.0000000    0.0000000  
C    1.2019791    0.0119881   -0.6806475  
O    2.3758095    0.0234488    0.0157748  
C    1.2313995    0.0128461   -2.0955507  
O    2.5053060    0.0258992   -2.6250176  
C    0.0764409    0.0014929   -2.8495198  
H   -2.8033978   -0.0369000    0.5858652  
H    3.0834098    0.0308514   -0.6418812  
H    2.4358718    0.0255527   -3.5845918  
H    0.1303906    0.0026483   -3.9319089  
H   -4.3713306   -0.0442768   -1.3667143  
C   -7.6622901    2.0526839   -3.8411157  
C   -6.6187264    1.6005403   -4.6150720  
C   -7.1724548    0.7085617   -5.5806593  
C   -8.5701850    0.6556935   -5.3451102  
N   -8.8336740    1.4818633   -4.2808573  
C   -9.4373120   -0.1280295   -6.1123501  
C   -8.8833897   -0.8716993   -7.1362169  
O   -9.6845753   -1.6541018   -7.9165765  
C   -7.4910582   -0.8324632   -7.3865991  
O   -7.0931707   -1.6288469   -8.4405460  
C   -6.6349820   -0.0597355   -6.6299284  
H   -5.5853354    1.8784751   -4.4973904  
H   -9.7428149    1.6548038   -3.8915812  
H  -10.5034930   -0.1727852   -5.9378313  
H   -9.1050679   -2.0815278   -8.5605810  
H   -6.1401929   -1.5448096   -8.5424034  
H   -7.6635254    2.7360836   -3.0092971  
C    2.4951002    2.0940188    2.9809380  
C    1.9440701    1.6314916    1.8291961  
C    0.8759964    0.7350050    2.2038498  
C    0.8497377    0.7130254    3.6788474  
N    1.8560616    1.5571714    4.0882609  
C   -0.0205033   -0.0168748    4.4215661  
C   -0.9962600   -0.8356168    3.7214979  
O   -1.8224391   -1.5286685    4.3006425  
C   -0.9864710   -0.8277881    2.1595606  
O   -1.8030528   -1.5133726    1.5592035  
C    0.0000000    0.0000000    1.4700000  
H    2.2509283    1.8888011    0.8310761  
H   -0.0229599   -0.0187323    5.5027230  
H    3.3143982    2.7817323    3.1139444  
H    2.0889452    1.7545833    5.0442112  
