62

C   -3.9582765    0.7120005   -2.0436193  
C   -5.3029542    0.4626329   -2.1923642  
C   -5.4396993   -0.4462424   -3.2831650  
C   -4.1334642   -0.7183592   -3.7644427  
N   -3.2578657    0.0024038   -2.9908501  
C   -3.8873044   -1.5782278   -4.8390683  
C   -4.9796589   -2.1744904   -5.4385775  
O   -4.7962362   -3.0231312   -6.4917524  
C   -6.2907033   -1.9152428   -4.9729922  
O   -7.2721845   -2.5844469   -5.6745648  
C   -6.5343103   -1.0668623   -3.9130711  
H   -6.0887192    0.8848246   -1.5896031  
H   -2.8941507   -1.7896628   -5.2107442  
H   -5.6753432   -3.3236391   -6.7565764  
H   -8.1265769   -2.3544160   -5.2968033  
H   -7.5494853   -0.8874780   -3.5788238  
H   -3.4434898    1.3410027   -1.3377088  
C    0.0000000    0.0000000    0.0000000  
C    1.0521666   -0.0011902   -0.8862342  
C    0.4917215   -0.0011958   -2.1979130  
C   -0.9187431    0.0003147   -2.0478680  
N   -1.1833172   -0.0009412   -0.7007911  
C   -1.7951703    0.0010349   -3.1372087  
C   -1.2375842    0.0005222   -4.4010418  
O   -2.0474221    0.0015357   -5.4997576  
C    0.1673575   -0.0013569   -4.5711960  
O    0.5673518   -0.0020691   -5.8915554  
C    1.0325767   -0.0023415   -3.4969891  
H    2.0953058   -0.0030650   -0.6200564  
H   -2.0989777    0.0102372   -0.2891820  
H   -1.4634890    0.0006494   -6.2693593  
H    1.5290704   -0.0033156   -5.9180047  
C    3.4023819   -0.7104414   -3.0044226  
C    2.4861699   -0.0045385   -3.7159923  
C    3.2127734    0.7364348   -4.7199052  
C    4.6376150    0.4019321   -4.5335603  
N    4.6849703   -0.4791379   -3.4779266  
C    5.6494171    0.8998893   -5.2885437  
C    5.3126247    1.8273487   -6.3557484  
O    6.1523075    2.3305054   -7.0906412  
C    3.8100690    2.1959017   -6.5709216  
O    3.5144062    2.9759429   -7.4661199  
C    2.8092773    1.5943911   -5.6931672  
H    6.6880023    0.6414818   -5.1353249  
H    1.7711209    1.8546034   -5.8488738  
H    3.2485434   -1.3800076   -2.1738178  
H    5.5220882   -0.8922341   -3.1096439  
C    3.2573670    0.0002920    2.9809380  
C    2.5379467    0.0001709    1.8291961  
C    1.1435042   -0.0000331    2.2038498  
C    1.1092607    0.0000083    3.6788474  
N    2.4227561   -0.0001909    4.0882609  
C   -0.0265533    0.0002524    4.4215661  
C   -1.3003036    0.0002640    3.7214979  
O   -2.3786784    0.0004133    4.3006425  
C   -1.2877726   -0.0000311    2.1595606  
O   -2.3539958   -0.0003306    1.5592035  
C    0.0000000    0.0000000    1.4700000  
H    2.9384090    0.0000368    0.8310761  
H   -0.0296291    0.0004086    5.5027230  
H    4.3270393    0.0004765    3.1139444  
H    2.7280493    0.0013407    5.0442112  
