64

C   -0.1496416   -0.0015610   -4.3176964  
C    0.8570957   -0.0030495   -5.2552170  
C    0.2320386   -0.0039081   -6.5373647  
C   -1.1692064   -0.0025865   -6.3172808  
N   -1.3663827   -0.0031296   -4.9587018  
C   -2.0987838   -0.0026545   -7.3616348  
C   -1.6048140   -0.0037757   -8.6516622  
O   -2.4683515   -0.0035428   -9.7086931  
C   -0.2100863   -0.0054783   -8.8915542  
O    0.1236728   -0.0068617  -10.2301905  
C    0.7075436   -0.0056854   -7.8617573  
H    1.9121943   -0.0045706   -5.0413047  
H   -2.2604162    0.0081044   -4.5020192  
H   -3.1680130   -0.0017956   -7.2005417  
H   -1.9234604   -0.0047523  -10.5064137  
H    1.0828822   -0.0079365  -10.3044895  
C    3.3003543    0.0005277   -1.4738984  
C    2.5232812    0.0003499   -2.6090751  
C    1.1623199   -0.0001318   -2.1820105  
C    1.1711882    0.0000584   -0.7636141  
N    2.4852300   -0.0014919   -0.3662360  
C    0.0000000    0.0000000    0.0000000  
C   -1.2020385    0.0000521   -0.6806475  
O   -2.3759251    0.0003494    0.0157743  
C   -1.2314656   -0.0005111   -2.0955507  
O   -2.5054392   -0.0008036   -2.6250179  
C   -0.0764517   -0.0007271   -2.8495198  
H    2.8919953   -0.0005617   -3.6205304  
H    2.8036265    0.0088181    0.5858659  
H   -3.0835640    0.0000348   -0.6418820  
H   -2.4360052   -0.0011525   -3.5845925  
H    4.3715548    0.0004896   -1.3667136  
C    3.1019099   -0.7268501   -7.4700711  
C    2.1484304   -0.0077243   -8.1528609  
C    2.8278341    0.7190860   -9.1749952  
C    4.2057817    0.4006952   -9.0663043  
N    4.3376817   -0.4781367   -8.0199426  
C    5.1756946    0.9385063   -9.9176659  
C    4.7467250    1.8134386  -10.8967756  
O    5.6517572    2.3674264  -11.7552789  
C    3.3762091    2.1437419  -11.0208887  
O    3.1082885    3.0289643  -12.0445804  
C    2.4188499    1.6137663  -10.1811772  
H    5.2007434   -0.8880653   -7.7116183  
H    6.2274854    0.6999729   -9.8399484  
H    5.1493194    2.9394483  -12.3499313  
H    2.1614777    3.1990449  -12.0596008  
H    1.3765386    1.8855485  -10.3003406  
H    2.9984374   -1.3963933   -6.6334322  
C    2.4951002    2.0940188    2.9809380  
C    1.9440701    1.6314916    1.8291961  
C    0.8759964    0.7350050    2.2038498  
C    0.8497377    0.7130254    3.6788474  
N    1.8560616    1.5571714    4.0882609  
C   -0.0205033   -0.0168748    4.4215661  
C   -0.9962600   -0.8356168    3.7214979  
O   -1.8224391   -1.5286685    4.3006425  
C   -0.9864710   -0.8277881    2.1595606  
O   -1.8030528   -1.5133726    1.5592035  
C    0.0000000    0.0000000    1.4700000  
H    2.2509283    1.8888011    0.8310761  
H   -0.0229599   -0.0187323    5.5027230  
H    3.3143982    2.7817323    3.1139444  
H    2.0889452    1.7545833    5.0442112  
