64

C    1.6073677   -2.0689262   -5.4060709  
C    0.7601703   -1.6162729   -4.4212724  
C   -0.1611827   -0.7224055   -5.0431315  
C    0.1755902   -0.6689631   -6.4199590  
N    1.2549487   -1.4966251   -6.6059128  
C   -0.5252874    0.1165491   -7.3400296  
C   -1.5856386    0.8614515   -6.8615384  
O   -2.3044048    1.6456191   -7.7167988  
C   -1.9367923    0.8216680   -5.4911641  
O   -3.0157019    1.6194365   -5.1704420  
C   -1.2456340    0.0471751   -4.5828760  
H    0.8018763   -1.8950900   -3.3822749  
H    1.7091232   -1.6695622   -7.4844335  
H   -2.9882456    2.0736645   -7.1853815  
H   -3.1868044    1.5349161   -4.2274769  
H    2.4360311   -2.7536302   -5.3472771  
C    1.1243408    0.0099911   -0.7919008  
C    0.7474072    0.0234540   -2.1148545  
C   -0.6787386    0.0234503   -2.1414699  
C   -1.1201748    0.0098609   -0.7935543  
N    0.0000000    0.0000000    0.0000000  
C   -2.4730816    0.0063741   -0.4408237  
C   -3.3971961    0.0171027   -1.4675051  
O   -4.7313519    0.0146322   -1.1793461  
C   -2.9763655    0.0303549   -2.8186321  
O   -4.0166487    0.0395174   -3.7247614  
C   -1.6418569    0.0335288   -3.1673477  
H    1.4178708    0.0310961   -2.9571210  
H   -2.8160166   -0.0041075    0.5845971  
H   -5.1938823    0.0230938   -2.0274372  
H   -3.6464685    0.0482349   -4.6127334  
H    2.1062466    0.0052796   -0.3505415  
C    0.7447554   -3.0085467  -10.2000382  
C    0.8713482   -2.1963179  -11.3030909  
C    0.5305812   -0.8747778  -10.8883499  
C    0.2020956   -0.9427671   -9.5101625  
N    0.3406651   -2.2529419   -9.1243421  
C   -0.1830356    0.1779999   -8.7683112  
C   -0.2372623    1.3895236   -9.4297093  
O   -0.6068872    2.5158162   -8.7530583  
C    0.0864143    1.4775371  -10.8045922  
O   -0.0160719    2.7534814  -11.3191867  
C    0.4661750    0.3722387  -11.5371376  
H    1.1712263   -2.5170856  -12.2860326  
H    0.1852047   -2.6043399   -8.1968008  
H   -0.5793143    3.2397217   -9.3921709  
H    0.2192955    2.7251965  -12.2516057  
H    0.7080436    0.4704864  -12.5889582  
H    0.9093544   -4.0673231  -10.0958331  
C    2.4951002    2.0940188    2.9809380  
C    1.9440701    1.6314916    1.8291961  
C    0.8759964    0.7350050    2.2038498  
C    0.8497377    0.7130254    3.6788474  
N    1.8560616    1.5571714    4.0882609  
C   -0.0205033   -0.0168748    4.4215661  
C   -0.9962600   -0.8356168    3.7214979  
O   -1.8224391   -1.5286685    4.3006425  
C   -0.9864710   -0.8277881    2.1595606  
O   -1.8030528   -1.5133726    1.5592035  
C    0.0000000    0.0000000    1.4700000  
H    2.2509283    1.8888011    0.8310761  
H   -0.0229599   -0.0187323    5.5027230  
H    3.3143982    2.7817323    3.1139444  
H    2.0889452    1.7545833    5.0442112  
