60

C    1.8449726   -3.2313502  -10.0717599  
C    1.2965384   -2.5248817   -9.0264897  
C    1.2046241   -1.1646937   -9.4460614  
C    1.7160762   -1.1012988  -10.7675465  
N    2.0978241   -2.3730553  -11.1161475  
C    1.7790808    0.0893102  -11.4977991  
C    1.3170856    1.2367735  -10.8829282  
O    1.3551166    2.4265563  -11.5507487  
C    0.8035164    1.1938390   -9.5648921  
O    0.3831991    2.4197937   -9.0919093  
C    0.7413083    0.0196743   -8.8437866  
H    1.0003007   -2.9387689   -8.0778415  
H    2.4882727   -2.6395339  -12.0018777  
H    2.1678911    0.1443122  -12.5052729  
H    0.9910599    3.0890562  -10.9492338  
H    0.0510237    2.3027619   -8.1966072  
H    2.0771091   -4.2793190  -10.1544240  
C    2.0060354   -2.0933382   -5.2079950  
C    1.0681400   -1.6309435   -4.3416125  
C    0.2140994   -0.7346501   -5.0846522  
C    0.7350366   -0.7126398   -6.4648448  
N    1.8215800   -1.5565851   -6.4731480  
C    0.2009231    0.0171137   -7.4767177  
C   -0.9646761    0.8356538   -7.1870525  
O   -1.5183198    1.5285630   -8.0306496  
C   -1.5330619    0.8277889   -5.7321707  
O   -2.5138749    1.5132042   -5.4762943  
C   -0.8712826    0.0001710   -4.7267111  
H    0.9842756   -1.8882192   -3.3007524  
H    2.8165825   -2.7808931   -5.0286319  
H    2.3914344   -1.7539297   -7.2752498  
C    1.0965514    0.0001359   -0.8010305  
C    0.0000000    0.0000000    0.0000000  
C   -1.1546563    0.0001470   -0.8669513  
C   -0.6372014    0.0003519   -2.2486282  
N    0.7342871    0.0007337   -2.1395014  
C   -1.4147739    0.0001352   -3.3608717  
C   -2.8576049   -0.0001048   -3.1854462  
O   -3.6427779   -0.0002494   -4.1244907  
C   -3.4275840   -0.0000725   -1.7311666  
O   -4.6406831    0.0000333   -1.5710060  
C   -2.4891867   -0.0001091   -0.6116744  
H   -2.8919122   -0.0002918    0.3920866  
H    2.1388272    0.0000663   -0.5261648  
H    1.3735872   -0.0006099   -2.9130262  
C    0.0000000    0.0000000    1.4700000  
C    1.0662921    0.0000102    2.3034270  
C    0.4961870   -0.0000064    3.6418889  
C   -0.9663858    0.0000850    3.4240247  
N   -1.2632773    0.0000084    2.1528658  
C   -1.8985362    0.0000517    4.5177257  
C   -1.3925775   -0.0004564    5.7720543  
O   -2.1456383   -0.0005410    6.8851312  
C    0.0786232   -0.0009323    6.0245000  
O    0.4683759   -0.0012588    7.1921102  
C    1.0143166   -0.0008442    4.8859032  
H    2.1107198   -0.0000632    2.0421868  
H   -2.9622183    0.0003270    4.3293377  
H   -1.5042274   -0.0009692    7.6184419  
H    2.0724152   -0.0013148    5.1109744  
