60

C    5.1936662   -1.1523932   -7.1453856  
C    4.5310989   -0.0678945   -6.6187593  
C    4.8960478    1.0649661   -7.4049138  
C    5.7910182    0.6064882   -8.4052898  
N    5.9515558   -0.7439572   -8.2178274  
C    6.3549454    1.4556034   -9.3622528  
C    6.0088678    2.7918385   -9.3085477  
O    6.5302759    3.6647312  -10.2191546  
C    5.1178248    3.2684325   -8.3177317  
O    4.8725007    4.6237834   -8.3963657  
C    4.5613283    2.4313777   -7.3731808  
H    6.5226619   -1.3446734   -8.7843602  
H    7.0377976    1.1124142  -10.1271936  
H    6.1645339    4.5329876  -10.0055473  
H    4.2619468    4.8636924   -7.6926114  
H    3.8820222    2.8253059   -6.6262930  
H    5.1867052   -2.1846893   -6.8399762  
C    4.4889028   -2.1447424   -2.6754910  
C    4.8757512   -1.7386739   -3.9071713  
C    3.8306322   -0.8272354   -4.3470645  
C    2.8651835   -0.7989833   -3.2273797  
N    3.2457607   -1.5692932   -2.2446421  
C    1.6707636   -0.0012343   -3.2725974  
C    1.4510173    0.7351290   -4.3856182  
O    0.3782657    1.5248307   -4.5634278  
C    2.4067068    0.7280664   -5.5322517  
O    2.1427796    1.4226354   -6.5136474  
C    3.6247816   -0.0985266   -5.4618020  
H    5.7610391   -2.0225076   -4.4501080  
H    0.5021836    1.9161679   -5.4469735  
H    4.9956251   -2.8269104   -2.0115237  
C    1.0965514    0.0001358   -0.8010306  
C    0.0000000    0.0000000    0.0000000  
C   -1.1546565    0.0001470   -0.8669508  
C   -0.6372019    0.0003520   -2.2486278  
N    0.7342867    0.0007338   -2.1395012  
C   -1.4147744    0.0001354   -3.3608712  
C   -2.8576052   -0.0001047   -3.1854454  
O   -3.6427785   -0.0002490   -4.1244896  
C   -3.4275841   -0.0000727   -1.7311660  
O   -4.6406832    0.0000333   -1.5710049  
C   -2.4891868   -0.0001090   -0.6116739  
H   -1.0150456    0.0001617   -4.3654239  
H   -2.8919122   -0.0002919    0.3920871  
H    2.1388270    0.0000663   -0.5261650  
C    0.8681109    0.7263879    2.2709268  
C    0.6127770    0.5096195    3.5869401  
C   -0.4920590   -0.4175482    3.6542670  
C   -0.8620974   -0.7254003    2.2596025  
N    0.0000000    0.0000000    1.4700000  
C   -1.8641242   -1.5660088    1.8976294  
C   -2.6293522   -2.2103885    2.9520183  
O   -3.5512764   -2.9839180    2.7283916  
C   -2.2549728   -1.8987399    4.4361073  
O   -2.8923672   -2.4351063    5.3323774  
C   -1.1543735   -0.9755647    4.7012123  
H    1.1382914    0.9492124    4.4159191  
H   -2.1192137   -1.7782617    0.8686553  
H   -0.9013378   -0.7652422    5.7314848  
H    1.6172880    1.3558399    1.8188057  
