60

C    1.2113261   -2.9245777   -9.4528907  
C    1.8856943   -2.4561695  -10.5566523  
C    1.6012471   -1.0620865  -10.6577564  
C    0.7409663   -0.7335206   -9.5789206  
N    0.5227182   -1.8875970   -8.8682221  
C    0.2561371    0.5603401   -9.3652527  
C    0.6471183    1.5404306  -10.2567305  
O    0.2032900    2.8209645  -10.0946711  
C    1.5046068    1.2321470  -11.3395477  
O    1.8022681    2.3164099  -12.1389928  
C    1.9830692   -0.0441147  -11.5511041  
H    2.5054167   -3.0468626  -11.2093521  
H   -0.0409282   -1.9617551   -8.0407047  
H    0.5890934    3.3368302  -10.8146044  
H    2.3854736    2.0224316  -12.8454293  
H    2.6383180   -0.2501168  -12.3893707  
H    1.1658986   -3.9166173   -9.0372568  
C    0.2055739   -0.7043959   -5.1603477  
C   -0.8712826    0.0001710   -4.7267111  
C   -1.3726443    0.7423358   -5.8592585  
C   -0.4933182    0.4099879   -6.9964131  
N    0.4429031   -0.4710989   -6.5064486  
C   -0.6357676    0.9095501   -8.2501479  
C   -1.7278970    1.8365864   -8.4958973  
O   -1.9397494    2.3410839   -9.5908411  
C   -2.6713151    2.2028683   -7.3061057  
O   -3.5940523    2.9825347   -7.5008834  
C   -2.4172089    1.5997594   -6.0001417  
H   -3.0751238    1.8584033   -5.1816219  
H    0.8458871   -1.3742665   -4.6097462  
H    1.1831969   -0.8829509   -7.0443978  
C    1.0965514    0.0001359   -0.8010305  
C    0.0000000    0.0000000    0.0000000  
C   -1.1546563    0.0001470   -0.8669513  
C   -0.6372014    0.0003519   -2.2486282  
N    0.7342871    0.0007337   -2.1395014  
C   -1.4147739    0.0001352   -3.3608717  
C   -2.8576049   -0.0001048   -3.1854462  
O   -3.6427779   -0.0002494   -4.1244907  
C   -3.4275840   -0.0000725   -1.7311666  
O   -4.6406831    0.0000333   -1.5710060  
C   -2.4891867   -0.0001091   -0.6116744  
H   -2.8919122   -0.0002918    0.3920866  
H    2.1388272    0.0000663   -0.5261648  
H    1.3735872   -0.0006099   -2.9130262  
C    2.5528530    2.1414826    2.8079335  
C    2.0663498    1.7338582    4.0032312  
C    0.9804344    0.8229586    3.6752840  
C    0.9495562    0.7966882    2.1971295  
N    1.8690446    1.5676019    1.6831036  
C    0.0000000    0.0000000    1.4700000  
C   -0.8785127   -0.7372425    2.1869543  
O   -1.8187535   -1.5261249    1.6395491  
C   -0.8723269   -0.7321790    3.6796354  
O   -1.7010379   -1.4274584    4.2670412  
C    0.1115397    0.0933559    4.4024240  
H    2.4028853    2.0163452    4.9860947  
H   -2.2861435   -1.9184361    2.3990168  
H    0.0832434    0.0693689    5.4835595  
H    3.3664920    2.8238276    2.6198634  
