62

C    4.3560092   -3.6432847   -6.8366634  
C    3.6797796   -3.0453527   -5.7985601  
C    4.2761666   -3.5117533   -4.5896791  
C    5.3203007   -4.3991507   -4.9560616  
N    5.3402216   -4.4577817   -6.3274778  
C    6.1258182   -5.0484587   -4.0156738  
C    5.8728743   -4.7971348   -2.6811201  
O    6.6296356   -5.4044580   -1.7211806  
C    4.8353332   -3.9152094   -2.2957214  
O    4.7085355   -3.7693741   -0.9297065  
C    4.0401003   -3.2745138   -3.2228891  
H    5.9829519   -5.0001041   -6.8758994  
H    6.9231076   -5.7260517   -4.2884378  
H    6.2910388   -5.0957457   -0.8707030  
H    3.9863962   -3.1582027   -0.7548111  
H    3.2527829   -2.6045734   -2.8976371  
H    4.2132130   -3.5543127   -7.8999847  
C    2.5563875   -2.1074455   -5.9371939  
C    1.9637234   -1.6426512   -7.0671454  
C    0.9098256   -0.7472301   -6.6519886  
C    0.9372947   -0.7283014   -5.1769702  
N    1.9574929   -1.5736536   -4.8062070  
C    0.0950446    0.0004351   -4.4015596  
C   -0.9054234    0.8207086   -5.0639420  
O   -1.7097172    1.5127953   -4.4536732  
C   -0.9528383    0.8157264   -6.6252016  
O   -1.7910247    1.5021495   -7.1939966  
C    0.0078414   -0.0105930   -7.3519361  
H    2.2338689   -1.8980692   -8.0763022  
H   -0.0315010   -0.0083085   -8.4327557  
H    2.2269416   -1.7707466   -3.8598459  
C    3.3321173    0.0004713   -1.3379338  
C    2.6974181    0.0000116   -2.5332314  
C    1.2800438   -0.0002119   -2.2052841  
C    1.2395034    0.0000643   -0.7271299  
N    2.4394062    0.0005460   -0.2131038  
C    0.0000000    0.0000000    0.0000000  
C   -1.1468702    0.0000634   -0.7169543  
O   -2.3742203    0.0000074   -0.1695487  
C   -1.1388770    0.0001607   -2.2096355  
O   -2.2206234    0.0000905   -2.7970411  
C    0.1454522    0.0001815   -2.9324241  
H    3.1367984   -0.0000653   -3.5160950  
H   -2.9844346    0.0001026   -0.9290167  
H    4.3940038    0.0007618   -1.1498640  
C    2.5285572    2.1210227    2.9438989  
C    1.9331703    1.6216660    4.0790748  
C    0.8903039    0.7472258    3.6520102  
C    0.8972198    0.7527806    2.2336141  
N    1.9028376    1.5986179    1.8362361  
C    0.0000000    0.0000000    1.4700000  
C   -0.9207814   -0.7726952    2.1506477  
O   -1.8198395   -1.5274828    1.4542253  
C   -0.9436862   -0.7911793    3.5655508  
O   -1.9197945   -1.6098497    4.0950179  
C   -0.0590329   -0.0485852    4.3195194  
H    2.2150357    1.8593692    5.0905303  
H    2.1533708    1.7953814    0.8841339  
H   -2.3621246   -1.9821033    2.1118817  
H   -1.8668290   -1.5649508    5.0545920  
H   -0.1007624   -0.0827977    5.4019087  
H    3.3491200    2.8096064    2.8367138  
