60

C   -3.9649067    0.7083194   -6.2039056  
C   -5.3167938    0.4572982   -6.2469991  
C   -5.5374323   -0.4512882   -7.3242126  
C   -4.2725711   -0.7215329   -7.9064676  
N   -3.3399630    0.0000194   -7.2034580  
C   -4.1102740   -1.5806305   -8.9975222  
C   -5.2454906   -2.1780333   -9.5099400  
O   -5.1440719   -3.0259926  -10.5746900  
C   -6.5163598   -1.9206572   -8.9429601  
O   -7.5489469   -2.5908166   -9.5658503  
C   -6.6772492   -1.0730383   -7.8667705  
H   -6.0534550    0.8782307   -5.5843228  
H   -3.1490227   -1.7906398   -9.4459572  
H   -6.0408480   -3.3275103  -10.7699998  
H   -8.3714102   -2.3620372   -9.1222067  
H   -7.6633451   -0.8950921   -7.4539408  
H   -3.3971899    1.3376790   -5.5401565  
C    0.0139742    0.0003878   -4.4216236  
C    1.0778908    0.0006076   -5.2580812  
C    0.5039801    0.0007587   -6.5949153  
C   -0.9579669    0.0004851   -6.3728912  
N   -1.2512409    0.0003478   -5.1008931  
C   -1.8932251    0.0005802   -7.4639358  
C   -1.3908370    0.0013214   -8.7196988  
O   -2.1470611    0.0014888   -9.8306290  
C    0.0796395    0.0019852   -8.9763293  
O    0.4660689    0.0025205  -10.1450435  
C    1.0185682    0.0018291   -7.8403984  
H    2.1230574    0.0007509   -4.9998131  
H   -1.5077394    0.0020886  -10.5657605  
H    2.0760226    0.0024414   -8.0684786  
C    3.2798085    0.0005856   -1.4499646  
C    2.5571146    0.0005565   -2.5996553  
C    1.1637435    0.0001548   -2.2210360  
C    1.1336964   -0.0000200   -0.7459470  
N    2.4483515   -0.0001429   -0.3402716  
C    0.0000000    0.0000000    0.0000000  
C   -1.2757368   -0.0000187   -0.6964415  
O   -2.3524594   -0.0000640   -0.1142314  
C   -1.2676495   -0.0000873   -2.2584081  
O   -2.3355761   -0.0004101   -2.8557295  
C    0.0181563    0.0001759   -2.9516296  
H    2.9547358    0.0006075   -3.5989104  
H    4.3498547    0.0008611   -1.3200019  
H    2.7563628    0.0012823    0.6148064  
C    0.8400945    0.7047457    2.2710304  
C    0.0000000    0.0000000    1.4700000  
C   -0.8844236   -0.7423113    2.3369512  
C   -0.4878984   -0.4098547    3.7186280  
N    0.5629682    0.4714286    3.6095011  
C   -1.0836927   -0.9095027    4.8308716  
C   -2.1891196   -1.8367527    4.6554461  
O   -2.7906899   -2.3413415    5.5944904  
C   -2.6257283   -2.2031529    3.2011665  
O   -3.5549479   -2.9829990    3.0410059  
C   -1.9068976   -1.5999348    2.0816745  
H   -0.7774656   -0.6525820    5.8354244  
H   -2.2155208   -1.8586617    1.0779135  
H    1.6384792    1.3747609    1.9961646  
H    1.0518368    0.8833920    4.3830260  
