60

C   -8.0916675   -0.5298430   -2.9607699  
C   -8.3462025    0.3204733   -1.9097509  
C   -9.7597966    0.3360469   -1.7197242  
C  -10.3200470   -0.5314237   -2.6921134  
N   -9.2798043   -1.0390203   -3.4302581  
C  -11.6952204   -0.7600008   -2.7990613  
C  -12.5198238   -0.1010990   -1.9079626  
O  -13.8705088   -0.2884004   -1.9678068  
C  -11.9797692    0.7686917   -0.9309149  
O  -12.9306488    1.3501822   -0.1178696  
C  -10.6232482    0.9948710   -0.8250028  
H   -7.6043753    0.8636557   -1.3497167  
H   -9.3698512   -1.6924291   -4.1871796  
H  -12.1285042   -1.4198248   -3.5380469  
H  -14.2530131    0.2565595   -1.2678255  
H  -12.4827809    1.9219261    0.5131044  
H  -10.2388336    1.6667677   -0.0665450  
C   -4.0214243    0.6873773   -1.9917545  
C   -3.2941076    0.0012878   -2.9038237  
C   -4.2729631   -0.7438337   -3.6804421  
C   -5.5765700   -0.3795575   -3.0850461  
N   -5.4354549    0.4591738   -2.0947904  
C   -6.8150157   -0.9155365   -3.5790749  
C   -6.7539668   -1.7760008   -4.6208079  
O   -7.8303768   -2.3520038   -5.1825938  
C   -5.4537107   -2.1628843   -5.2435564  
O   -5.4732697   -2.9512790   -6.1886867  
C   -4.1970807   -1.5995187   -4.7187459  
H   -7.4696184   -2.9089611   -5.8958990  
H   -3.2763254   -1.9047888   -5.1975465  
H   -3.6647951    1.3595210   -1.2275475  
C    0.0000000    0.0000000    0.0000000  
C    1.0541688   -0.0001723   -0.8560392  
C    0.5103136   -0.0000455   -2.1935956  
C   -0.9576373    0.0002461   -2.0455730  
N   -1.2018460   -0.0001389   -0.6915968  
C   -1.8348314    0.0008319   -3.0810607  
C   -1.2972851    0.0009739   -4.4314603  
O   -2.0050676    0.0014268   -5.4301316  
C    0.2542619    0.0004184   -4.6117572  
O    0.7184666    0.0002257   -5.7439122  
C    1.0974551    0.0000873   -3.4189129  
H    2.0940752   -0.0005484   -0.5817983  
H    2.1707276   -0.0000912   -3.5523673  
H   -2.1128194    0.0014915   -0.2706789  
C    3.1301144    0.0010313    3.1728260  
C    2.5367765    0.0002768    1.9564670  
C    1.1089900   -0.0001027    2.2356185  
C    1.0177864    0.0004150    3.7115134  
N    2.1993570    0.0011613    4.2663826  
C   -0.2459220    0.0002880    4.3957118  
C   -1.3675327    0.0000606    3.6398520  
O   -2.6129319   -0.0000866    4.1448486  
C   -1.3083589   -0.0000910    2.1483229  
O   -2.3693264   -0.0004206    1.5241687  
C    0.0000000    0.0000000    1.4700000  
H    3.0096015    0.0001008    0.9892483  
H   -0.2829642    0.0004689    5.4753125  
H   -3.1967446   -0.0002093    3.3649027  
H    4.1849273    0.0015113    3.3971983  
