60

C    9.8475869   -0.7191798   -2.0469981  
C    9.3330569   -0.0011080   -3.1015590  
C   10.4161083    0.7268929   -3.6774190  
C   11.5766648    0.4102811   -2.9258942  
N   11.1958031   -0.4686824   -1.9425401  
C   12.8341819    0.9496148   -3.2132294  
C   12.9217741    1.8242686   -4.2788215  
O   14.1256069    2.3796958   -4.6033223  
C   11.7750776    2.1528068   -5.0403775  
O   12.0255141    3.0379753   -6.0685321  
C   10.5341375    1.6213286   -4.7573162  
H   11.8086359   -0.8775664   -1.2604612  
H   13.7225283    0.7124407   -2.6442037  
H   13.9660007    2.9512301   -5.3656463  
H   11.1997428    3.2068162   -6.5324275  
H    9.6738096    1.8917759   -5.3582926  
H    9.3592642   -1.3891024   -1.3601915  
C    5.6736559   -0.0009558   -0.7359122  
C    4.7161325   -0.0005435   -1.6923264  
C    5.4441200   -0.0005498   -2.9519031  
C    6.8695485   -0.0008929   -2.5585357  
N    7.0103269   -0.0012127   -1.2607796  
C    7.9272785   -0.0010475   -3.5313119  
C    7.5769325   -0.0012565   -4.8376780  
O    8.4592368   -0.0014099   -5.8513741  
C    6.1471274   -0.0012911   -5.2664175  
O    5.9016318   -0.0013616   -6.4726314  
C    5.0804442   -0.0010863   -4.2495047  
H    7.9113445   -0.0015669   -6.6569584  
H    4.0573860   -0.0012340   -4.6010477  
H    5.5430682   -0.0010921    0.3345643  
C    3.2573665   -0.0002920   -1.5109385  
C    2.5379463   -0.0001709   -0.3591964  
C    1.1435038    0.0000331   -0.7338500  
C    1.1092599   -0.0000083   -2.2088477  
N    2.4227553    0.0001909   -2.6182613  
C   -0.0265539   -0.0002524   -2.9515660  
C   -1.3003040   -0.0002640   -2.2514977  
O   -2.3786790   -0.0004133   -2.8306421  
C   -1.2877727    0.0000311   -0.6895603  
O   -2.3539959    0.0003306   -0.0892030  
C    0.0000000    0.0000000    0.0000000  
H    2.9384091   -0.0000367    0.6389234  
H   -0.0296303   -0.0004086   -4.0327229  
H    2.7280482   -0.0013407   -3.5742119  
C    0.8175213    0.6860729    2.3021913  
C    0.0000000    0.0000000    1.4700000  
C   -0.8887526   -0.7456559    2.3478473  
C   -0.4549825   -0.3816753    3.7138435  
N    0.5448156    0.4573574    3.6934124  
C   -1.0945674   -0.9182058    4.8835240  
C   -2.1210866   -1.7789155    4.6970523  
O   -2.8083856   -2.3554314    5.6976972  
C   -2.5824069   -2.1655116    3.3310774  
O   -3.5227682   -2.9541547    3.2362962  
C   -1.9100805   -1.6015804    2.1470656  
H   -0.7567140   -0.6349833    5.8697035  
H   -3.4728268   -2.9124471    5.2533954  
H   -2.2742832   -1.9066565    1.1752040  
H    1.6189533    1.3585343    2.0405121  
