62

C    0.1256024   -0.8005948   -9.6240333  
C    0.3932158   -0.3861220  -10.9081926  
C    0.1424428    1.0173235  -10.9535081  
C   -0.2790073    1.4069144   -9.6563860  
N   -0.2799493    0.2786570   -8.8743054  
C   -0.6124417    2.7258497   -9.3338656  
C   -0.5184263    3.6687249  -10.3390148  
O   -0.8317555    4.9714181  -10.0785747  
C   -0.1002308    3.2994395  -11.6396143  
O   -0.0580754    4.3525189  -12.5298907  
C    0.2286075    1.9984179  -11.9585730  
H    0.7269431   -1.0178298  -11.7135283  
H   -0.9344783    3.0292005   -8.3472185  
H   -0.7002080    5.4543385  -10.9048611  
H    0.2336593    4.0177602  -13.3833723  
H    0.5455037    1.7455468  -12.9636157  
H    0.1905546   -1.7809363   -9.1839545  
C    1.5214679   -1.9563162   -5.5959997  
C    0.7564345   -1.5844071   -4.5433904  
C   -0.2212180   -0.6607928   -5.0980363  
C    0.1090023   -0.5886728   -6.5375978  
N    1.1296214   -1.3460484   -6.8354373  
C   -0.6386068    0.2327004   -7.4494713  
C   -1.6694958    0.9491473   -6.9461765  
O   -2.4518898    1.7570651   -7.6818183  
C   -2.0277820    0.8972573   -5.4980397  
O   -2.9783777    1.5758982   -5.1094078  
C   -1.2456329    0.0471727   -4.5828766  
H    0.8445934   -1.8981613   -3.5172998  
H   -3.0926581    2.1264002   -7.0476571  
H    2.3596737   -2.6348146   -5.6009236  
C    1.1243410    0.0099923   -0.7919003  
C    0.7474076    0.0234544   -2.1148543  
C   -0.6787381    0.0234490   -2.1414700  
C   -1.1201745    0.0098592   -0.7935546  
N    0.0000000    0.0000000    0.0000000  
C   -2.4730816    0.0063709   -0.4408240  
C   -3.3971958    0.0170982   -1.4675058  
O   -4.7313517    0.0146259   -1.1793471  
C   -2.9763648    0.0303504   -2.8186324  
O   -4.0166480    0.0395118   -3.7247624  
C   -1.6418562    0.0335260   -3.1673481  
H    1.4178717    0.0310972   -2.9571209  
H   -2.8160166   -0.0041111    0.5845966  
H   -5.1938818    0.0230867   -2.0274384  
H   -3.6464675    0.0482293   -4.6127343  
H    2.1062467    0.0052819   -0.3505407  
C    2.5128556    2.1077716    2.9199648  
C    1.9592212    1.6432552    4.0696553  
C    0.8915788    0.7479214    3.6910360  
C    0.8684491    0.7287414    2.2159470  
N    1.8754542    1.5738793    1.8102719  
C    0.0000000    0.0000000    1.4700000  
C   -0.9772830   -0.8200135    2.1664417  
O   -1.8021297   -1.5120829    1.5842315  
C   -0.9711318   -0.8147624    3.7284083  
O   -1.7894187   -1.5009653    4.3257297  
C    0.0140216    0.0115358    4.4216297  
H    2.2638494    1.8988021    5.0689105  
H    0.0117648    0.0094386    5.5031631  
H    3.3327358    2.7953732    2.7900019  
H    2.1123206    1.7707734    0.8551938  
