64

C    6.4394095   -3.1330178   -5.1786110  
C    7.4838641   -3.0416042   -6.0692418  
C    7.5519096   -1.6812892   -6.4929320  
C    6.5152989   -0.9838536   -5.8214061  
N    5.8579152   -1.8952865   -5.0328923  
C    6.2852535    0.3836948   -5.9993945  
C    7.1170010    1.0595590   -6.8709340  
O    6.9369247    2.3960642   -7.0815032  
C    8.1565678    0.3811279   -7.5505276  
O    8.8979356    1.1927404   -8.3841962  
C    8.3839219   -0.9680370   -7.3756271  
H    8.1179380   -3.8555045   -6.3766683  
H    5.4968020    0.9210501   -5.4906754  
H    7.6137263    2.6661773   -7.7157309  
H    9.5780378    0.6572257   -8.8040629  
H    9.1878424   -1.4605388   -7.9100737  
H    6.0623315   -3.9834821   -4.6368717  
C    4.5278027   -2.1194571   -2.8837264  
C    3.3823332   -1.6458108   -2.3290793  
C    2.7856147   -0.7523487   -3.2936974  
C    3.6837619   -0.7442616   -4.4641916  
N    4.7207732   -1.5927452   -4.1518258  
C    3.4699945   -0.0209499   -5.5923884  
C    2.2757340    0.8048554   -5.6581402  
O    1.9943437    1.4928395   -6.6306613  
C    1.3106481    0.8117466   -4.4299842  
O    0.3021853    1.5033786   -4.4736757  
C    1.6478437   -0.0100096   -3.2702997  
H    2.9992252   -1.8938568   -1.3552645  
H    4.1413739   -0.0292834   -6.4397901  
H    5.2473348   -2.8088138   -2.4726898  
C    1.1188642    0.0008224   -0.8003808  
C    0.0000000    0.0000000    0.0000000  
C   -1.1323861    0.0008899   -0.8673529  
C   -0.6382661    0.0019681   -2.1969282  
N    0.7324017    0.0038483   -2.1202240  
C   -1.4770912    0.0027320   -3.3154810  
C   -2.8395474    0.0020946   -3.0876860  
O   -3.7039199    0.0024426   -4.1440353  
C   -3.3517867    0.0013927   -1.7684331  
O   -4.7300496    0.0012363   -1.7073125  
C   -2.5248543    0.0009121   -0.6644818  
H   -1.1067568    0.0036992   -4.3313814  
H   -4.5940031    0.0021828   -3.7685133  
H   -4.9934602    0.0007260   -0.7819919  
H   -2.9462579    0.0005600    0.3339656  
H    2.1619896    0.0009357   -0.5342065  
C    0.8676693    0.7151171    2.2619005  
C    0.5875920    0.4624972    3.5848544  
C   -0.5048400   -0.4542819    3.6114698  
C   -0.8517165   -0.7276451    2.2635546  
N    0.0000000    0.0000000    1.4700000  
C   -1.8902865   -1.5946756    1.9108239  
C   -2.5912627   -2.1969500    2.9375057  
O   -3.6148162   -3.0527051    2.6493466  
C   -2.2603868   -1.9365747    4.2886322  
O   -3.0513550   -2.6123276    5.1947621  
C   -1.2361111   -1.0811317    4.6373480  
H    1.1060808    0.8876438    4.4271209  
H   -2.1597133   -1.8070987    0.8854031  
H   -3.9636755   -3.3565188    3.4974381  
H   -2.7621927   -2.3810384    6.0827341  
H   -1.0058879   -0.9010589    5.6809233  
H    1.6167816    1.3499334    1.8205408  
