60

C   -1.3713521    2.1228607   -5.5912224  
C   -0.1167557    1.6594102   -5.9131971  
C   -0.2720577    0.7706469   -7.0179962  
C   -1.6553490    0.7313025   -7.3292578  
N   -2.2943658    1.5620852   -6.4426488  
C   -2.1747810   -0.0458784   -8.3689540  
C   -1.2814790   -0.7967901   -9.1080890  
O   -1.7349025   -1.5732924  -10.1349611  
C    0.1023037   -0.7710576   -8.8126232  
O    0.8620856   -1.5732873   -9.6387601  
C    0.6154058   -0.0047901   -7.7869105  
H    0.7977198    1.9279367   -5.4125765  
H   -3.2815390    1.7442988   -6.4262777  
H   -3.2280373   -0.0803288   -8.6111627  
H   -0.9587614   -2.0074312  -10.5123118  
H    1.7834317   -1.4983521   -9.3720962  
H   -1.6809935    2.8079547   -4.8206854  
C    2.8699641   -0.0020527   -4.0185824  
C    4.1345929   -0.0036617   -4.5133415  
C    4.0234314   -0.0055092   -5.9529510  
C    2.5800288   -0.0048104   -6.2585304  
N    1.9354845   -0.0030988   -5.0430271  
C    2.0594329   -0.0056967   -7.5117999  
C    2.9823227   -0.0076821   -8.6346564  
O    2.6119075   -0.0086660   -9.8013143  
C    4.5151773   -0.0087043   -8.3343882  
O    5.3018065   -0.0106823   -9.2716567  
C    4.9555128   -0.0073190   -6.9415653  
H    5.0417776   -0.0037477   -3.9357352  
H    6.0185127   -0.0078337   -6.7421798  
H    0.9396386   -0.0007135   -4.9192027  
C    3.2573673   -0.0002921   -1.5109381  
C    2.5379469   -0.0001710   -0.3591962  
C    1.1435042    0.0000332   -0.7338498  
C    1.1092607   -0.0000083   -2.2088474  
N    2.4227562    0.0001908   -2.6182610  
C   -0.0265532   -0.0002523   -2.9515663  
C   -1.3003033   -0.0002639   -2.2514979  
O   -2.3786784   -0.0004132   -2.8306425  
C   -1.2877726    0.0000312   -0.6895609  
O   -2.3539956    0.0003308   -0.0892035  
C    0.0000000    0.0000000    0.0000000  
H    2.9384091   -0.0000368    0.6389240  
H   -0.0296292   -0.0004086   -4.0327231  
H    4.3270395   -0.0004765   -1.6439444  
C    2.5528530    2.1414826    2.8079335  
C    2.0663498    1.7338582    4.0032312  
C    0.9804344    0.8229586    3.6752840  
C    0.9495562    0.7966882    2.1971295  
N    1.8690446    1.5676019    1.6831036  
C    0.0000000    0.0000000    1.4700000  
C   -0.8785127   -0.7372425    2.1869543  
O   -1.8187535   -1.5261249    1.6395491  
C   -0.8723269   -0.7321790    3.6796354  
O   -1.7010379   -1.4274584    4.2670412  
C    0.1115397    0.0933559    4.4024240  
H    2.4028853    2.0163452    4.9860947  
H   -2.2861435   -1.9184361    2.3990168  
H    0.0832434    0.0693689    5.4835595  
H    3.3664920    2.8238276    2.6198634  
