62

C    0.1865991   -1.0821046   -9.6381304  
C    0.1249219   -0.7064864  -10.9600888  
C   -0.1330582    0.6962007  -10.9827734  
C   -0.2193351    1.1253939   -9.6335970  
N   -0.0224501    0.0204227   -8.8430954  
C   -0.4655584    2.4547139   -9.2771260  
C   -0.6273363    3.3674473  -10.3012957  
O   -0.8695002    4.6786285  -10.0094506  
C   -0.5451327    2.9584649  -11.6536238  
O   -0.7288364    3.9849444  -12.5569152  
C   -0.3025231    1.6471763  -12.0060288  
H    0.2493444   -1.3629492  -11.8042279  
H   -0.5326206    2.7881915   -8.2507256  
H   -0.9491415    5.1366438  -10.8562951  
H   -0.6578804    3.6240953  -13.4459361  
H   -0.2451568    1.3636442  -13.0504399  
H    0.3617475   -2.0494988   -9.1994620  
C    2.5049804   -2.0931563   -5.9399565  
C    1.9571818   -1.6308520   -4.7865848  
C    0.8879546   -0.7344213   -5.1580690  
C    0.8574976   -0.7122319   -6.6329831  
N    1.8627391   -1.5562152   -7.0453796  
C   -0.0149277    0.0176858   -7.3731171  
C   -0.9887729    0.8362263   -6.6701578  
O   -1.8166673    1.5292763   -7.2468494  
C   -0.9745396    0.8281735   -5.1082557  
O   -1.7894805    1.5135874   -4.5054790  
C    0.0139741    0.0003876   -4.4216236  
H    2.2669047   -1.8882738   -3.7893789  
H    3.3239674   -2.7807664   -6.0753927  
H    2.0929226   -1.7534654   -8.0020166  
C    3.2798085    0.0005853   -1.4499648  
C    2.5571144    0.0005562   -2.5996554  
C    1.1637436    0.0001546   -2.2210360  
C    1.1336965   -0.0000201   -0.7459470  
N    2.4483513   -0.0001430   -0.3402717  
C    0.0000000    0.0000000    0.0000000  
C   -1.2757367   -0.0000188   -0.6964414  
O   -2.3524597   -0.0000640   -0.1142313  
C   -1.2676494   -0.0000875   -2.2584081  
O   -2.3355762   -0.0004102   -2.8557294  
C    0.0181562    0.0001757   -2.9516296  
H    2.9547357    0.0006072   -3.5989105  
H    4.3498550    0.0008609   -1.3200021  
H    2.7563627    0.0012824    0.6148063  
C    0.8676693    0.7151171    2.2619005  
C    0.5875920    0.4624972    3.5848544  
C   -0.5048400   -0.4542819    3.6114698  
C   -0.8517165   -0.7276451    2.2635546  
N    0.0000000    0.0000000    1.4700000  
C   -1.8902865   -1.5946756    1.9108239  
C   -2.5912627   -2.1969500    2.9375057  
O   -3.6148162   -3.0527051    2.6493466  
C   -2.2603868   -1.9365747    4.2886322  
O   -3.0513550   -2.6123276    5.1947621  
C   -1.2361111   -1.0811317    4.6373480  
H    1.1060808    0.8876438    4.4271209  
H   -2.1597133   -1.8070987    0.8854031  
H   -3.9636755   -3.3565188    3.4974381  
H   -2.7621927   -2.3810384    6.0827341  
H   -1.0058879   -0.9010589    5.6809233  
H    1.6167816    1.3499334    1.8205408  
