62

C    2.3028659   -2.1229295   -5.9144804  
C    1.6515867   -1.6243323   -7.0188822  
C    0.6310826   -0.7498526   -6.5409108  
C    0.7086122   -0.7546012   -5.1246156  
N    1.7329559   -1.6000178   -4.7773286  
C   -0.1496426   -0.0015617   -4.3176960  
C   -1.1033424    0.7705682   -4.9520852  
O   -1.9667793    1.5255763   -4.2121832  
C   -1.1966698    0.7882450   -6.3641032  
O   -2.1981108    1.6064249   -6.8447691  
C   -0.3504881    0.0453951   -7.1607690  
H    1.8827960   -1.8625549   -8.0429840  
H    2.0306265   -1.7961922   -3.8387715  
H   -2.5412366    1.9797182   -4.8422768  
H   -2.1929774    1.5609919   -7.8057654  
H   -0.4460651    0.0789854   -8.2397568  
H    3.1279002   -2.8112923   -5.8478996  
C    3.3003539    0.0005272   -1.4738994  
C    2.5232807    0.0003493   -2.6090753  
C    1.1623195   -0.0001323   -2.1820106  
C    1.1711880    0.0000582   -0.7636143  
N    2.4852298   -0.0014922   -0.3662365  
C    0.0000000    0.0000000    0.0000000  
C   -1.2020387    0.0000519   -0.6806475  
O   -2.3759248    0.0003494    0.0157747  
C   -1.2314661   -0.0005114   -2.0955507  
O   -2.5054400   -0.0008040   -2.6250174  
C   -0.0764524   -0.0007276   -2.8495195  
H    2.8919944   -0.0005625   -3.6205309  
H    2.8036264    0.0088180    0.5858657  
H   -3.0835644    0.0000351   -0.6418811  
H   -2.4360058   -0.0011530   -3.5845915  
C    4.7630501    0.0004753   -1.3275413  
C    5.6984990    0.0014446   -2.3055560  
C    6.9735489    0.0008522   -1.6050222  
C    6.6111488   -0.0004047   -0.1714085  
N    5.3167467   -0.0007116   -0.0025531  
C    7.6066074   -0.0013408    0.8650023  
C    8.9050790   -0.0014241    0.4864425  
O    9.9376484   -0.0022462    1.3465827  
C    9.3027475   -0.0005449   -0.9523136  
O   10.5033612   -0.0005513   -1.2238788  
C    8.2629691    0.0004508   -1.9967197  
H    5.5425437    0.0023487   -3.3708039  
H    7.3132518   -0.0020450    1.9046425  
H   10.7311764   -0.0021056    0.7813696  
H    8.5922695    0.0009533   -3.0271520  
C    0.0000000    0.0000000    1.4700000  
C    1.0662921    0.0000102    2.3034270  
C    0.4961870   -0.0000064    3.6418889  
C   -0.9663858    0.0000850    3.4240247  
N   -1.2632773    0.0000084    2.1528658  
C   -1.8985362    0.0000517    4.5177257  
C   -1.3925775   -0.0004564    5.7720543  
O   -2.1456383   -0.0005410    6.8851312  
C    0.0786232   -0.0009323    6.0245000  
O    0.4683759   -0.0012588    7.1921102  
C    1.0143166   -0.0008442    4.8859032  
H    2.1107198   -0.0000632    2.0421868  
H   -2.9622183    0.0003270    4.3293377  
H   -1.5042274   -0.0009692    7.6184419  
H    2.0724152   -0.0013148    5.1109744  
