60

C    4.9959197   -0.8954644   -8.8252349  
C    5.3979216   -0.4933588  -10.0779012  
C    5.1542957    0.9094962  -10.1630120  
C    4.5984977    1.3114896   -8.9214739  
N    4.5142049    0.1908603   -8.1329929  
C    4.2337721    2.6333734   -8.6487326  
C    4.4340466    3.5665000   -9.6474038  
O    4.0958583    4.8715479   -9.4341137  
C    4.9869888    3.1847763  -10.8929389  
O    5.1236379    4.2291972  -11.7839259  
C    5.3467792    1.8808386  -11.1627953  
H    5.8143908   -1.1327239  -10.8373472  
H    3.8095576    2.9461572   -7.7045874  
H    4.3142526    5.3464867  -10.2465185  
H    5.5036367    3.8862865  -12.5985525  
H    5.7678595    1.6183521  -12.1262641  
H    5.0133673   -1.8714749   -8.3712985  
C    5.9578468   -2.0116381   -4.6613370  
C    5.0861938   -1.6298114   -3.6990437  
C    4.1732073   -0.7119466   -4.3627299  
C    4.6536422   -0.6536616   -5.7600020  
N    5.6994877   -1.4135383   -5.9410649  
C    4.0070647    0.1585852   -6.7536211  
C    2.9292835    0.8795219   -6.3689500  
O    2.2294971    1.6800091   -7.1908742  
C    2.4200480    0.8415395   -4.9663102  
O    1.4341931    1.5235888   -4.6868113  
C    3.1006054    0.0006263   -3.9654951  
H    5.0652945   -1.9335816   -2.6663952  
H    1.5255990    2.0552511   -6.6315228  
H    6.7914222   -2.6898664   -4.5711608  
C    3.2798083    0.0005857   -1.4499652  
C    2.5571142    0.0005565   -2.5996556  
C    1.1637432    0.0001548   -2.2210361  
C    1.1336964   -0.0000200   -0.7459473  
N    2.4483512   -0.0001428   -0.3402723  
C    0.0000000    0.0000000    0.0000000  
C   -1.2757368   -0.0000186   -0.6964415  
O   -2.3524598   -0.0000639   -0.1142311  
C   -1.2676497   -0.0000872   -2.2584083  
O   -2.3355766   -0.0004101   -2.8557295  
C    0.0181558    0.0001758   -2.9516296  
H    0.0150788    0.0003319   -4.0331631  
H    4.3498547    0.0008612   -1.3200026  
H    2.7563626    0.0012823    0.6148059  
C    2.5128556    2.1077716    2.9199648  
C    1.9592212    1.6432552    4.0696553  
C    0.8915788    0.7479214    3.6910360  
C    0.8684491    0.7287414    2.2159470  
N    1.8754542    1.5738793    1.8102719  
C    0.0000000    0.0000000    1.4700000  
C   -0.9772830   -0.8200135    2.1664417  
O   -1.8021297   -1.5120829    1.5842315  
C   -0.9711318   -0.8147624    3.7284083  
O   -1.7894187   -1.5009653    4.3257297  
C    0.0140216    0.0115358    4.4216297  
H    2.2638494    1.8988021    5.0689105  
H    0.0117648    0.0094386    5.5031631  
H    3.3327358    2.7953732    2.7900019  
H    2.1123206    1.7707734    0.8551938  
