62

C    6.4740912   -3.6276838   -2.3996167  
C    6.8958756   -4.4604980   -1.3891780  
C    5.9298496   -4.3690415   -0.3436974  
C    4.9328792   -3.4577631   -0.7767658  
N    5.2950770   -3.0249223   -2.0281963  
C    3.8217783   -3.1251389    0.0040061  
C    3.7150138   -3.7235740    1.2444315  
O    2.6498414   -3.4346999    2.0475330  
C    4.6996674   -4.6350932    1.6943295  
O    4.4512251   -5.1459209    2.9515776  
C    5.7961992   -4.9634948    0.9247215  
H    7.7904151   -5.0593227   -1.4033797  
H    3.0585225   -2.4312367   -0.3202502  
H    2.7685463   -3.9516362    2.8549678  
H    5.1626588   -5.7521125    3.1796126  
H    6.5341840   -5.6648883    1.2960765  
H    6.9217260   -3.4148585   -3.3552773  
C    4.5310512   -2.0790477   -2.8543233  
C    4.8140926   -1.6029419   -4.0941966  
C    3.7433598   -0.7037137   -4.4544110  
C    2.8066150   -0.6948781   -3.3145769  
N    3.3414841   -1.5491125   -2.3780469  
C    1.6628945    0.0339172   -3.2649299  
C    1.3323524    0.8649110   -4.4106726  
O    0.3247026    1.5579296   -4.4623203  
C    2.3099249    0.8707268   -5.6289189  
O    2.0419932    1.5662246   -6.5993602  
C    3.5120765    0.0432796   -5.5655573  
H    5.6746396   -1.8532639   -4.6886805  
H    4.1838692    0.0530800   -6.4130965  
H    2.9319197   -1.7542582   -1.4851755  
C    1.1243410    0.0100105   -0.7919003  
C    0.7474072    0.0234665   -2.1148542  
C   -0.6787384    0.0234379   -2.1414698  
C   -1.1201748    0.0098411   -0.7935547  
N    0.0000000    0.0000000    0.0000000  
C   -2.4730818    0.0063307   -0.4408240  
C   -3.3971962    0.0170429   -1.4675058  
O   -4.7313520    0.0145490   -1.1793468  
C   -2.9763654    0.0303020   -2.8186325  
O   -4.0166484    0.0394464   -3.7247625  
C   -1.6418567    0.0334992   -3.1673480  
H   -2.8160166   -0.0041569    0.5845966  
H   -5.1938823    0.0230023   -2.0274386  
H   -3.6464680    0.0481700   -4.6127343  
H   -1.3497475    0.0435647   -4.2109234  
H    2.1062466    0.0053162   -0.3505405  
C    0.8681109    0.7263879    2.2709268  
C    0.6127770    0.5096195    3.5869401  
C   -0.4920590   -0.4175482    3.6542670  
C   -0.8620974   -0.7254003    2.2596025  
N    0.0000000    0.0000000    1.4700000  
C   -1.8641242   -1.5660088    1.8976294  
C   -2.6293522   -2.2103885    2.9520183  
O   -3.5512764   -2.9839180    2.7283916  
C   -2.2549728   -1.8987399    4.4361073  
O   -2.8923672   -2.4351063    5.3323774  
C   -1.1543735   -0.9755647    4.7012123  
H    1.1382914    0.9492124    4.4159191  
H   -2.1192137   -1.7782617    0.8686553  
H   -0.9013378   -0.7652422    5.7314848  
H    1.6172880    1.3558399    1.8188057  
