62

C   -8.4094216    0.9873509   -2.2222436  
C   -7.5932862   -0.0878056   -2.4876274  
C   -8.4379012   -1.2301211   -2.6154628  
C   -9.7705053   -0.7867723   -2.4166362  
N   -9.7172128    0.5641468   -2.1783201  
C  -10.8703211   -1.6482578   -2.4717609  
C  -10.6203519   -2.9815360   -2.7326480  
O  -11.6578119   -3.8660906   -2.7978638  
C   -9.2976879   -3.4431120   -2.9334600  
O   -9.2134232   -4.7973805   -3.1828572  
C   -8.2121903   -2.5938480   -2.8789536  
H  -10.5110241    1.1558289   -2.0117138  
H  -11.8884011   -1.3166266   -2.3209792  
H  -11.2686895   -4.7298594   -2.9869409  
H   -8.2873386   -5.0267835   -3.3067392  
H   -7.2105728   -2.9764006   -3.0367329  
H   -8.1620020    2.0223501   -2.0593969  
C   -4.5189885    2.1247805   -0.2046391  
C   -3.4217513    1.6624927   -0.8937164  
C   -3.9056841    0.7751586   -1.9002190  
C   -5.3180961    0.7354481   -1.7759555  
N   -5.6572031    1.5646455   -0.7357366  
C   -6.1291073   -0.0406021   -2.6094991  
C   -5.5029133   -0.7899852   -3.5864758  
O   -6.2471435   -1.5653366   -4.4278830  
C   -4.0948368   -0.7638644   -3.7259557  
O   -3.6222951   -1.5645230   -4.7452666  
C   -3.2941076    0.0012878   -2.9038237  
H   -2.3983553    1.9308560   -0.6946317  
H   -6.5926282    1.7462702   -0.4195504  
H   -5.6225343   -1.9985111   -5.0241120  
H   -2.6635042   -1.4894251   -4.7714260  
H   -4.5796252    2.8086378    0.6245903  
C    0.0000000    0.0000000    0.0000000  
C    1.0541688   -0.0001723   -0.8560392  
C    0.5103136   -0.0000455   -2.1935956  
C   -0.9576373    0.0002461   -2.0455730  
N   -1.2018460   -0.0001389   -0.6915968  
C   -1.8348314    0.0008319   -3.0810607  
C   -1.2972851    0.0009739   -4.4314603  
O   -2.0050676    0.0014268   -5.4301316  
C    0.2542619    0.0004184   -4.6117572  
O    0.7184666    0.0002257   -5.7439122  
C    1.0974551    0.0000873   -3.4189129  
H    2.0940752   -0.0005484   -0.5817983  
H    2.1707276   -0.0000912   -3.5523673  
H   -2.1128194    0.0014915   -0.2706789  
C    3.2798086   -0.0005857    2.9199648  
C    2.5571146   -0.0005566    4.0696553  
C    1.1637436   -0.0001548    3.6910360  
C    1.1336965    0.0000200    2.2159470  
N    2.4483514    0.0001428    1.8102719  
C    0.0000000    0.0000000    1.4700000  
C   -1.2757367    0.0000186    2.1664417  
O   -2.3524596    0.0000640    1.5842315  
C   -1.2676493    0.0000873    3.7284083  
O   -2.3355761    0.0004100    4.3257297  
C    0.0181563   -0.0001760    4.4216297  
H    2.9547357   -0.0006076    5.0689105  
H    0.0150794   -0.0003319    5.5031631  
H    4.3498549   -0.0008612    2.7900019  
H    2.7563627   -0.0012824    0.8551938  
