62

C    6.6512658    0.0983969   -4.7331416  
C    7.7287538   -0.5497329   -4.1750960  
C    8.8829654   -0.1478798   -4.9105612  
C    8.4442256    0.7541282   -5.9134645  
N    7.0838334    0.8799185   -5.7788268  
C    9.3173490    1.3523096   -6.8270417  
C   10.6578375    1.0343573   -6.7261667  
O   11.5539421    1.5903068   -7.5927289  
C   11.1148595    0.1362571   -5.7325057  
O   12.4772883   -0.0788486   -5.7619061  
C   10.2540318   -0.4544454   -4.8310789  
H    7.6877208   -1.2294878   -3.3412837  
H    6.4959516    1.4632446   -6.3463701  
H    8.9892400    2.0404814   -7.5938315  
H   12.4210120    1.2393274   -7.3513412  
H   12.7029150   -0.6964734   -5.0595985  
H   10.6332913   -1.1386122   -4.0810415  
C    4.4206225   -2.1198137   -1.5561252  
C    5.4069067   -1.6197470   -2.3744427  
C    4.7719050   -0.7451148   -3.3052441  
C    3.3859892   -0.7512895   -3.0033736  
N    3.2068303   -1.5976640   -1.9374612  
C    2.4521483    0.0014840   -3.7217481  
C    2.9260544    0.7748090   -4.7636496  
O    2.0575519    1.5296195   -5.4978012  
C    4.3052229    0.7939172   -5.0804267  
O    4.6197291    1.6131716   -6.1449695  
C    5.2270108    0.0513305   -4.3723324  
H    6.4549560   -1.8571123   -2.3092927  
H    2.3277579   -1.7949327   -1.4944058  
H    2.5878301    1.9847230   -6.1648474  
H    5.5693396    1.5686713   -6.2928300  
H    4.4867489   -2.8087409   -0.7315254  
C    0.0000000    0.0000000    0.0000000  
C    1.0662923   -0.0000101   -0.8334270  
C    0.4961873    0.0000065   -2.1718887  
C   -0.9663854   -0.0000848   -1.9540250  
N   -1.2632773   -0.0000083   -0.6828660  
C   -1.8985359   -0.0000514   -3.0477261  
C   -1.3925770    0.0004566   -4.3020547  
O   -2.1456378    0.0005414   -5.4151314  
C    0.0786240    0.0009326   -4.5545000  
O    0.4683767    0.0012591   -5.7221100  
C    1.0143171    0.0008444   -3.4159031  
H    2.1107200    0.0000633   -0.5721865  
H   -2.9622181   -0.0003268   -2.8593381  
H   -1.5042265    0.0009697   -6.1484419  
C    0.0000000    0.0000000    1.4700000  
C    1.0541688    0.0001722    2.3260392  
C    0.5103138    0.0000454    3.6635956  
C   -0.9576371   -0.0002459    3.5155732  
N   -1.2018458    0.0001392    2.1615969  
C   -1.8348311   -0.0008317    4.5510609  
C   -1.2972847   -0.0009736    5.9014604  
O   -2.0050672   -0.0014265    6.9001319  
C    0.2542623   -0.0004184    6.0817573  
O    0.7184670   -0.0002256    7.2139121  
C    1.0974552   -0.0000873    4.8889129  
H    2.0940752    0.0005483    2.0517982  
H   -2.9081052   -0.0011668    4.4207061  
H    2.1707277    0.0000911    5.0223670  
H   -2.1128194   -0.0014912    1.7406791  
