64

C    1.2235113   -0.2384301   -4.5828762  
C   -0.0142982   -0.0497492   -5.1526963  
C    0.1675264   -0.0919429   -6.5668248  
C    1.5489408   -0.3112290   -6.8024818  
N    2.1614521   -0.3934892   -5.5766433  
C    2.0907110   -0.4090338   -8.0876700  
C    1.2220815   -0.2834810   -9.1543924  
O    1.6979649   -0.3712193  -10.4306567  
C   -0.1594072   -0.0640145   -8.9395906  
O   -0.8932576    0.0397709  -10.1032212  
C   -0.6945293    0.0328487   -7.6719995  
H   -0.9348531    0.1009820   -4.6152468  
H    3.1408104   -0.5560827   -5.4269733  
H    3.1426764   -0.5759450   -8.2739809  
H    0.9366675   -0.2573006  -11.0143645  
H   -1.8148238    0.1870514   -9.8694954  
C   -1.1124679    0.1632688   -0.7919003  
C   -0.7421039    0.0919217   -2.1148548  
C    0.6670315   -0.1276909   -2.1414700  
C    1.1052948   -0.1822419   -0.7935545  
N    0.0000000    0.0000000    0.0000000  
C    2.4426011   -0.3871348   -0.4408235  
C    3.3540407   -0.5400422   -1.4675050  
O    4.6726629   -0.7430516   -1.1793463  
C    2.9361888   -0.4883311   -2.8186316  
O    3.9626523   -0.6575804   -3.7247614  
C    1.6171096   -0.2859622   -3.1673481  
H   -1.4057470    0.1876176   -2.9571212  
H    2.7830596   -0.4295879    0.5845973  
H    5.1283730   -0.8226384   -2.0274376  
H    3.5955455   -0.6091885   -4.6127343  
H   -2.0819359    0.3191306   -0.3505410  
C   -2.7024718    1.0876871   -6.5486254  
C   -2.1353205    0.2615540   -7.4911278  
C   -3.2054603   -0.3149028   -8.2375178  
C   -4.4126689    0.2012583   -7.7007206  
N   -4.0712882    1.0481660   -6.6756238  
C   -5.6719835   -0.1517717   -8.1949735  
C   -5.7133699   -1.0418480   -9.2505440  
O   -6.9166629   -1.4202731   -9.7719783  
C   -4.5198137   -1.5680629   -9.7994882  
O   -4.7276524   -2.4424953  -10.8461561  
C   -3.2771327   -1.2204413   -9.3122216  
H   -4.7193203    1.5700069   -6.1137357  
H   -6.5957926    0.2379802   -7.7901626  
H   -6.7215062   -2.0371446  -10.4893690  
H   -3.8718694   -2.7513939  -11.1589192  
H   -2.3803748   -1.6399995   -9.7529872  
H   -2.2389458    1.7008883   -5.7949098  
C    0.8400945    0.7047457    2.2710304  
C    0.0000000    0.0000000    1.4700000  
C   -0.8844236   -0.7423113    2.3369512  
C   -0.4878984   -0.4098547    3.7186280  
N    0.5629682    0.4714286    3.6095011  
C   -1.0836927   -0.9095027    4.8308716  
C   -2.1891196   -1.8367527    4.6554461  
O   -2.7906899   -2.3413415    5.5944904  
C   -2.6257283   -2.2031529    3.2011665  
O   -3.5549479   -2.9829990    3.0410059  
C   -1.9068976   -1.5999348    2.0816745  
H   -0.7774656   -0.6525820    5.8354244  
H   -2.2155208   -1.8586617    1.0779135  
H    1.6384792    1.3747609    1.9961646  
H    1.0518368    0.8833920    4.3830260  
