64

C    4.0734074    0.0863633   -8.1669317  
C    5.0919850   -0.5634204   -8.8247678  
C    5.0256258   -0.1641972  -10.1925458  
C    3.9374683    0.7379853  -10.3104708  
N    3.3800121    0.8664037   -9.0625261  
C    3.5771463    1.3339475  -11.5228189  
C    4.3291973    1.0135557  -12.6363480  
O    4.0210834    1.5672732  -13.8452632  
C    5.4183935    0.1152409  -12.5388898  
O    6.0682205   -0.1024293  -13.7362574  
C    5.7742617   -0.4732733  -11.3432583  
H    5.7955228   -1.2425622   -8.3744412  
H    2.5958898    1.4504633   -8.8344736  
H    2.7488112    2.0222387  -11.6193510  
H    4.6604490    1.2148288  -14.4779238  
H    6.7897750   -0.7200237  -13.5828294  
H    6.6134081   -1.1576659  -11.2994611  
C    5.7258289   -2.1256349   -4.6503671  
C    5.5043005   -1.6279379   -5.9135734  
C    4.3814511   -0.7527181   -5.8252547  
C    3.9565273   -0.7561091   -4.4719793  
N    4.7930958   -1.6014630   -3.7863066  
C    2.8699641   -0.0020530   -4.0185824  
C    2.2003454    0.7697161   -4.9481847  
O    1.1324736    1.5256768   -4.5593570  
C    2.6089835    0.7860436   -6.3030157  
O    1.8406945    1.6040254   -7.1055001  
C    3.6806470    0.0421904   -6.7510614  
H    6.0803753   -1.8672192   -6.7909988  
H    4.7419877   -1.7968041   -2.8028377  
H    0.8162312    1.9793601   -5.3514599  
H    2.1830477    1.5576558   -8.0034137  
H    6.4744885   -2.8141553   -4.2976530  
C    3.2573670   -0.0002921   -1.5109382  
C    2.5379468   -0.0001711   -0.3591962  
C    1.1435043    0.0000330   -0.7338498  
C    1.1092608   -0.0000085   -2.2088474  
N    2.4227562    0.0001906   -2.6182610  
C   -0.0265533   -0.0002525   -2.9515663  
C   -1.3003033   -0.0002641   -2.2514979  
O   -2.3786785   -0.0004132   -2.8306425  
C   -1.2877724    0.0000310   -0.6895608  
O   -2.3539956    0.0003306   -0.0892035  
C    0.0000000    0.0000000    0.0000000  
H    2.9384091   -0.0000370    0.6389240  
H   -0.0296290   -0.0004088   -4.0327231  
H    4.3270394   -0.0004767   -1.6439445  
C    2.5285572    2.1210227    2.9438989  
C    1.9331703    1.6216660    4.0790748  
C    0.8903039    0.7472258    3.6520102  
C    0.8972198    0.7527806    2.2336141  
N    1.9028376    1.5986179    1.8362361  
C    0.0000000    0.0000000    1.4700000  
C   -0.9207814   -0.7726952    2.1506477  
O   -1.8198395   -1.5274828    1.4542253  
C   -0.9436862   -0.7911793    3.5655508  
O   -1.9197945   -1.6098497    4.0950179  
C   -0.0590329   -0.0485852    4.3195194  
H    2.2150357    1.8593692    5.0905303  
H    2.1533708    1.7953814    0.8841339  
H   -2.3621246   -1.9821033    2.1118817  
H   -1.8668290   -1.5649508    5.0545920  
H   -0.1007624   -0.0827977    5.4019087  
H    3.3491200    2.8096064    2.8367138  
