60

C    9.4978070   -4.4166263   -5.7963942  
C    8.4005065   -3.5937185   -5.6904522  
C    7.9548629   -3.6661167   -4.3373972  
C    8.8265554   -4.5560920   -3.6591475  
N    9.7505624   -4.9951494   -4.5746026  
C    8.6853763   -4.8663408   -2.3031966  
C    7.6454637   -4.2670152   -1.6194062  
O    7.4620260   -4.5344969   -0.2935790  
C    6.7650124   -3.3765598   -2.2787328  
O    5.7799643   -2.8618981   -1.4613301  
C    6.9035289   -3.0702415   -3.6164583  
H    7.9731011   -3.0135730   -6.4902952  
H   10.5039421   -5.6296515   -4.3801683  
H    9.3463046   -5.5439418   -1.7804795  
H    6.6925608   -4.0209137   -0.0153329  
H    5.2292682   -2.2708217   -1.9837910  
H   10.1192959   -4.6377736   -6.6471611  
C    5.9676385   -2.1403201   -4.2647287  
C    5.9574580   -1.7327287   -5.5552114  
C    4.8270660   -0.8220457   -5.6520102  
C    4.2518649   -0.7958515   -4.2900113  
N    4.9163000   -1.5666193   -3.4724345  
C    3.1006054    0.0006263   -3.9654951  
C    2.5492758    0.7377404   -4.9564711  
O    1.4731209    1.5264230   -4.7955005  
C    3.1069008    0.7327491   -6.3410973  
O    2.5539554    1.4279030   -7.1932904  
C    4.2884402   -0.0925691   -6.6488941  
H    6.6335874   -2.0151067   -6.3440011  
H    1.3195663    1.9186838   -5.6739680  
H    4.6618638   -0.0685360   -7.6638851  
C    3.2798083    0.0005857   -1.4499652  
C    2.5571142    0.0005565   -2.5996556  
C    1.1637432    0.0001548   -2.2210361  
C    1.1336964   -0.0000200   -0.7459473  
N    2.4483512   -0.0001428   -0.3402723  
C    0.0000000    0.0000000    0.0000000  
C   -1.2757368   -0.0000186   -0.6964415  
O   -2.3524598   -0.0000639   -0.1142311  
C   -1.2676497   -0.0000872   -2.2584083  
O   -2.3355766   -0.0004101   -2.8557295  
C    0.0181558    0.0001758   -2.9516296  
H    0.0150788    0.0003319   -4.0331631  
H    4.3498547    0.0008612   -1.3200026  
H    2.7563626    0.0012823    0.6148059  
C    2.4951002    2.0940188    2.9809380  
C    1.9440701    1.6314916    1.8291961  
C    0.8759964    0.7350050    2.2038498  
C    0.8497377    0.7130254    3.6788474  
N    1.8560616    1.5571714    4.0882609  
C   -0.0205033   -0.0168748    4.4215661  
C   -0.9962600   -0.8356168    3.7214979  
O   -1.8224391   -1.5286685    4.3006425  
C   -0.9864710   -0.8277881    2.1595606  
O   -1.8030528   -1.5133726    1.5592035  
C    0.0000000    0.0000000    1.4700000  
H    2.2509283    1.8888011    0.8310761  
H   -0.0229599   -0.0187323    5.5027230  
H    3.3143982    2.7817323    3.1139444  
H    2.0889452    1.7545833    5.0442112  
