60

C    6.8258252   -1.9902023   -2.2240697  
C    7.4590756   -2.8293973   -1.3368198  
C    8.8480327   -2.8061910   -1.6606404  
C    9.0037130   -1.9276153   -2.7632713  
N    7.7562139   -1.4509906   -3.0813770  
C   10.2449466   -1.6625004   -3.3496518  
C   11.3491782   -2.2956049   -2.8129668  
O   12.5853269   -2.0722324   -3.3468700  
C   11.2140864   -3.1759383   -1.7131578  
O   12.4065944   -3.7285541   -1.2937720  
C    9.9898552   -3.4381581   -1.1343477  
H    6.9788253   -3.3902447   -0.5533640  
H    7.5545513   -0.7982469   -3.8170664  
H   10.3702631   -0.9940349   -4.1902778  
H   13.2055610   -2.6040591   -2.8313747  
H   12.2269989   -4.3097708   -0.5484287  
H    9.9174382   -4.1173030   -0.2929220  
C    4.3939404   -2.1065673   -1.5664975  
C    5.4031210   -1.6413498   -2.3470119  
C    4.8103418   -0.7457937   -3.3121172  
C    3.3627144   -0.7272473   -3.0278283  
N    3.1757285   -1.5729269   -1.9588325  
C    2.4521483    0.0014840   -3.7217481  
C    2.9297306    0.8221548   -4.8221798  
O    2.1884027    1.5142697   -5.5075342  
C    4.4587975    0.8175813   -5.1411452  
O    4.8725560    1.5043406   -6.0654971  
C    5.3421068   -0.0087721   -4.3221483  
H    6.3995022   -0.0062035   -4.5493762  
H    4.4376454   -2.7945221   -0.7378259  
H    2.2909015   -1.7703224   -1.5285256  
C    0.0000000    0.0000000    0.0000000  
C    1.0662923   -0.0000101   -0.8334270  
C    0.4961873    0.0000065   -2.1718887  
C   -0.9663854   -0.0000848   -1.9540250  
N   -1.2632773   -0.0000083   -0.6828660  
C   -1.8985359   -0.0000514   -3.0477261  
C   -1.3925770    0.0004566   -4.3020547  
O   -2.1456378    0.0005414   -5.4151314  
C    0.0786240    0.0009326   -4.5545000  
O    0.4683767    0.0012591   -5.7221100  
C    1.0143171    0.0008444   -3.4159031  
H    2.1107200    0.0000633   -0.5721865  
H   -2.9622181   -0.0003268   -2.8593381  
H   -1.5042265    0.0009697   -6.1484419  
C    3.2573670    0.0002920    2.9809380  
C    2.5379467    0.0001709    1.8291961  
C    1.1435042   -0.0000331    2.2038498  
C    1.1092607    0.0000083    3.6788474  
N    2.4227561   -0.0001909    4.0882609  
C   -0.0265533    0.0002524    4.4215661  
C   -1.3003036    0.0002640    3.7214979  
O   -2.3786784    0.0004133    4.3006425  
C   -1.2877726   -0.0000311    2.1595606  
O   -2.3539958   -0.0003306    1.5592035  
C    0.0000000    0.0000000    1.4700000  
H    2.9384090    0.0000368    0.8310761  
H   -0.0296291    0.0004086    5.5027230  
H    4.3270393    0.0004765    3.1139444  
H    2.7280493    0.0013407    5.0442112  
