64

C    0.1492878    0.1040324   -8.7766831  
C    1.1687660   -0.5425920   -9.4362359  
C    1.1031329   -0.1382382  -10.8025400  
C    0.0144706    0.7636740  -10.9178399  
N   -0.5439717    0.8870044   -9.6698212  
C   -0.3453668    1.3639853  -12.1281836  
C    0.4076982    1.0483012  -13.2423713  
O    0.1000949    1.6063893  -14.4494063  
C    1.4974127    0.1503350  -13.1475260  
O    2.1482465   -0.0623777  -14.3452367  
C    1.8528024   -0.4424680  -11.9538717  
H    1.8724230   -1.2229741   -8.9879720  
H   -1.3286407    1.4696847   -9.4401293  
H   -1.1740832    2.0520965  -12.2227096  
H    0.7401481    1.2567591  -15.0829317  
H    2.8700943   -0.6800774  -14.1936230  
H    2.6923653   -1.1264739  -11.9120569  
C    1.8159014   -2.1156535   -5.3336802  
C    0.9337940   -1.6549080   -4.3839079  
C    0.0359167   -0.7660298   -5.0459591  
C    0.4223296   -0.7238310   -6.4100814  
N    1.5073773   -1.5530970   -6.5501063  
C   -0.2444660    0.0542446   -7.3612761  
C   -1.3211418    0.8031324   -6.9275549  
O   -2.0081612    1.5803930   -7.8146200  
C   -1.7216870    0.7745412   -5.5705127  
O   -2.8111769    1.5750117   -5.2955535  
C   -1.0641734    0.0073898   -4.6315339  
H    0.9377498   -1.9252651   -3.3418501  
H    1.9929858   -1.7332278   -7.4101753  
H   -2.7106167    2.0128237   -7.3118043  
H   -3.0163349    1.4981863   -4.3587439  
H    2.6416169   -2.7999474   -5.2393630  
C    1.1319248    0.0015675   -0.8009270  
C    0.7969916    0.0034959   -2.1169404  
C   -0.6453336    0.0035703   -2.1842672  
C   -1.1266831    0.0015415   -0.7896027  
N    0.0000000    0.0000000    0.0000000  
C   -2.4346129    0.0013924   -0.4276297  
C   -3.4350110    0.0031352   -1.4820184  
O   -4.6384610    0.0030897   -1.2583919  
C   -2.9478958    0.0050460   -2.9661075  
O   -3.7809377    0.0062160   -3.8623775  
C   -1.5113821    0.0053068   -3.2312125  
H    1.4821240    0.0045436   -2.9459192  
H   -2.7664565    0.0000185    0.6013447  
H    2.1104318    0.0009428   -0.3488058  
C    2.5311839    2.1237619    3.0120429  
C    1.9795631    1.6616747    1.8395852  
C    0.9223175    0.7739173    2.1983588  
C    0.8753926    0.7337535    3.6154372  
N    1.8668922    1.5631002    4.0777464  
C   -0.0496243   -0.0427881    4.3197917  
C   -0.9437528   -0.7922060    3.5801400  
O   -1.8685244   -1.5680278    4.2172520  
C   -0.9124520   -0.7656372    2.1655264  
O   -1.8671164   -1.5663939    1.5732860  
C    0.0000000    0.0000000    1.4700000  
H    2.3005065    1.9304404    0.8477417  
H    2.0679347    1.7444845    5.0445261  
H   -0.0904770   -0.0778569    5.3997470  
H   -2.3849669   -2.0011402    3.5251786  
H   -1.7775064   -1.4909735    0.6183591  
H    3.3468514    2.8078103    3.1724291  
