60

C    6.4538005   -2.1278449   -6.9387042  
C    7.5333152   -2.9789417   -6.9911399  
C    7.9841943   -2.9966723   -8.3442815  
C    7.1342243   -2.1296525   -9.0775988  
N    6.2149913   -1.6202380   -8.1943529  
C    7.2863414   -1.9030613  -10.4488412  
C    8.3154298   -2.5635225  -11.0914521  
O    8.5092153   -2.3781887  -12.4297751  
C    9.1737494   -3.4328940  -10.3771010  
O   10.1498118   -4.0160997  -11.1584572  
C    9.0241024   -3.6571145   -9.0243792  
H    7.9444708   -3.5212468   -6.1569629  
H    5.4886678   -0.9666703   -8.4251870  
H    6.6417952   -1.2435911  -11.0135198  
H    9.2679974   -2.9239828  -12.6739566  
H   10.6855821   -4.5874264  -10.5997620  
H    9.6969037   -4.3287369   -8.5040527  
C    5.7075976   -2.1458906   -4.5134257  
C    5.6080286   -1.7400310   -5.8006484  
C    4.4743458   -0.8284979   -5.8198978  
C    3.9952579   -0.7999675   -4.4212399  
N    4.7143359   -1.5702093   -3.6507568  
C    2.8699641   -0.0020530   -4.0185824  
C    2.2516355    0.7342027   -4.9698612  
O    1.1898873    1.5240358   -4.7355644  
C    2.7116332    0.7268601   -6.3898995  
O    2.1013099    1.4213442   -7.2025605  
C    3.8682738   -0.0998986   -6.7779431  
H    0.9759272    1.9152451   -5.6017797  
H    4.1702389   -0.0775583   -7.8164741  
H    6.4250580   -2.8280481   -4.0857754  
C    3.2573670   -0.0002921   -1.5109382  
C    2.5379468   -0.0001711   -0.3591962  
C    1.1435043    0.0000330   -0.7338498  
C    1.1092608   -0.0000085   -2.2088474  
N    2.4227562    0.0001906   -2.6182610  
C   -0.0265533   -0.0002525   -2.9515663  
C   -1.3003033   -0.0002641   -2.2514979  
O   -2.3786785   -0.0004132   -2.8306425  
C   -1.2877724    0.0000310   -0.6895608  
O   -2.3539956    0.0003306   -0.0892035  
C    0.0000000    0.0000000    0.0000000  
H    2.9384091   -0.0000370    0.6389240  
H   -0.0296290   -0.0004088   -4.0327231  
H    4.3270394   -0.0004767   -1.6439445  
C    0.0000000    0.0000000    1.4700000  
C    1.0662921    0.0000102    2.3034270  
C    0.4961870   -0.0000064    3.6418889  
C   -0.9663858    0.0000850    3.4240247  
N   -1.2632773    0.0000084    2.1528658  
C   -1.8985362    0.0000517    4.5177257  
C   -1.3925775   -0.0004564    5.7720543  
O   -2.1456383   -0.0005410    6.8851312  
C    0.0786232   -0.0009323    6.0245000  
O    0.4683759   -0.0012588    7.1921102  
C    1.0143166   -0.0008442    4.8859032  
H    2.1107198   -0.0000632    2.0421868  
H   -2.9622183    0.0003270    4.3293377  
H   -1.5042274   -0.0009692    7.6184419  
H    2.0724152   -0.0013148    5.1109744  
