62

C    1.8450830   -1.8498598   -8.4396580  
C    2.7907080   -2.6694320   -9.0111143  
C    2.6154986   -2.5851686  -10.4241963  
C    1.5391913   -1.6912864  -10.6575709  
N    1.0931177   -1.2646645   -9.4313455  
C    1.0883110   -1.3692518  -11.9412335  
C    1.7359480   -1.9601189  -13.0087627  
O    1.3365376   -1.6804576  -14.2836253  
C    2.8116168   -2.8548698  -12.7962175  
O    3.3522745   -3.3605997  -13.9603789  
C    3.2567772   -3.1732331  -11.5301201  
H    3.5166869   -3.2567189   -8.4753509  
H    0.3430023   -0.6145855   -9.2806631  
H    0.2684481   -0.6888372  -12.1257960  
H    1.9124113   -2.1902586  -14.8682085  
H    4.0720233   -3.9552939  -13.7282055  
H    4.0829771   -3.8621047  -11.3984861  
C    2.2675102   -2.0960612   -5.9498179  
C    1.7744249   -1.6329637   -4.7723279  
C    0.6888621   -0.7368506   -5.0938399  
C    0.5891936   -0.7157119   -6.5657122  
N    1.5740359   -1.5599384   -7.0242501  
C   -0.3170776    0.0136356   -7.2645898  
C   -1.2569148    0.8326277   -6.5172659  
O   -2.1110282    1.5252262   -7.0549449  
C   -1.1693693    0.8256866   -4.9577490  
O   -1.9551700    1.5114887   -4.3178632  
C   -0.1496415   -0.0015615   -4.3176961  
H    2.1306440   -1.8896606   -3.7905800  
H   -0.3733612    0.0148793   -8.3442837  
H    3.0792929   -2.7837267   -6.1230666  
C    3.3003543    0.0005276   -1.4738987  
C    2.5232814    0.0003497   -2.6090747  
C    1.1623200   -0.0001320   -2.1820103  
C    1.1711883    0.0000582   -0.7636140  
N    2.4852300   -0.0014919   -0.3662360  
C    0.0000000    0.0000000    0.0000000  
C   -1.2020384    0.0000519   -0.6806477  
O   -2.3759249    0.0003493    0.0157743  
C   -1.2314656   -0.0005115   -2.0955510  
O   -2.5054392   -0.0008039   -2.6250180  
C   -0.0764516   -0.0007274   -2.8495195  
H    2.8919955   -0.0005620   -3.6205304  
H    2.8036267    0.0088183    0.5858662  
H   -3.0835638    0.0000347   -0.6418818  
H   -2.4360047   -0.0011529   -3.5845921  
H    4.3715549    0.0004895   -1.3667136  
C    2.5128556    2.1077716    2.9199648  
C    1.9592212    1.6432552    4.0696553  
C    0.8915788    0.7479214    3.6910360  
C    0.8684491    0.7287414    2.2159470  
N    1.8754542    1.5738793    1.8102719  
C    0.0000000    0.0000000    1.4700000  
C   -0.9772830   -0.8200135    2.1664417  
O   -1.8021297   -1.5120829    1.5842315  
C   -0.9711318   -0.8147624    3.7284083  
O   -1.7894187   -1.5009653    4.3257297  
C    0.0140216    0.0115358    4.4216297  
H    2.2638494    1.8988021    5.0689105  
H    0.0117648    0.0094386    5.5031631  
H    3.3327358    2.7953732    2.7900019  
H    2.1123206    1.7707734    0.8551938  
