60

C   10.0080241   -0.7182986   -1.4733102  
C    9.1056899   -0.0009146   -2.2240571  
C    9.8565820    0.7264158   -3.1944958  
C   11.2234339    0.4101224   -2.9856908  
N   11.2801543   -0.4680135   -1.9319938  
C   12.2519194    0.9489667   -3.7645712  
C   11.8940317    1.8227941   -4.7727968  
O   12.8583037    2.3777152   -5.5635269  
C   10.5356964    2.1510033   -4.9964503  
O   10.3416582    3.0353384   -6.0374320  
C    9.5205676    1.6200078   -4.2282810  
H   12.1190982   -0.8765132   -1.5614777  
H   13.2956165    0.7120318   -3.6104236  
H   12.3996197    2.9487065   -6.1934803  
H    9.3982027    3.2040064   -6.1213726  
H    8.4892921    1.8901855   -4.4230933  
H    9.8449453   -1.3875953   -0.6460219  
C    6.5597224   -0.0008209    1.3835014  
C    7.6114515   -0.0009111    0.5244666  
C    7.0637929   -0.0009868   -0.8115369  
C    5.5962696   -0.0009036   -0.6593385  
N    5.3559136   -0.0012035    0.6953269  
C    4.7161325   -0.0005435   -1.6923264  
C    5.2498343   -0.0004421   -3.0442497  
O    4.5392134   -0.0001859   -4.0409037  
C    6.8008623   -0.0007795   -3.2289604  
O    7.2618442   -0.0010042   -4.3624314  
C    7.6474458   -0.0008759   -2.0385198  
H    8.6521340   -0.0011057    0.7957479  
H    6.5627892   -0.0007236    2.4614074  
H    4.4461412    0.0003273    1.1188351  
C    3.2573665   -0.0002920   -1.5109385  
C    2.5379463   -0.0001709   -0.3591964  
C    1.1435038    0.0000331   -0.7338500  
C    1.1092599   -0.0000083   -2.2088477  
N    2.4227553    0.0001909   -2.6182613  
C   -0.0265539   -0.0002524   -2.9515660  
C   -1.3003040   -0.0002640   -2.2514977  
O   -2.3786790   -0.0004133   -2.8306421  
C   -1.2877727    0.0000311   -0.6895603  
O   -2.3539959    0.0003306   -0.0892030  
C    0.0000000    0.0000000    0.0000000  
H    2.9384091   -0.0000367    0.6389234  
H   -0.0296303   -0.0004086   -4.0327229  
H    2.7280482   -0.0013407   -3.5742119  
C    0.8400945    0.7047457    2.2710304  
C    0.0000000    0.0000000    1.4700000  
C   -0.8844236   -0.7423113    2.3369512  
C   -0.4878984   -0.4098547    3.7186280  
N    0.5629682    0.4714286    3.6095011  
C   -1.0836927   -0.9095027    4.8308716  
C   -2.1891196   -1.8367527    4.6554461  
O   -2.7906899   -2.3413415    5.5944904  
C   -2.6257283   -2.2031529    3.2011665  
O   -3.5549479   -2.9829990    3.0410059  
C   -1.9068976   -1.5999348    2.0816745  
H   -0.7774656   -0.6525820    5.8354244  
H   -2.2155208   -1.8586617    1.0779135  
H    1.6384792    1.3747609    1.9961646  
H    1.0518368    0.8833920    4.3830260  
