62

C   -3.6548373    0.0018538   -7.2722243  
C   -4.3925259    0.0041145   -6.1110706  
C   -5.7673302    0.0055047   -6.4912161  
C   -5.8071063    0.0036970   -7.9090813  
N   -4.5074639    0.0034515   -8.3512860  
C   -7.0037912    0.0040881   -8.6320840  
C   -8.1817814    0.0060383   -7.9106189  
O   -9.3788591    0.0061526   -8.5663775  
C   -8.1626708    0.0082362   -6.4955406  
O   -9.4177385    0.0104331   -5.9227002  
C   -6.9824819    0.0081250   -5.7816221  
H   -3.9893432    0.0057957   -5.1128551  
H   -4.2219140   -0.0082643   -9.3137330  
H   -7.0408708    0.0028618   -9.7127448  
H  -10.0635290    0.0079374   -7.8848434  
H   -9.3154395    0.0117994   -4.9660720  
H   -6.9992905    0.0100227   -4.6980209  
C   -0.2963294   -0.0005341   -4.3948471  
C    0.7248286   -0.0020294   -5.3166396  
C    0.1197346   -0.0021711   -6.6083289  
C   -1.2847550   -0.0004255   -6.4100061  
N   -1.5029814   -0.0014165   -5.0546493  
C   -2.1980211    0.0002427   -7.4686534  
C   -1.6841009   -0.0005645   -8.7508641  
O   -2.5311380    0.0003855   -9.8211629  
C   -0.2858203   -0.0026813   -8.9690938  
O    0.0686626   -0.0036741  -10.3023925  
C    0.6157253   -0.0036148   -7.9251871  
H    1.7764813   -0.0040147   -5.0863877  
H   -2.4039877    0.0099671   -4.6118854  
H   -1.9739386   -0.0007165  -10.6103346  
H    1.0289086   -0.0050682  -10.3618040  
H    1.6811964   -0.0054211   -8.1232953  
C    3.1301143   -0.0010313   -1.7028257  
C    2.5367765   -0.0002767   -0.4864669  
C    1.1089900    0.0001027   -0.7656184  
C    1.0177864   -0.0004150   -2.2415133  
N    2.1993571   -0.0011613   -2.7963824  
C   -0.2459220   -0.0002879   -2.9257116  
C   -1.3675327   -0.0000606   -2.1698519  
O   -2.6129319    0.0000866   -2.6748482  
C   -1.3083588    0.0000910   -0.6783229  
O   -2.3693264    0.0004206   -0.0541685  
C    0.0000000    0.0000000    0.0000000  
H    3.0096014   -0.0001008    0.4807517  
H   -3.1967445    0.0002093   -1.8949025  
H    4.1849272   -0.0015113   -1.9271980  
C    0.8681109    0.7263879    2.2709268  
C    0.6127770    0.5096195    3.5869401  
C   -0.4920590   -0.4175482    3.6542670  
C   -0.8620974   -0.7254003    2.2596025  
N    0.0000000    0.0000000    1.4700000  
C   -1.8641242   -1.5660088    1.8976294  
C   -2.6293522   -2.2103885    2.9520183  
O   -3.5512764   -2.9839180    2.7283916  
C   -2.2549728   -1.8987399    4.4361073  
O   -2.8923672   -2.4351063    5.3323774  
C   -1.1543735   -0.9755647    4.7012123  
H    1.1382914    0.9492124    4.4159191  
H   -2.1192137   -1.7782617    0.8686553  
H   -0.9013378   -0.7652422    5.7314848  
H    1.6172880    1.3558399    1.8188057  
