62

C    6.7228594   -0.0028435   -5.8348544  
C    5.4400622   -0.0014403   -6.3317421  
C    5.5445835   -0.0015196   -7.7543020  
C    6.9274200   -0.0032989   -8.0700288  
N    7.6147672   -0.0021147   -6.8816817  
C    7.4029697   -0.0041671   -9.3848071  
C    6.4654742   -0.0035288  -10.3993416  
O    6.8749954   -0.0046777  -11.7013807  
C    5.0813364   -0.0013817  -10.1044262  
O    4.2745654   -0.0005727  -11.2235618  
C    4.6114783   -0.0002510   -8.8076006  
H    4.5397290    0.0006271   -5.7414977  
H    8.6144401   -0.0134725   -6.7894476  
H    8.4556123   -0.0053790   -9.6320804  
H    6.0729420   -0.0036687  -12.2398741  
H    3.3562980    0.0008559  -10.9365314  
H    3.5454336    0.0015738   -8.6126062  
C    4.5679461   -0.0016854   -2.0086701  
C    5.6245801   -0.0018695   -1.1556757  
C    6.8197131   -0.0025283   -1.9659187  
C    6.3695110   -0.0026851   -3.3709485  
N    4.9943549   -0.0025530   -3.3281076  
C    7.1998311   -0.0028672   -4.4443876  
C    8.6325203   -0.0031380   -4.1995661  
O    9.4620769   -0.0033775   -5.0996411  
C    9.1316831   -0.0032304   -2.7194844  
O   10.3356443   -0.0037644   -2.5009918  
C    8.1403753   -0.0027353   -1.6465627  
H    5.5727016   -0.0017595   -0.0814682  
H    8.4942119   -0.0025975   -0.6245433  
H    4.3931135   -0.0010543   -4.1315711  
C    3.1301149   -0.0010311   -1.7028252  
C    2.5367768   -0.0002767   -0.4864665  
C    1.1089904    0.0001028   -0.7656183  
C    1.0177872   -0.0004148   -2.2415132  
N    2.1993578   -0.0011611   -2.7963820  
C   -0.2459209   -0.0002877   -2.9257118  
C   -1.3675319   -0.0000605   -2.1698524  
O   -2.6129313    0.0000867   -2.6748490  
C   -1.3083584    0.0000910   -0.6783232  
O   -2.3693261    0.0004206   -0.0541692  
C    0.0000000    0.0000000    0.0000000  
H    3.0096017   -0.0001007    0.4807525  
H   -0.2829630   -0.0004687   -4.0053125  
H   -3.1967441    0.0002094   -1.8949034  
C    2.5311839    2.1237619    3.0120429  
C    1.9795631    1.6616747    1.8395852  
C    0.9223175    0.7739173    2.1983588  
C    0.8753926    0.7337535    3.6154372  
N    1.8668922    1.5631002    4.0777464  
C   -0.0496243   -0.0427881    4.3197917  
C   -0.9437528   -0.7922060    3.5801400  
O   -1.8685244   -1.5680278    4.2172520  
C   -0.9124520   -0.7656372    2.1655264  
O   -1.8671164   -1.5663939    1.5732860  
C    0.0000000    0.0000000    1.4700000  
H    2.3005065    1.9304404    0.8477417  
H    2.0679347    1.7444845    5.0445261  
H   -0.0904770   -0.0778569    5.3997470  
H   -2.3849669   -2.0011402    3.5251786  
H   -1.7775064   -1.4909735    0.6183591  
H    3.3468514    2.8078103    3.1724291  
