64

C    3.6801976    0.7099185   -7.9255457  
C    4.7478847   -0.0092922   -7.4405219  
C    5.2920840   -0.7385803   -8.5389689  
C    4.5086065   -0.4215444   -9.6780826  
N    3.5375093    0.4589007   -9.2701568  
C    4.7597322   -0.9618707  -10.9429029  
C    5.8212947   -1.8379714  -11.0599915  
O    6.1110601   -2.3944139  -12.2721888  
C    6.6143929   -2.1669540   -9.9350106  
O    7.6339369   -3.0535994  -10.2138204  
C    6.3670636   -1.6344968   -8.6868742  
H    2.8389865    0.8683847   -9.8637639  
H    4.1662392   -0.7243800  -11.8150070  
H    6.8768288   -2.9668753  -12.1338011  
H    8.1206688   -3.2226488   -9.4013439  
H    6.9916628   -1.9053164   -7.8436597  
H    3.0082811    1.3809844   -7.4184385  
C    2.4861703   -0.0045381   -3.7159920  
C    3.4691536   -0.0057441   -2.7857654  
C    4.7077411   -0.0077542   -3.5489142  
C    4.2744118   -0.0075883   -4.9627066  
N    2.9732091   -0.0056260   -5.0669057  
C    5.2170323   -0.0092330   -6.0473955  
C    6.5327406   -0.0105758   -5.7339555  
O    7.5212023   -0.0121899   -6.6444402  
C    7.0015516   -0.0104085   -4.3167836  
O    8.2141969   -0.0118084   -4.1053331  
C    6.0150638   -0.0087514   -3.2219027  
H    3.3664299   -0.0052315   -1.7140737  
H    8.3418866   -0.0128279   -6.1194373  
H    6.3952615   -0.0085676   -2.2091438  
C    0.0000000    0.0000000    0.0000000  
C    1.0521669   -0.0011901   -0.8862341  
C    0.4917220   -0.0011956   -2.1979132  
C   -0.9187428    0.0003148   -2.0478684  
N   -1.1833170   -0.0009411   -0.7007915  
C   -1.7951699    0.0010351   -3.1372091  
C   -1.2375836    0.0005225   -4.4010425  
O   -2.0474210    0.0015361   -5.4997584  
C    0.1673583   -0.0013566   -4.5711960  
O    0.5673528   -0.0020686   -5.8915549  
C    1.0325772   -0.0023411   -3.4969890  
H    2.0953059   -0.0030648   -0.6200562  
H   -2.0989777    0.0102372   -0.2891825  
H   -2.8710931    0.0020419   -3.0295515  
H   -1.4634882    0.0006497   -6.2693594  
H    1.5290713   -0.0033151   -5.9180046  
C    1.1243417   -0.0099156    2.2619005  
C    0.7474090   -0.0234034    3.5848544  
C   -0.6787367   -0.0234952    3.6114698  
C   -1.1201739   -0.0099357    2.2635546  
N    0.0000000    0.0000000    1.4700000  
C   -2.4730812   -0.0065396    1.9108239  
C   -3.3971947   -0.0173298    2.9375057  
O   -4.7313508   -0.0149487    2.6493466  
C   -2.9763630   -0.0305536    4.2886322  
O   -4.0166453   -0.0397858    5.1947621  
C   -1.6418541   -0.0336380    4.6373480  
H    1.4178735   -0.0310004    4.4271209  
H   -2.8160170    0.0039190    0.8854031  
H   -5.1938803   -0.0234410    3.4974381  
H   -3.6464643   -0.0484781    6.0827341  
H   -1.3497443   -0.0436789    5.6809233  
H    2.1062470   -0.0051382    1.8205408  
