62

C    0.0000000    0.0000000    0.0000000  
C   -0.0954212    1.0478318   -0.8862338  
C   -0.0439575    0.4897547   -2.1979128  
C    0.0840422   -0.9148902   -2.0478684  
N    0.1095851   -1.1782325   -0.7007915  
C    0.1637956   -1.7876817   -3.1372091  
C    0.1131103   -1.2324027   -4.4010425  
O    0.1864575   -2.0389133   -5.4997580  
C   -0.0140154    0.1667763   -4.5711963  
O   -0.0500324    0.5651467   -5.8915549  
C   -0.0924763    1.0284308   -3.4969887  
H   -0.1893319    2.0867367   -0.6200559  
H    0.1825267   -2.0910509   -0.2891831  
H    0.2615806   -2.8591528   -3.0295516  
H    0.1337254   -1.4573649   -6.2693595  
H   -0.1370928    1.5229175   -5.9180040  
C    0.4159767    3.4592589   -2.9764944  
C    0.0861473    4.6978015   -3.4251590  
C   -0.8277620    4.5164228   -4.5282034  
C   -1.0046224    3.0602454   -4.6865015  
N   -0.2237527    2.4760857   -3.7159916  
C   -1.7954288    2.4791656   -5.6238784  
C   -2.5206131    3.3457783   -6.5380040  
O   -3.2580922    2.9188870   -7.4167471  
C   -2.3480183    4.8910078   -6.3887338  
O   -2.9533015    5.6306301   -7.1528366  
C   -1.4677133    5.3987764   -5.3394075  
H   -1.9113489    1.4088110   -5.7229394  
H   -1.3538033    6.4699307   -5.2425720  
H    1.0727343    3.1820289   -2.1679755  
C    4.0549619    5.8197205   -2.0189913  
C    3.8724377    7.1088019   -1.6494881  
C    2.4713777    7.3841171   -1.9282926  
C    1.9444913    6.1162449   -2.4773604  
N    2.8681615    5.1955150   -2.5328480  
C    0.5732976    5.9745285   -2.8833532  
C   -0.2348975    7.0503873   -2.7466667  
O   -1.5354513    7.0599598   -3.0850576  
C    0.2670343    8.3436248   -2.1955221  
O   -0.5246770    9.2812745   -2.0994601  
C    1.6776744    8.4638716   -1.7861808  
H    4.5988213    7.7888412   -1.2384056  
H   -1.8402152    7.9606724   -2.8729533  
H    2.0020868    9.4174637   -1.3916566  
H    4.9608481    5.2366845   -1.9698747  
C    3.3003543   -0.0005276    2.9438989  
C    2.5232812   -0.0003497    4.0790748  
C    1.1623199    0.0001319    3.6520102  
C    1.1711883   -0.0000583    2.2336141  
N    2.4852299    0.0014920    1.8362361  
C    0.0000000    0.0000000    1.4700000  
C   -1.2020384   -0.0000520    2.1506477  
O   -2.3759250   -0.0003494    1.4542253  
C   -1.2314658    0.0005113    3.5655508  
O   -2.5054393    0.0008037    4.0950179  
C   -0.0764518    0.0007272    4.3195194  
H    2.8919952    0.0005619    5.0905303  
H    2.8036267   -0.0088181    0.8841339  
H   -3.0835639   -0.0000348    2.1118817  
H   -2.4360050    0.0011527    5.0545920  
H   -0.1304098    0.0013421    5.4019087  
H    4.3715549   -0.0004895    2.8367138  
