64

C   -6.0484660   -0.7120738   -6.3327717  
C   -6.4294903   -0.4624473   -7.6308377  
C   -7.5276157    0.4461801   -7.5750190  
C   -7.7737748    0.7178858   -6.2047968  
N   -6.8591837   -0.0028733   -5.4777161  
C   -8.7891860    1.5774261   -5.7747744  
C   -9.5701365    2.1737769   -6.7456817  
O  -10.5753645    3.0221088   -6.3811788  
C   -9.3402705    1.9149375   -8.1178994  
O  -10.2024006    2.5841794   -8.9618129  
C   -8.3388964    1.0668814   -8.5428408  
H   -5.9729099   -0.8843118   -8.5097907  
H   -8.9820094    1.7885473   -4.7319663  
H  -10.9895061    3.3227431   -7.2005505  
H   -9.9793809    2.3544336   -9.8690529  
H   -8.1867744    0.8878063   -9.6007955  
H   -5.2634625   -1.3410096   -5.9491465  
C   -3.3460096   -0.0004265   -2.7913646  
C   -4.0351702    0.0003055   -1.6007663  
C   -5.4244878    0.0001005   -1.9238725  
C   -5.5227199   -0.0010603   -3.3388900  
N   -4.2424270    0.0005973   -3.8343331  
C   -6.7482124   -0.0018647   -4.0119112  
C   -7.8954377   -0.0017972   -3.2424625  
O   -9.1185481   -0.0029120   -3.8482795  
C   -7.8179689   -0.0002715   -1.8293762  
O   -9.0483375    0.0000156   -1.2052468  
C   -6.6093340    0.0007956   -1.1647522  
H   -3.5911531    0.0020178   -0.6200323  
H   -3.9968101   -0.0102739   -4.8077478  
H   -9.7745213   -0.0023507   -3.1390798  
H   -8.9066624    0.0010428   -0.2536529  
H   -6.5814276    0.0021374   -0.0813789  
C    0.0000000    0.0000000    0.0000000  
C    1.0662919   -0.0000103   -0.8334269  
C    0.4961869    0.0000064   -2.1718889  
C   -0.9663859   -0.0000850   -1.9540246  
N   -1.2632774   -0.0000084   -0.6828657  
C   -1.8985363   -0.0000518   -3.0477257  
C   -1.3925778    0.0004564   -4.3020545  
O   -2.1456384    0.0005409   -5.4151311  
C    0.0786230    0.0009323   -4.5544998  
O    0.4683758    0.0012588   -5.7221098  
C    1.0143164    0.0008442   -3.4159030  
H    2.1107195    0.0000633   -0.5721867  
H   -1.5042275    0.0009691   -6.1484418  
H    2.0724152    0.0013148   -3.6409744  
C    0.0000000    0.0000000    1.4700000  
C    1.0521667    0.0011902    2.3562342  
C    0.4917218    0.0011957    3.6679131  
C   -0.9187428   -0.0003148    3.5178682  
N   -1.1833171    0.0009411    2.1707914  
C   -1.7951701   -0.0010350    4.6072090  
C   -1.2375837   -0.0005224    5.8710424  
O   -2.0474215   -0.0015360    6.9697579  
C    0.1673580    0.0013566    6.0411963  
O    0.5673524    0.0020687    7.3615553  
C    1.0325770    0.0023412    4.9669890  
H    2.0953057    0.0030649    2.0900562  
H   -2.0989778   -0.0102372    1.7591824  
H   -2.8710934   -0.0020419    4.4995513  
H   -1.4634884   -0.0006497    7.7393593  
H    1.5290710    0.0033153    7.3880045  
H    2.1042148    0.0039609    5.1284455  
