64

C   -3.9681760    0.7212744   -2.0574947  
C   -3.2578640    0.0024079   -2.9908519  
C   -4.2079297   -0.7249017   -3.7673801  
C   -5.4928326   -0.4070687   -3.2575436  
N   -5.3109881    0.4719255   -2.2188336  
C   -6.6702836   -0.9454663   -3.7852996  
C   -6.5484320   -1.8204218   -4.8472710  
O   -7.6659796   -2.3749699   -5.4009652  
C   -5.2751703   -2.1501730   -5.3696545  
O   -5.3203501   -3.0354960   -6.4267761  
C   -4.1131448   -1.6196191   -4.8493323  
H   -6.0450843    0.8815544   -1.6699366  
H   -7.3607867   -2.9469036   -6.1172150  
H   -4.4199158   -3.2051809   -6.7200835  
H   -3.1520866   -1.8909865   -5.2702893  
H   -3.6231025    1.3910351   -1.2885322  
C    0.0000000    0.0000000    0.0000000  
C    1.0521674   -0.0011914   -0.8862336  
C    0.4917224   -0.0011964   -2.1979128  
C   -0.9187417    0.0003160   -2.0478686  
N   -1.1833166   -0.0009394   -0.7007917  
C   -1.7951687    0.0010372   -3.1372096  
C   -1.2375824    0.0005238   -4.4010427  
O   -2.0474192    0.0015381   -5.4997588  
C    0.1673601   -0.0013574   -4.5711963  
O    0.5673543   -0.0020699   -5.8915549  
C    1.0325779   -0.0023427   -3.4969886  
H    2.0953061   -0.0030676   -0.6200555  
H   -2.0989773    0.0102401   -0.2891830  
H   -1.4634864    0.0006510   -6.2693600  
H    1.5290739   -0.0033178   -5.9180040  
H    2.1042166   -0.0039640   -3.6584446  
C   -8.4361958    2.8540054   -2.3695141  
C   -9.6813800    2.3620299   -2.0533726  
C   -9.6681275    0.9685815   -2.3578820  
C   -8.3770736    0.6646740   -2.8606204  
N   -7.6549061    1.8321807   -2.8561446  
C   -8.0057169   -0.6217655   -3.2630591  
C   -8.9548683   -1.6196507   -3.1557521  
O   -8.6451835   -2.8939414   -3.5342916  
C  -10.2485243   -1.3360685   -2.6569022  
O  -11.0802413   -2.4358624   -2.6116762  
C  -10.6156563   -0.0671423   -2.2599553  
H  -10.4990535    2.9370025   -1.6536106  
H   -6.6990881    1.9244853   -3.1491856  
H   -9.4374940   -3.4247432   -3.3801515  
H  -11.9329746   -2.1581910   -2.2633237  
H  -11.6140061    0.1198063   -1.8820298  
H   -8.0440167    3.8532373   -2.2877222  
C    3.2798086   -0.0005857    2.9199648  
C    2.5571146   -0.0005566    4.0696553  
C    1.1637436   -0.0001548    3.6910360  
C    1.1336965    0.0000200    2.2159470  
N    2.4483514    0.0001428    1.8102719  
C    0.0000000    0.0000000    1.4700000  
C   -1.2757367    0.0000186    2.1664417  
O   -2.3524596    0.0000640    1.5842315  
C   -1.2676493    0.0000873    3.7284083  
O   -2.3355761    0.0004100    4.3257297  
C    0.0181563   -0.0001760    4.4216297  
H    2.9547357   -0.0006076    5.0689105  
H    0.0150794   -0.0003319    5.5031631  
H    4.3498549   -0.0008612    2.7900019  
H    2.7563627   -0.0012824    0.8551938  
