62

C    4.0681581   -3.6474613   -6.8258732  
C    5.0580838   -4.4706578   -6.3412470  
C    5.0235355   -4.3705752   -4.9187883  
C    3.9830545   -3.4641900   -4.5904716  
N    3.4248461   -3.0424250   -5.7716299  
C    3.6630691   -3.1254918   -3.2722599  
C    4.4067958   -3.7127103   -2.2671611  
O    4.1363274   -3.4175151   -0.9622783  
C    5.4491588   -4.6191943   -2.5747064  
O    6.0970987   -5.1187854   -1.4638855  
C    5.7655615   -4.9535817   -3.8749371  
H    5.7239905   -5.0687669   -6.9394341  
H    2.8713462   -2.4352694   -3.0154149  
H    4.7625281   -3.9269723   -0.4316267  
H    6.7857502   -5.7222243   -1.7592276  
H    6.5694995   -5.6508895   -4.0796896  
H    3.7710209   -3.4429324   -7.8401893  
C    2.2991554   -2.1048091   -5.8924444  
C    1.6888952   -1.6397484   -7.0128804  
C    0.6412935   -0.7448174   -6.5810651  
C    0.6916333   -0.7264666   -5.1066432  
N    1.7177150   -1.5716515   -4.7520893  
C   -0.1387079    0.0017019   -4.3179684  
C   -1.1495778    0.8219302   -4.9644225  
O   -1.9445178    1.5135264   -4.3414732  
C   -1.2212029    0.8175541   -6.5247612  
O   -2.0683186    1.5039449   -7.0802097  
C   -0.2716619   -0.0081802   -7.2666415  
H    1.9434318   -1.8946819   -8.0262082  
H   -0.3277653   -0.0054782   -8.3467193  
H    2.0018702   -1.7690376   -3.8101009  
C    3.3041273    0.0001178   -1.5420428  
C    2.5845373   -0.0004780   -0.3695851  
C    1.2040007   -0.0000007   -0.7283589  
C    1.1422374    0.0006038   -2.1454372  
N    2.4348641    0.0026111   -2.6077464  
C   -0.0655179    0.0008799   -2.8497918  
C   -1.2321766    0.0002325   -2.1101402  
O   -2.4392814    0.0001148   -2.7472522  
C   -1.1911209   -0.0000007   -0.6955266  
O   -2.4371528   -0.0002320   -0.1032862  
C    0.0000000    0.0000000    0.0000000  
H    3.0031533   -0.0000660    0.6222584  
H    2.7054631   -0.0071097   -3.5745261  
H   -3.1132988   -0.0000648   -2.0551787  
H   -2.3200282   -0.0004072    0.8516409  
H    4.3686625    0.0004073   -1.7024290  
C    0.8681109    0.7263879    2.2709268  
C    0.6127770    0.5096195    3.5869401  
C   -0.4920590   -0.4175482    3.6542670  
C   -0.8620974   -0.7254003    2.2596025  
N    0.0000000    0.0000000    1.4700000  
C   -1.8641242   -1.5660088    1.8976294  
C   -2.6293522   -2.2103885    2.9520183  
O   -3.5512764   -2.9839180    2.7283916  
C   -2.2549728   -1.8987399    4.4361073  
O   -2.8923672   -2.4351063    5.3323774  
C   -1.1543735   -0.9755647    4.7012123  
H    1.1382914    0.9492124    4.4159191  
H   -2.1192137   -1.7782617    0.8686553  
H   -0.9013378   -0.7652422    5.7314848  
H    1.6172880    1.3558399    1.8188057  
