62

C   -0.5846824   -0.3780275   -9.5492979  
C   -0.9230346    0.8377674   -9.0017320  
C   -0.9120214    1.7901557  -10.0635391  
C   -0.5571934    1.0913445  -11.2457778  
N   -0.3635730   -0.2224231  -10.8977217  
C   -0.4490948    1.7178374  -12.4910124  
C   -0.7041299    3.0744319  -12.5438005  
O   -0.6133530    3.7359014  -13.7342759  
C   -1.0591774    3.7891398  -11.3750630  
O   -1.2811896    5.1334607  -11.5915256  
C   -1.1657439    3.1717901  -10.1462223  
H   -0.1131525   -0.9598239  -11.5313707  
H   -0.1789335    1.1908988  -13.3957512  
H   -0.8273596    4.6598138  -13.5502894  
H   -1.5156955    5.5419439  -10.7526251  
H   -1.4393964    3.7453833   -9.2683939  
H   -0.4821838   -1.3436059   -9.0844205  
C    0.8795090   -0.7144666   -5.2160929  
C    0.5956261   -0.4617039   -6.5382079  
C   -0.4970339    0.4548920   -6.5615830  
C   -0.8401209    0.7280013   -5.2126464  
N    0.0139741    0.0003876   -4.4216236  
C   -1.8778313    1.5948029   -4.8568371  
C   -2.5818286    2.1971054   -5.8814335  
O   -3.6047039    3.0526435   -5.5902400  
C   -2.2547536    1.9369819   -7.2335336  
O   -3.0484118    2.6127296   -8.1373118  
C   -1.2313278    1.0817645   -7.5852857  
H    1.1117892   -0.8866401   -7.3820076  
H   -2.1443759    1.8070321   -3.8306233  
H   -3.9560269    3.3565200   -6.4372913  
H   -2.7617374    2.3816187   -9.0261362  
H    1.6299825   -1.3492180   -4.7769582  
C    3.2798085    0.0005853   -1.4499648  
C    2.5571144    0.0005562   -2.5996554  
C    1.1637436    0.0001546   -2.2210360  
C    1.1336965   -0.0000201   -0.7459470  
N    2.4483513   -0.0001430   -0.3402717  
C    0.0000000    0.0000000    0.0000000  
C   -1.2757367   -0.0000188   -0.6964414  
O   -2.3524597   -0.0000640   -0.1142313  
C   -1.2676494   -0.0000875   -2.2584081  
O   -2.3355762   -0.0004102   -2.8557294  
C    0.0181562    0.0001757   -2.9516296  
H    2.9547357    0.0006072   -3.5989105  
H    4.3498550    0.0008609   -1.3200021  
H    2.7563627    0.0012824    0.6148063  
C    2.5128556    2.1077716    2.9199648  
C    1.9592212    1.6432552    4.0696553  
C    0.8915788    0.7479214    3.6910360  
C    0.8684491    0.7287414    2.2159470  
N    1.8754542    1.5738793    1.8102719  
C    0.0000000    0.0000000    1.4700000  
C   -0.9772830   -0.8200135    2.1664417  
O   -1.8021297   -1.5120829    1.5842315  
C   -0.9711318   -0.8147624    3.7284083  
O   -1.7894187   -1.5009653    4.3257297  
C    0.0140216    0.0115358    4.4216297  
H    2.2638494    1.8988021    5.0689105  
H    0.0117648    0.0094386    5.5031631  
H    3.3327358    2.7953732    2.7900019  
H    2.1123206    1.7707734    0.8551938  
