64

C   -0.8497656   -0.6164859   -9.5341040  
C   -1.2000942    0.6277267   -9.0632832  
C   -1.1662990    1.5188587  -10.1765408  
C   -0.7858702    0.7551121  -11.3096294  
N   -0.5995844   -0.5367122  -10.8840655  
C   -0.6509882    1.3106772  -12.5855391  
C   -0.9050653    2.6617930  -12.7201078  
O   -0.7886914    3.2553373  -13.9436998  
C   -1.2854245    3.4406512  -11.6013940  
O   -1.5029458    4.7703471  -11.8979363  
C   -1.4184218    2.8932940  -10.3423315  
H   -0.3353916   -1.3082572  -11.4696435  
H   -0.3612367    0.7340308  -13.4531350  
H   -1.0067909    4.1878408  -13.8166803  
H   -1.7556063    5.2250705  -11.0886196  
H   -1.7110907    3.5150015   -9.5042969  
H   -0.7571684   -1.5542254   -9.0135006  
C    0.5332460   -0.7193580   -5.2240418  
C   -0.2963293   -0.0005341   -4.3948471  
C   -1.1923437    0.7280151   -5.2320894  
C   -0.8589935    0.4109477   -6.5738313  
N    0.1940939   -0.4688040   -6.5330672  
C   -1.5389810    0.9506274   -7.6698017  
C   -2.5745419    1.8261025   -7.4064881  
O   -3.2722204    2.3818987   -8.4396146  
C   -2.9218747    2.1551058   -6.0745971  
O   -3.9749424    3.0410837   -5.9774569  
C   -2.2513096    1.6232861   -4.9929146  
H    0.6396925   -0.8781463   -7.3342302  
H   -3.9408710    2.9539986   -8.0410249  
H   -4.1451819    3.2101945   -5.0457790  
H   -2.5398834    1.8941046   -3.9840238  
H    1.3409607   -1.3898536   -4.9853125  
C    3.1301146   -0.0010313   -1.7028256  
C    2.5367765   -0.0002766   -0.4864669  
C    1.1089901    0.0001027   -0.7656184  
C    1.0177865   -0.0004150   -2.2415133  
N    2.1993571   -0.0011612   -2.7963824  
C   -0.2459219   -0.0002879   -2.9257116  
C   -1.3675326   -0.0000606   -2.1698520  
O   -2.6129318    0.0000865   -2.6748483  
C   -1.3083588    0.0000910   -0.6783229  
O   -2.3693264    0.0004206   -0.0541685  
C    0.0000000    0.0000000    0.0000000  
H    3.0096016   -0.0001007    0.4807518  
H   -3.1967444    0.0002093   -1.8949026  
H    4.1849275   -0.0015114   -1.9271979  
C    0.0000000    0.0000000    1.4700000  
C    1.0521667    0.0011902    2.3562342  
C    0.4917218    0.0011957    3.6679131  
C   -0.9187428   -0.0003148    3.5178682  
N   -1.1833171    0.0009411    2.1707914  
C   -1.7951701   -0.0010350    4.6072090  
C   -1.2375837   -0.0005224    5.8710424  
O   -2.0474215   -0.0015360    6.9697579  
C    0.1673580    0.0013566    6.0411963  
O    0.5673524    0.0020687    7.3615553  
C    1.0325770    0.0023412    4.9669890  
H    2.0953057    0.0030649    2.0900562  
H   -2.0989778   -0.0102372    1.7591824  
H   -2.8710934   -0.0020419    4.4995513  
H   -1.4634884   -0.0006497    7.7393593  
H    1.5290710    0.0033153    7.3880045  
H    2.1042148    0.0039609    5.1284455  
