64

C    0.6936364   -0.7066092   -5.1527423  
C    0.3462075   -0.4553039   -6.4598788  
C   -0.7528349    0.4534785   -6.4312305  
C   -1.0341488    0.7235441   -5.0674660  
N   -0.1387078    0.0017020   -4.3179686  
C   -2.0601483    1.5827608   -4.6626688  
C   -2.8157353    2.1804681   -5.6526245  
O   -3.8298699    3.0285554   -5.3130769  
C   -2.5506562    1.9232747   -7.0187873  
O   -3.3906535    2.5937332   -7.8837924  
C   -1.5388172    1.0755385   -7.4188523  
H    0.8251967   -0.8761773   -7.3273058  
H   -2.2797241    1.7926347   -3.6249113  
H   -4.2227235    3.3302846   -6.1424690  
H   -3.1443863    2.3650610   -8.7852723  
H    1.4683925   -1.3361781   -4.7498095  
C    3.3041276    0.0001172   -1.5420425  
C    2.5845373   -0.0004780   -0.3695850  
C    1.2040005   -0.0000006   -0.7283594  
C    1.1422376    0.0006036   -2.1454376  
N    2.4348643    0.0026109   -2.6077465  
C   -0.0655178    0.0008799   -2.8497917  
C   -1.2321765    0.0002326   -2.1101405  
O   -2.4392812    0.0001152   -2.7472524  
C   -1.1911209   -0.0000006   -0.6955270  
O   -2.4371527   -0.0002315   -0.1032863  
C    0.0000000    0.0000000    0.0000000  
H    3.0031535   -0.0000663    0.6222585  
H    2.7054635   -0.0071100   -3.5745262  
H   -3.1132985   -0.0000644   -2.0551792  
H   -2.3200282   -0.0004068    0.8516404  
H    4.3686626    0.0004069   -1.7024289  
C   -1.2956341    0.8343652   -8.8483966  
C   -0.3576207    0.0400080   -9.4661301  
C   -0.5625831    0.1699896  -10.8717243  
C   -1.6483613    1.0644916  -11.0530462  
N   -2.0712037    1.4474845   -9.8043911  
C   -2.1275415    1.4261271  -12.3157399  
C   -1.4989927    0.8749597  -13.4154286  
O   -1.9263008    1.1942699  -14.6717986  
C   -0.4142806   -0.0197239  -13.2549367  
O    0.1048436   -0.4832562  -14.4461503  
C    0.0587964   -0.3771428  -12.0095547  
H    0.3825154   -0.5602478   -8.9652460  
H   -2.8215635    2.0875938   -9.6167700  
H   -2.9547578    2.1072396  -12.4606625  
H   -1.3599151    0.7076727  -15.2847376  
H    0.8324891   -1.0808897  -14.2487420  
H    0.8912953   -1.0649142  -11.9179312  
C    0.0000000    0.0000000    1.4700000  
C    1.0662921    0.0000102    2.3034270  
C    0.4961870   -0.0000064    3.6418889  
C   -0.9663858    0.0000850    3.4240247  
N   -1.2632773    0.0000084    2.1528658  
C   -1.8985362    0.0000517    4.5177257  
C   -1.3925775   -0.0004564    5.7720543  
O   -2.1456383   -0.0005410    6.8851312  
C    0.0786232   -0.0009323    6.0245000  
O    0.4683759   -0.0012588    7.1921102  
C    1.0143166   -0.0008442    4.8859032  
H    2.1107198   -0.0000632    2.0421868  
H   -2.9622183    0.0003270    4.3293377  
H   -1.5042274   -0.0009692    7.6184419  
H    2.0724152   -0.0013148    5.1109744  
