62

C    6.0516302   -2.0736823   -4.7437825  
C    7.0798885   -2.9276228   -4.4183004  
C    7.9820570   -2.9331453   -5.5231352  
C    7.4474914   -2.0560920   -6.5013707  
N    6.2741372   -1.5526944   -5.9969436  
C    8.0766633   -1.8161776   -7.7266759  
C    9.2673179   -2.4733860   -7.9687452  
O    9.9237724   -2.2751906   -9.1489140  
C    9.8164280   -3.3526262   -7.0052972  
O   11.0067556   -3.9310175   -7.3950769  
C    9.1961429   -3.5899913   -5.7964013  
H    7.1682320   -3.4796057   -3.4982439  
H    5.6767834   -0.8945366   -6.4638243  
H    7.6743435   -1.1490125   -8.4764968  
H   10.7201436   -2.8208969   -9.1133735  
H   11.3094647   -4.5096392   -6.6885584  
H    9.6406375   -4.2689504   -5.0781277  
C    4.4925592   -2.1138025   -2.7420812  
C    4.8565033   -1.6946791   -3.9763664  
C    3.8030380   -0.7794120   -4.3874582  
C    2.8583246   -0.7634597   -3.2499848  
N    3.2572736   -1.5437000   -2.2824861  
C    1.6628945    0.0339172   -3.2649299  
C    1.4223699    0.7816762   -4.3659921  
O    0.3461538    1.5724674   -4.5158198  
C    2.3568204    0.7871864   -5.5300084  
O    2.0745625    1.4917539   -6.4990983  
C    3.5763792   -0.0392797   -5.4905723  
H    0.4536189    1.9730611   -5.3973685  
H    4.2275608   -0.0074320   -6.3538098  
H    5.0117284   -2.8025037   -2.0946814  
C    1.1243410    0.0100105   -0.7919003  
C    0.7474072    0.0234665   -2.1148542  
C   -0.6787384    0.0234379   -2.1414698  
C   -1.1201748    0.0098411   -0.7935547  
N    0.0000000    0.0000000    0.0000000  
C   -2.4730818    0.0063307   -0.4408240  
C   -3.3971962    0.0170429   -1.4675058  
O   -4.7313520    0.0145490   -1.1793468  
C   -2.9763654    0.0303020   -2.8186325  
O   -4.0166484    0.0394464   -3.7247625  
C   -1.6418567    0.0334992   -3.1673480  
H   -2.8160166   -0.0041569    0.5845966  
H   -5.1938823    0.0230023   -2.0274386  
H   -3.6464680    0.0481700   -4.6127343  
H   -1.3497475    0.0435647   -4.2109234  
H    2.1062466    0.0053162   -0.3505405  
C    0.8400945    0.7047457    2.2710304  
C    0.0000000    0.0000000    1.4700000  
C   -0.8844236   -0.7423113    2.3369512  
C   -0.4878984   -0.4098547    3.7186280  
N    0.5629682    0.4714286    3.6095011  
C   -1.0836927   -0.9095027    4.8308716  
C   -2.1891196   -1.8367527    4.6554461  
O   -2.7906899   -2.3413415    5.5944904  
C   -2.6257283   -2.2031529    3.2011665  
O   -3.5549479   -2.9829990    3.0410059  
C   -1.9068976   -1.5999348    2.0816745  
H   -0.7774656   -0.6525820    5.8354244  
H   -2.2155208   -1.8586617    1.0779135  
H    1.6384792    1.3747609    1.9961646  
H    1.0518368    0.8833920    4.3830260  
