62

C    4.4852626   -0.9905983   -8.9172625  
C    4.0734075    0.0863631   -8.1669317  
C    4.1063822    1.2270456   -9.0227096  
C    4.5497455    0.7808873  -10.2940470  
N    4.7726467   -0.5700634  -10.1947253  
C    4.7014649    1.6401817  -11.3864676  
C    4.3998312    2.9741177  -11.1920198  
O    4.5300335    3.8566133  -12.2251037  
C    3.9563889    3.4384844   -9.9308543  
O    3.6969571    4.7930689   -9.8971011  
C    3.8067424    2.5913827   -8.8526369  
H    5.0837596   -1.1634471  -10.9424449  
H    5.0390935    1.3064045  -12.3579614  
H    4.2725553    4.7212792  -11.8796740  
H    3.4028105    5.0244163   -9.0107836  
H    3.4653574    2.9760521   -7.8987177  
H    4.5981293   -2.0251924   -8.6418818  
C    5.7258288   -2.1256350   -4.6503671  
C    5.5043005   -1.6279379   -5.9135734  
C    4.3814511   -0.7527181   -5.8252547  
C    3.9565273   -0.7561091   -4.4719793  
N    4.7930957   -1.6014631   -3.7863066  
C    2.8699641   -0.0020530   -4.0185824  
C    2.2003454    0.7697161   -4.9481847  
O    1.1324739    1.5256767   -4.5593574  
C    2.6089834    0.7860435   -6.3030157  
O    1.8406944    1.6040253   -7.1055001  
C    3.6806471    0.0421903   -6.7510614  
H    6.0803753   -1.8672192   -6.7909988  
H    4.7419878   -1.7968040   -2.8028376  
H    0.8162311    1.9793600   -5.3514599  
H    2.1830479    1.5576556   -8.0034136  
H    6.4744888   -2.8141557   -4.2976529  
C    3.2573670   -0.0002921   -1.5109382  
C    2.5379468   -0.0001711   -0.3591962  
C    1.1435043    0.0000330   -0.7338498  
C    1.1092608   -0.0000085   -2.2088474  
N    2.4227562    0.0001906   -2.6182610  
C   -0.0265533   -0.0002525   -2.9515663  
C   -1.3003033   -0.0002641   -2.2514979  
O   -2.3786785   -0.0004132   -2.8306425  
C   -1.2877724    0.0000310   -0.6895608  
O   -2.3539956    0.0003306   -0.0892035  
C    0.0000000    0.0000000    0.0000000  
H    2.9384091   -0.0000370    0.6389240  
H   -0.0296290   -0.0004088   -4.0327231  
H    4.3270394   -0.0004767   -1.6439445  
C    2.5128556    2.1077716    2.9199648  
C    1.9592212    1.6432552    4.0696553  
C    0.8915788    0.7479214    3.6910360  
C    0.8684491    0.7287414    2.2159470  
N    1.8754542    1.5738793    1.8102719  
C    0.0000000    0.0000000    1.4700000  
C   -0.9772830   -0.8200135    2.1664417  
O   -1.8021297   -1.5120829    1.5842315  
C   -0.9711318   -0.8147624    3.7284083  
O   -1.7894187   -1.5009653    4.3257297  
C    0.0140216    0.0115358    4.4216297  
H    2.2638494    1.8988021    5.0689105  
H    0.0117648    0.0094386    5.5031631  
H    3.3327358    2.7953732    2.7900019  
H    2.1123206    1.7707734    0.8551938  
