60

C   -4.4544475    2.1213309   -4.4386626  
C   -3.3981467    1.6596934   -5.1893872  
C   -3.9383113    0.7719358   -6.1664793  
C   -5.3412676    0.7313085   -5.9615679  
N   -5.6208249    1.5603912   -4.9036986  
C   -6.1981486   -0.0453626   -6.7472687  
C   -5.6284083   -0.7944356   -7.7584386  
O   -6.4190668   -1.5703648   -8.5558136  
C   -4.2306415   -0.7674025   -7.9782922  
O   -3.8166910   -1.5678561   -9.0229276  
C   -3.3846727   -0.0016373   -7.2033945  
H   -2.3652106    1.9287512   -5.0492281  
H   -6.5367376    1.7414329   -4.5344975  
H   -7.2682421   -0.0807841   -6.5961178  
H   -5.8293238   -2.0031904   -9.1867887  
H   -2.8610196   -1.4921300   -9.1039314  
H   -4.4679714    2.8052348   -3.6073678  
C   -0.0307354   -0.0004645   -4.4215603  
C    1.0331812   -0.0004858   -5.2580179  
C    0.4592705   -0.0007207   -6.5948520  
C   -1.0026765   -0.0009308   -6.3728279  
N   -1.2959505   -0.0007012   -5.1008297  
C   -1.9379347   -0.0011511   -7.4638724  
C   -1.4355466   -0.0007721   -8.7196356  
O   -2.1917708   -0.0009257   -9.8305658  
C    0.0349299   -0.0001817   -8.9762653  
O    0.4213592    0.0000164  -10.1449796  
C    0.9738587   -0.0000095   -7.8403354  
H    2.0783477   -0.0002675   -4.9997498  
H   -1.5524490   -0.0005378  -10.5656984  
H    2.0313129    0.0005373   -8.0684166  
C    3.2573669   -0.0002919   -1.5109381  
C    2.5379467   -0.0001709   -0.3591962  
C    1.1435042    0.0000332   -0.7338501  
C    1.1092607   -0.0000081   -2.2088477  
N    2.4227561    0.0001910   -2.6182614  
C   -0.0265534   -0.0002522   -2.9515663  
C   -1.3003036   -0.0002639   -2.2514981  
O   -2.3786785   -0.0004131   -2.8306428  
C   -1.2877726    0.0000312   -0.6895608  
O   -2.3539957    0.0003306   -0.0892035  
C    0.0000000    0.0000000    0.0000000  
H    2.9384091   -0.0000368    0.6389238  
H    4.3270391   -0.0004764   -1.6439447  
H    2.7280492   -0.0013405   -3.5742114  
C    0.8681109    0.7263879    2.2709268  
C    0.6127770    0.5096195    3.5869401  
C   -0.4920590   -0.4175482    3.6542670  
C   -0.8620974   -0.7254003    2.2596025  
N    0.0000000    0.0000000    1.4700000  
C   -1.8641242   -1.5660088    1.8976294  
C   -2.6293522   -2.2103885    2.9520183  
O   -3.5512764   -2.9839180    2.7283916  
C   -2.2549728   -1.8987399    4.4361073  
O   -2.8923672   -2.4351063    5.3323774  
C   -1.1543735   -0.9755647    4.7012123  
H    1.1382914    0.9492124    4.4159191  
H   -2.1192137   -1.7782617    0.8686553  
H   -0.9013378   -0.7652422    5.7314848  
H    1.6172880    1.3558399    1.8188057  
