64

C   -1.6631884    0.0132351   -3.2649299  
C   -3.0377500    0.0531543   -3.3030573  
C   -3.4163511    0.0513446   -4.6782877  
C   -2.2200871    0.0088650   -5.4392565  
N   -1.1743081   -0.0114765   -4.5501278  
C   -2.2131798   -0.0048390   -6.8373100  
C   -3.4361816    0.0245745   -7.4788534  
O   -3.4871877    0.0125355   -8.8427692  
C   -4.6406396    0.0674804   -6.7370601  
O   -5.7756116    0.0932887   -7.5209695  
C   -4.6481996    0.0812952   -5.3578289  
H   -3.6875895    0.0813502   -2.4452074  
H   -0.2023312   -0.0525611   -4.7982288  
H   -4.4230066    0.0378454   -9.0812401  
H   -6.5440340    0.1216697   -6.9427607  
H   -5.5866322    0.1145426   -4.8167951  
C   -1.1241732    0.0218656   -0.7919004  
C   -0.7477726   -0.0022700   -2.1148544  
C    0.6778007   -0.0426689   -2.1414702  
C    1.1194454   -0.0415911   -0.7935547  
N    0.0000000    0.0000000    0.0000000  
C    2.4719083   -0.0764335   -0.4408242  
C    3.3953471   -0.1133377   -1.4675068  
O    4.7290384   -0.1486647   -1.1793476  
C    2.9743095   -0.1146623   -2.8186328  
O    4.0139149   -0.1532922   -3.7247631  
C    1.6402470   -0.0800283   -3.1673483  
H    2.8150026   -0.0756715    0.5845959  
H    5.1911421   -0.1702262   -2.0274391  
H    3.6436362   -0.1515186   -4.6127351  
H    1.3479693   -0.0818092   -4.2109238  
H   -2.1055512    0.0543928   -0.3505404  
C    1.6263847   -2.2366398   -6.3211018  
C    0.3561260   -1.7356463   -6.1540225  
C    0.1105884   -0.8508922   -7.2455908  
C    1.2766951   -0.8525704   -8.0531306  
N    2.1780320   -1.7028792   -7.4622126  
C    1.3898448   -0.0902791   -9.2197055  
C    0.3059610    0.6876488   -9.5777577  
O    0.3627382    1.4512205  -10.7076905  
C   -0.8661432    0.7029619   -8.7848170  
O   -1.8575005    1.5282798   -9.2741070  
C   -0.9783670   -0.0485968   -7.6336911  
H   -0.3109871   -1.9772182   -5.3443332  
H    3.0937675   -1.9144956   -7.8152402  
H    2.2759059   -0.0870612   -9.8394532  
H   -0.4857788    1.9086838  -10.7710146  
H   -2.6132980    1.4806343   -8.6807239  
H    2.1830777   -2.9313852   -5.7158080  
C    2.3971438    2.0127888    3.1728260  
C    1.9431056    1.6308205    1.9564670  
C    0.8496017    0.7127664    2.2356185  
C    0.7794028    0.6545384    3.7115134  
N    1.6840587    1.4146091    4.2663826  
C   -0.1885723   -0.1578550    4.3957118  
C   -1.0476298   -0.8789867    3.6398520  
O   -2.0015663   -1.6796266    4.1448486  
C   -1.0022026   -0.8410666    2.1483229  
O   -1.8147390   -1.5232959    1.5241687  
C    0.0000000    0.0000000    1.4700000  
H    2.3054237    1.9346118    0.9892483  
H   -0.2170646   -0.1815267    5.4753125  
H   -2.4487139   -2.0549881    3.3649027  
H    3.2048689    2.6911772    3.3971983  
