62

C    0.0000000    0.0000000    0.0000000  
C    1.0521663   -0.0012045   -0.8862348  
C    0.4917207   -0.0012024   -2.1979137  
C   -0.9187436    0.0003273   -2.0478681  
N   -1.1833172   -0.0009251   -0.7007908  
C   -1.7951715    0.0010596   -3.1372085  
C   -1.2375856    0.0005393   -4.4010423  
O   -2.0474234    0.0015638   -5.4997572  
C    0.1673564   -0.0013591   -4.5711968  
O    0.5673498   -0.0020764   -5.8915551  
C    1.0325757   -0.0023552   -3.4969898  
H    2.0953052   -0.0030934   -0.6200571  
H   -2.0989776    0.0102657   -0.2891816  
H   -1.4634914    0.0006698   -6.2693588  
H    1.5290683   -0.0033362   -5.9180052  
H    2.1042128   -0.0039896   -3.6584466  
C   -4.3329539    2.1450432   -0.3175470  
C   -5.5711353    1.7385772   -0.6826101  
C   -5.3537974    0.8274321   -1.7957493  
C   -3.8860875    0.7997670   -1.9736439  
N   -3.2823388    1.5701406   -1.1099302  
C   -3.2578665    0.0024482   -2.9908495  
C   -4.0594235   -0.7340647   -3.7935882  
O   -3.6090990   -1.5234087   -4.7836311  
C   -5.5440664   -0.7275914   -3.6388163  
O   -6.2117205   -1.4222667   -4.4049003  
C   -6.1645247    0.0985679   -2.5879038  
H   -6.5153407    2.0219728   -0.2498991  
H   -4.4116988   -1.9149746   -5.1730693  
H   -4.0641638    2.8271623    0.4733000  
C   -8.4685938    1.1004817   -2.2321573  
C   -7.6302186    0.0673626   -2.4798900  
C   -8.4961347   -1.0934638   -2.6183532  
C   -9.8627015   -0.5649570   -2.4189532  
N   -9.8528729    0.7205407   -2.1922632  
C  -11.0222246   -1.4116994   -2.4791185  
C  -10.8255215   -2.7265780   -2.7275884  
O  -11.8160043   -3.6310167   -2.8111002  
C   -9.4587171   -3.2901092   -2.9335974  
O   -9.3543298   -4.4963751   -3.1555139  
C   -8.2852455   -2.4010376   -2.8669640  
H  -12.0090587   -0.9986167   -2.3293494  
H  -11.3660345   -4.4751591   -2.9957711  
H   -7.3124255   -2.8480933   -3.0218603  
H   -8.2161260    2.1360581   -2.0684032  
C    0.0000000    0.0000000    1.4700000  
C    1.0521667    0.0011902    2.3562342  
C    0.4917218    0.0011957    3.6679131  
C   -0.9187428   -0.0003148    3.5178682  
N   -1.1833171    0.0009411    2.1707914  
C   -1.7951701   -0.0010350    4.6072090  
C   -1.2375837   -0.0005224    5.8710424  
O   -2.0474215   -0.0015360    6.9697579  
C    0.1673580    0.0013566    6.0411963  
O    0.5673524    0.0020687    7.3615553  
C    1.0325770    0.0023412    4.9669890  
H    2.0953057    0.0030649    2.0900562  
H   -2.0989778   -0.0102372    1.7591824  
H   -2.8710934   -0.0020419    4.4995513  
H   -1.4634884   -0.0006497    7.7393593  
H    1.5290710    0.0033153    7.3880045  
H    2.1042148    0.0039609    5.1284455  
