62

C    6.0620527   -1.9395598   -4.8515881  
C    7.1252068   -2.7714178   -4.5866660  
C    7.9861621   -2.7214545   -5.7228258  
C    7.3916498   -1.8348711   -6.6568766  
N    6.2237937   -1.3794167   -6.0971513  
C    7.9685701   -1.5444504   -7.8968789  
C    9.1676404   -2.1600136   -8.1993497  
O    9.7746424   -1.9116742   -9.3963833  
C    9.7762035   -3.0479682   -7.2806523  
O   10.9673224   -3.5808877   -7.7285103  
C    9.2074879   -3.3351488   -6.0572906  
H    7.2626756   -3.3446704   -3.6858460  
H    5.5914367   -0.7268831   -6.5241238  
H    7.5204358   -0.8697589   -8.6132379  
H   10.5868583   -2.4346540   -9.4043542  
H   11.3118697   -4.1688683   -7.0494156  
H    9.6969318   -4.0195621   -5.3742810  
C    4.6212874   -2.1169896   -2.7781364  
C    4.8855751   -1.6159779   -4.0317739  
C    3.8097324   -0.7409926   -4.3657837  
C    2.9114594   -0.7479356   -3.2680664  
N    3.4333736   -1.5950873   -2.3222559  
C    1.7334695    0.0049281   -3.2500363  
C    1.4574013    0.7791354   -4.3602465  
O    0.3208000    1.5340734   -4.3951777  
C    2.3411261    0.7990192   -5.4654405  
O    1.9261041    1.6191054   -6.4943038  
C    3.5032852    0.0563441   -5.4840272  
H    3.0199242   -1.7930093   -1.4290215  
H    0.3218068    1.9898345   -5.2469674  
H    2.5782329    1.5750925   -7.2002746  
H    4.1606696    0.0916496   -6.3448859  
H    5.1854435   -2.8064344   -2.1736916  
C    1.1319246    0.0015678   -0.8009268  
C    0.7969914    0.0034958   -2.1169401  
C   -0.6453340    0.0035696   -2.1842669  
C   -1.1266832    0.0015410   -0.7896025  
N    0.0000000    0.0000000    0.0000000  
C   -2.4346129    0.0013913   -0.4276292  
C   -3.4350111    0.0031335   -1.4820181  
O   -4.6384614    0.0030875   -1.2583914  
C   -2.9478961    0.0050442   -2.9661074  
O   -3.7809382    0.0062135   -3.8623773  
C   -1.5113825    0.0053055   -3.2312122  
H   -2.7664565    0.0000174    0.6013448  
H   -1.1823533    0.0068381   -4.2614848  
H    2.1104316    0.0009435   -0.3488059  
C    0.0000000    0.0000000    1.4700000  
C    1.0541688    0.0001722    2.3260392  
C    0.5103138    0.0000454    3.6635956  
C   -0.9576371   -0.0002459    3.5155732  
N   -1.2018458    0.0001392    2.1615969  
C   -1.8348311   -0.0008317    4.5510609  
C   -1.2972847   -0.0009736    5.9014604  
O   -2.0050672   -0.0014265    6.9001319  
C    0.2542623   -0.0004184    6.0817573  
O    0.7184670   -0.0002256    7.2139121  
C    1.0974552   -0.0000873    4.8889129  
H    2.0940752    0.0005483    2.0517982  
H   -2.9081052   -0.0011668    4.4207061  
H    2.1707277    0.0000911    5.0223670  
H   -2.1128194   -0.0014912    1.7406791  
