60

C   -3.3447150    0.0009684   -7.0765452  
C   -3.9926436    0.0015856   -5.8630150  
C   -5.3922231    0.0016392   -6.1382904  
C   -5.5389204    0.0007471   -7.5491075  
N   -4.2763693    0.0023091   -8.0881615  
C   -6.7867707    0.0002406   -8.1797100  
C   -7.9069363    0.0003351   -7.3713740  
O   -9.1501018   -0.0004942   -7.9348932  
C   -7.7810569    0.0015952   -5.9617753  
O   -8.9893005    0.0019477   -5.2958222  
C   -6.5503418    0.0023686   -5.3389869  
H   -3.5152571    0.0030574   -4.8980833  
H   -4.0642778   -0.0084224   -9.0694277  
H   -6.9053234   -0.0002956   -9.2544878  
H   -9.7813694    0.0000340   -7.2036165  
H   -8.8150777    0.0027835   -4.3496459  
H   -6.4853023    0.0035115   -4.2572077  
C    0.0950448    0.0004350   -4.4015596  
C    1.1321307    0.0004159   -5.2710605  
C    0.5164641    0.0007450   -6.5891858  
C   -0.9377778    0.0008252   -6.3212966  
N   -1.1909057    0.0007250   -5.0407048  
C   -1.9068840    0.0011803   -7.3823905  
C   -1.4442349    0.0018325   -8.6533312  
O   -2.2350210    0.0022167   -9.7399297  
C    0.0174442    0.0021415   -8.9560766  
O    0.3669295    0.0026137  -10.1363649  
C    0.9916307    0.0017232   -7.8502354  
H    2.1849023    0.0002951   -5.0457879  
H   -1.6191330    0.0026796  -10.4948035  
H    2.0413894    0.0020813   -8.1114570  
C    3.3321173    0.0004714   -1.3379336  
C    2.6974184    0.0000115   -2.5332313  
C    1.2800437   -0.0002119   -2.2052840  
C    1.2395034    0.0000643   -0.7271298  
N    2.4394063    0.0005459   -0.2131037  
C    0.0000000    0.0000000    0.0000000  
C   -1.1468702    0.0000634   -0.7169544  
O   -2.3742202    0.0000072   -0.1695489  
C   -1.1388770    0.0001606   -2.2096356  
O   -2.2206231    0.0000903   -2.7970412  
C    0.1454523    0.0001814   -2.9324241  
H    3.1367986   -0.0000653   -3.5160949  
H   -2.9844345    0.0001025   -0.9290168  
H    4.3940040    0.0007618   -1.1498638  
C    0.0000000    0.0000000    1.4700000  
C    1.0541688    0.0001722    2.3260392  
C    0.5103138    0.0000454    3.6635956  
C   -0.9576371   -0.0002459    3.5155732  
N   -1.2018458    0.0001392    2.1615969  
C   -1.8348311   -0.0008317    4.5510609  
C   -1.2972847   -0.0009736    5.9014604  
O   -2.0050672   -0.0014265    6.9001319  
C    0.2542623   -0.0004184    6.0817573  
O    0.7184670   -0.0002256    7.2139121  
C    1.0974552   -0.0000873    4.8889129  
H    2.0940752    0.0005483    2.0517982  
H   -2.9081052   -0.0011668    4.4207061  
H    2.1707277    0.0000911    5.0223670  
H   -2.1128194   -0.0014912    1.7406791  
