64

C    0.1451901   -0.6002304   -9.6580529  
C   -0.3433008    0.6434121   -9.3306425  
C    0.0633026    1.5362728  -10.3660516  
C    0.8030941    0.7741200  -11.3061348  
N    0.8353027   -0.5184607  -10.8448168  
C    1.3596724    1.3316203  -12.4612128  
C    1.1656462    2.6830690  -12.6712582  
O    1.6871787    3.2784753  -13.7832430  
C    0.4307590    3.4603558  -11.7446613  
O    0.3256938    4.7906207  -12.0949485  
C   -0.1183722    2.9110887  -10.6047996  
H    1.2812938   -1.2892142  -11.3085107  
H    1.9246742    0.7561950  -13.1815310  
H    1.4389789    4.2108843  -13.7355460  
H   -0.1847505    5.2441963  -11.4172174  
H   -0.6761708    3.5316228   -9.9132239  
H    0.0571542   -1.5388305   -9.1382082  
C   -0.0037890   -0.7105352   -5.1341627  
C   -1.0641734    0.0073898   -4.6315339  
C   -1.6260116    0.7376864   -5.7203887  
C   -0.8603259    0.4225625   -6.8720603  
N    0.1176069   -0.4577634   -6.4805354  
C   -1.1316217    0.9642909   -8.1321067  
C   -2.1954372    1.8398547   -8.2314161  
O   -2.5045526    2.3976096   -9.4382181  
C   -2.9709732    2.1669368   -7.0937087  
O   -3.9953212    3.0532721   -7.3553653  
C   -2.7037390    1.6330952   -5.8502755  
H    0.8069750   -0.8660647   -7.0855499  
H   -3.2684088    2.9694078   -9.2871062  
H   -4.4693375    3.2210039   -6.5351347  
H   -3.3151855    1.9024709   -4.9970181  
H    0.6764268   -1.3817965   -4.6385081  
C    1.1319248    0.0015675   -0.8009270  
C    0.7969916    0.0034959   -2.1169404  
C   -0.6453336    0.0035703   -2.1842672  
C   -1.1266831    0.0015415   -0.7896027  
N    0.0000000    0.0000000    0.0000000  
C   -2.4346129    0.0013924   -0.4276297  
C   -3.4350110    0.0031352   -1.4820184  
O   -4.6384610    0.0030897   -1.2583919  
C   -2.9478958    0.0050460   -2.9661075  
O   -3.7809377    0.0062160   -3.8623775  
C   -1.5113821    0.0053068   -3.2312125  
H    1.4821240    0.0045436   -2.9459192  
H   -2.7664565    0.0000185    0.6013447  
H    2.1104318    0.0009428   -0.3488058  
C    2.5311839    2.1237619    3.0120429  
C    1.9795631    1.6616747    1.8395852  
C    0.9223175    0.7739173    2.1983588  
C    0.8753926    0.7337535    3.6154372  
N    1.8668922    1.5631002    4.0777464  
C   -0.0496243   -0.0427881    4.3197917  
C   -0.9437528   -0.7922060    3.5801400  
O   -1.8685244   -1.5680278    4.2172520  
C   -0.9124520   -0.7656372    2.1655264  
O   -1.8671164   -1.5663939    1.5732860  
C    0.0000000    0.0000000    1.4700000  
H    2.3005065    1.9304404    0.8477417  
H    2.0679347    1.7444845    5.0445261  
H   -0.0904770   -0.0778569    5.3997470  
H   -2.3849669   -2.0011402    3.5251786  
H   -1.7775064   -1.4909735    0.6183591  
H    3.3468514    2.8078103    3.1724291  
