60

C    0.0745464   -0.0597308   -8.8233823  
C    0.8542177   -0.7159339   -9.7474918  
C    0.3867755   -0.3270879  -11.0378000  
C   -0.6885587    0.5756717  -10.8362866  
N   -0.8530049    0.7143986   -9.4804370  
C   -1.3911825    1.1628457  -11.8928554  
C   -1.0009603    0.8329098  -13.1762287  
O   -1.6526488    1.3777943  -14.2445986  
C    0.0693227   -0.0661402  -13.3976334  
O    0.3370351   -0.2938572  -14.7317319  
C    0.7627504   -0.6459881  -12.3557793  
H    1.6599559   -1.3925858   -9.5196294  
H   -1.5354426    1.3012691   -9.0356420  
H   -2.2117540    1.8515245  -11.7459318  
H   -1.2281465    1.0196391  -15.0350343  
H    1.0723076   -0.9112585  -14.7933259  
H    1.5780848   -1.3311866  -12.5563071  
C    2.5632301   -2.1406391   -5.7671238  
C    2.0732868   -1.7328928   -6.9609732  
C    0.9882152   -0.8221522   -6.6298070  
C    0.9615395   -0.7960979   -5.1515671  
N    1.8825657   -1.5669911   -4.6402698  
C    0.0139741    0.0003876   -4.4216236  
C   -0.8666503    0.7376429   -5.1359697  
O   -1.8054110    1.5263495   -4.5857773  
C   -0.8647107    0.7327951   -6.6286630  
O   -1.6951606    1.4280739   -7.2136082  
C    0.1171805   -0.0925341   -7.3543666  
H    2.4070537   -2.0152032   -7.9448313  
H   -2.2750001    1.9187222   -5.3438559  
H    3.3774711   -2.8229275   -5.5814675  
C    3.2798085    0.0005853   -1.4499648  
C    2.5571144    0.0005562   -2.5996554  
C    1.1637436    0.0001546   -2.2210360  
C    1.1336965   -0.0000201   -0.7459470  
N    2.4483513   -0.0001430   -0.3402717  
C    0.0000000    0.0000000    0.0000000  
C   -1.2757367   -0.0000188   -0.6964414  
O   -2.3524597   -0.0000640   -0.1142313  
C   -1.2676494   -0.0000875   -2.2584081  
O   -2.3355762   -0.0004102   -2.8557294  
C    0.0181562    0.0001757   -2.9516296  
H    2.9547357    0.0006072   -3.5989105  
H    4.3498550    0.0008609   -1.3200021  
H    2.7563627    0.0012824    0.6148063  
C    2.5128556    2.1077716    2.9199648  
C    1.9592212    1.6432552    4.0696553  
C    0.8915788    0.7479214    3.6910360  
C    0.8684491    0.7287414    2.2159470  
N    1.8754542    1.5738793    1.8102719  
C    0.0000000    0.0000000    1.4700000  
C   -0.9772830   -0.8200135    2.1664417  
O   -1.8021297   -1.5120829    1.5842315  
C   -0.9711318   -0.8147624    3.7284083  
O   -1.7894187   -1.5009653    4.3257297  
C    0.0140216    0.0115358    4.4216297  
H    2.2638494    1.8988021    5.0689105  
H    0.0117648    0.0094386    5.5031631  
H    3.3327358    2.7953732    2.7900019  
H    2.1123206    1.7707734    0.8551938  
