64

C    2.5562220   -0.0001552   -3.6003002  
C    3.5655135   -0.0006161   -2.6655282  
C    4.7980133   -0.0013042   -3.3835419  
C    4.4750733   -0.0009424   -4.7647138  
N    3.1056450   -0.0021963   -4.8610456  
C    5.4479449   -0.0011312   -5.7688602  
C    6.7709228   -0.0013882   -5.3714826  
O    7.7613134   -0.0012297   -6.3107058  
C    7.1131343   -0.0021264   -3.9982724  
O    8.4727600   -0.0027234   -3.7642570  
C    6.1538993   -0.0022140   -3.0071155  
H    3.4300852   -0.0015789   -1.5975155  
H    2.5841964    0.0082879   -5.7189281  
H    5.2083491   -0.0010017   -6.8232779  
H    8.5970863   -0.0017571   -5.8261980  
H    8.6176773   -0.0031743   -2.8131511  
H    6.4463537   -0.0029687   -1.9635889  
C    0.0000000    0.0000000    0.0000000  
C    1.0541690   -0.0001722   -0.8560392  
C    0.5103143   -0.0000454   -2.1935956  
C   -0.9576365    0.0002459   -2.0455735  
N   -1.2018458   -0.0001391   -0.6915971  
C   -1.8348304    0.0008316   -3.0810614  
C   -1.2972839    0.0009736   -4.4314607  
O   -2.0050661    0.0014265   -5.4301325  
C    0.2542633    0.0004184   -4.6117571  
O    0.7184680    0.0002257   -5.7439119  
C    1.0974559    0.0000874   -3.4189129  
H    2.0940753   -0.0005483   -0.5817981  
H   -2.1128193    0.0014911   -0.2706794  
C   -3.2941067    0.0012872   -2.9038248  
C   -4.0470166    0.0024415   -1.7524810  
C   -5.4166992    0.0030189   -2.1506893  
C   -5.4378073    0.0018782   -3.5689558  
N   -4.1324567    0.0027947   -3.9940153  
C   -6.6248718    0.0017542   -4.3076486  
C   -7.8122573    0.0024939   -3.6017507  
O   -9.0005995    0.0020598   -4.2732097  
C   -7.8117769    0.0040110   -2.1865423  
O   -9.0742763    0.0050143   -1.6302710  
C   -6.6410871    0.0044074   -1.4571510  
H   -3.6570094    0.0039259   -0.7490442  
H   -3.8342547   -0.0082410   -4.9526265  
H   -6.6477227    0.0010314   -5.3887036  
H   -9.6941814    0.0030123   -3.6007459  
H   -8.9845787    0.0059852   -0.6723791  
H   -6.6721590    0.0057609   -0.3738637  
C    3.3041272   -0.0001177    3.0120429  
C    2.5845372    0.0004780    1.8395852  
C    1.2040006    0.0000008    2.1983588  
C    1.1422373   -0.0006037    3.6154372  
N    2.4348639   -0.0026109    4.0777464  
C   -0.0655181   -0.0008797    4.3197917  
C   -1.2321768   -0.0002324    3.5801400  
O   -2.4392816   -0.0001146    4.2172520  
C   -1.1911209    0.0000007    2.1655264  
O   -2.4371527    0.0002320    1.5732860  
C    0.0000000    0.0000000    1.4700000  
H    3.0031534    0.0000661    0.8477417  
H    2.7054629    0.0071099    5.0445261  
H   -0.1193549   -0.0014844    5.3997470  
H   -3.1132988    0.0000648    3.5251786  
H   -2.3200282    0.0004071    0.6183591  
H    4.3686625   -0.0004071    3.1724291  
