60

C    1.7289524   -2.3739794   -7.7530742  
C    2.3648110   -2.5853476   -8.9545206  
C    2.3113784   -1.3559310   -9.6758244  
C    1.6252359   -0.4226064   -8.8572654  
N    1.2838546   -1.0739009   -7.6980018  
C    1.3881848    0.8978262   -9.2510336  
C    1.8525108    1.2831769  -10.4936457  
O    1.6485365    2.5610819  -10.9276555  
C    2.5389579    0.3663626  -11.3249444  
O    2.9380451    0.9017865  -12.5321709  
C    2.7729326   -0.9365067  -10.9372427  
H    2.8111732   -3.5119956   -9.2724499  
H    0.8657483    1.6139969   -8.6318717  
H    2.0457372    2.6176505  -11.8064607  
H    3.3935448    0.2178394  -13.0325107  
H    3.3014422   -1.6160387  -11.5955680  
H    1.5564512   -3.0481333   -6.9316609  
C    0.8518586   -0.7041561   -5.2251428  
C    0.0139741    0.0003876   -4.4216236  
C   -0.8729886    0.7427329   -5.2859478  
C   -0.4803619    0.4105163   -6.6687950  
N    0.5709013   -0.4706744   -6.5627858  
C   -1.0793694    0.9102632   -7.7792669  
C   -2.1843879    1.8373742   -7.6005633  
O   -2.7886791    2.3420362   -8.5378192  
C   -2.6168948    2.2035197   -6.1449948  
O   -3.5457350    2.9832468   -5.9820782  
C   -1.8948203    1.6002142   -5.0276394  
H   -0.7759753    0.6535189   -8.7847240  
H   -2.2006131    1.8587645   -4.0229668  
H    1.6510907   -1.3741286   -4.9526464  
C    3.2798085    0.0005853   -1.4499648  
C    2.5571144    0.0005562   -2.5996554  
C    1.1637436    0.0001546   -2.2210360  
C    1.1336965   -0.0000201   -0.7459470  
N    2.4483513   -0.0001430   -0.3402717  
C    0.0000000    0.0000000    0.0000000  
C   -1.2757367   -0.0000188   -0.6964414  
O   -2.3524597   -0.0000640   -0.1142313  
C   -1.2676494   -0.0000875   -2.2584081  
O   -2.3355762   -0.0004102   -2.8557294  
C    0.0181562    0.0001757   -2.9516296  
H    2.9547357    0.0006072   -3.5989105  
H    4.3498550    0.0008609   -1.3200021  
H    2.7563627    0.0012824    0.6148063  
C    0.0000000    0.0000000    1.4700000  
C    1.0662921    0.0000102    2.3034270  
C    0.4961870   -0.0000064    3.6418889  
C   -0.9663858    0.0000850    3.4240247  
N   -1.2632773    0.0000084    2.1528658  
C   -1.8985362    0.0000517    4.5177257  
C   -1.3925775   -0.0004564    5.7720543  
O   -2.1456383   -0.0005410    6.8851312  
C    0.0786232   -0.0009323    6.0245000  
O    0.4683759   -0.0012588    7.1921102  
C    1.0143166   -0.0008442    4.8859032  
H    2.1107198   -0.0000632    2.0421868  
H   -2.9622183    0.0003270    4.3293377  
H   -1.5042274   -0.0009692    7.6184419  
H    2.0724152   -0.0013148    5.1109744  
