60

C    9.1809615    0.0062541   -3.3198658  
C    9.8580336    0.0064571   -2.1223515  
C   11.2505499    0.0078432   -2.4313763  
C   11.3631017    0.0087277   -3.8453271  
N   10.0878924    0.0057767   -4.3537060  
C   12.5953435    0.0104736   -4.5059075  
C   13.7347199    0.0116494   -3.7248844  
O   14.9638987    0.0137209   -4.3182885  
C   13.6429504    0.0104186   -2.3126543  
O   14.8669381    0.0114125   -1.6761014  
C   12.4276500    0.0084229   -1.6603002  
H    9.4041127    0.0045942   -1.1461625  
H    9.8521325    0.0161728   -5.3295595  
H   12.6878816    0.0110112   -5.5832368  
H   15.6126591    0.0139400   -3.6024845  
H   14.7156372    0.0105020   -0.7259902  
H   12.3887793    0.0073355   -0.5772643  
C    5.6506109    0.0006726   -0.6678806  
C    6.9152390    0.0024390   -1.1626410  
C    6.8040785    0.0027746   -2.6022516  
C    5.3606764    0.0010758   -2.9078307  
N    4.7161325   -0.0005435   -1.6923264  
C    4.8400799    0.0012362   -4.1611001  
C    5.7629687    0.0029876   -5.2839571  
O    5.3925542    0.0032081   -6.4506160  
C    7.2958235    0.0045520   -4.9836904  
O    8.0824529    0.0057261   -5.9209597  
C    7.7361582    0.0044956   -3.5908671  
H    7.8224236    0.0032150   -0.5850348  
H    3.7780219    0.0001012   -4.3634394  
H    5.3226857   -0.0000598    0.3589372  
C    3.2573665   -0.0002920   -1.5109385  
C    2.5379463   -0.0001709   -0.3591964  
C    1.1435038    0.0000331   -0.7338500  
C    1.1092599   -0.0000083   -2.2088477  
N    2.4227553    0.0001909   -2.6182613  
C   -0.0265539   -0.0002524   -2.9515660  
C   -1.3003040   -0.0002640   -2.2514977  
O   -2.3786790   -0.0004133   -2.8306421  
C   -1.2877727    0.0000311   -0.6895603  
O   -2.3539959    0.0003306   -0.0892030  
C    0.0000000    0.0000000    0.0000000  
H    2.9384091   -0.0000367    0.6389234  
H   -0.0296303   -0.0004086   -4.0327229  
H    2.7280482   -0.0013407   -3.5742119  
C    0.0000000    0.0000000    1.4700000  
C    1.0662921    0.0000102    2.3034270  
C    0.4961870   -0.0000064    3.6418889  
C   -0.9663858    0.0000850    3.4240247  
N   -1.2632773    0.0000084    2.1528658  
C   -1.8985362    0.0000517    4.5177257  
C   -1.3925775   -0.0004564    5.7720543  
O   -2.1456383   -0.0005410    6.8851312  
C    0.0786232   -0.0009323    6.0245000  
O    0.4683759   -0.0012588    7.1921102  
C    1.0143166   -0.0008442    4.8859032  
H    2.1107198   -0.0000632    2.0421868  
H   -2.9622183    0.0003270    4.3293377  
H   -1.5042274   -0.0009692    7.6184419  
H    2.0724152   -0.0013148    5.1109744  
