64

C    2.4353746   -1.8210744   -7.7378657  
C    3.5304168   -2.6273219   -7.9459884  
C    3.8706991   -2.5190889   -9.3269633  
C    2.9403669   -1.6249893   -9.9160254  
N    2.0817371   -1.2213039   -8.9238517  
C    2.9747080   -1.2822221  -11.2710615  
C    3.9664626   -1.8521949  -12.0454856  
O    4.0461320   -1.5517705  -13.3745493  
C    4.9036453   -2.7468024  -11.4761151  
O    5.8291936   -3.2303378  -12.3777232  
C    4.8702013   -3.0856126  -10.1394721  
H    4.0226487   -3.2213408   -7.1950931  
H    1.3211877   -0.5765294   -9.0413737  
H    2.2684712   -0.6015239  -11.7261241  
H    4.7975984   -2.0493393  -13.7223836  
H    6.4241117   -3.8265020  -11.9126809  
H    5.6013414   -3.7738239   -9.7317010  
C    1.9332185   -2.1183846   -5.2802479  
C    1.0132700   -1.6573356   -4.3672339  
C    0.1425864   -0.7692373   -5.0656547  
C    0.5838244   -0.7278054   -6.4130661  
N    1.6739347   -1.5567575   -6.5085374  
C   -0.0442371    0.0493837   -7.3909745  
C   -1.1378297    0.7981571   -7.0016524  
O   -1.7886904    1.5745663   -7.9163019  
C   -1.5929068    0.7703230   -5.6618963  
O   -2.6929018    1.5705681   -5.4317602  
C   -0.9736297    0.0040464   -4.6965763  
H    0.9751831   -1.9269942   -3.3256838  
H    0.2872455    0.0854191   -8.4195762  
H   -2.5110530    2.0070699   -7.4425945  
H   -2.9357433    1.4942922   -4.5039597  
H    2.7546832   -2.8023054   -5.1521543  
C    1.1188642    0.0008222   -0.8003808  
C    0.0000000    0.0000000    0.0000000  
C   -1.1323862    0.0008899   -0.8673528  
C   -0.6382663    0.0019679   -2.1969280  
N    0.7324016    0.0038481   -2.1202242  
C   -1.4770914    0.0027318   -3.3154808  
C   -2.8395473    0.0020945   -3.0876857  
O   -3.7039201    0.0024425   -4.1440349  
C   -3.3517868    0.0013931   -1.7684331  
O   -4.7300497    0.0012366   -1.7073121  
C   -2.5248543    0.0009123   -0.6644817  
H    1.3576314   -0.0056167   -2.9057046  
H   -4.5940032    0.0021826   -3.7685128  
H   -4.9934602    0.0007259   -0.7819913  
H   -2.9462577    0.0005603    0.3339659  
H    2.1619895    0.0009355   -0.5342068  
C    2.4951002    2.0940188    2.9809380  
C    1.9440701    1.6314916    1.8291961  
C    0.8759964    0.7350050    2.2038498  
C    0.8497377    0.7130254    3.6788474  
N    1.8560616    1.5571714    4.0882609  
C   -0.0205033   -0.0168748    4.4215661  
C   -0.9962600   -0.8356168    3.7214979  
O   -1.8224391   -1.5286685    4.3006425  
C   -0.9864710   -0.8277881    2.1595606  
O   -1.8030528   -1.5133726    1.5592035  
C    0.0000000    0.0000000    1.4700000  
H    2.2509283    1.8888011    0.8310761  
H   -0.0229599   -0.0187323    5.5027230  
H    3.3143982    2.7817323    3.1139444  
H    2.0889452    1.7545833    5.0442112  
