62

C    5.4604830   -0.9837723   -8.5511631  
C    5.8975661   -0.5691975   -9.7879148  
C    5.6505441    0.8333485   -9.8681925  
C    5.0566128    1.2223120   -8.6402344  
N    4.9538845    0.0945548   -7.8642006  
C    4.6783262    2.5402979   -8.3671003  
C    4.9039943    3.4828522   -9.3513990  
O    4.5540613    4.7846254   -9.1370484  
C    5.4951024    3.1141809  -10.5832637  
O    5.6535170    4.1668329  -11.4608585  
C    5.8682936    1.8140949  -10.8535062  
H    6.3390154   -1.2002656  -10.5401578  
H    4.2250835    2.8431663   -7.4332684  
H    4.7943073    5.2674708   -9.9385516  
H    6.0588690    3.8325376  -12.2667984  
H    6.3187584    1.5616764  -11.8063154  
H    5.4687076   -1.9636051   -8.1052729  
C    6.2078070   -2.1204374   -4.1884497  
C    6.1274188   -1.6213462   -5.4678683  
C    5.0008410   -0.7471989   -5.5037681  
C    4.4282842   -0.7526502   -4.2060484  
N    5.1843804   -1.5981474   -3.4326986  
C    3.2973506   -0.0000934   -3.8752374  
C    2.7343299    0.7722679   -4.8725555  
O    1.6291399    1.5268263   -4.6038367  
C    3.2908609    0.7906440   -6.1736139  
O    2.6156195    1.6089739   -7.0555033  
C    4.4063831    0.0482704   -6.5007499  
H    6.7975949   -1.8590340   -6.2761773  
H    5.0245803   -1.7947652   -2.4612117  
H    1.4023566    1.9812319   -5.4256330  
H    3.0556030    1.5640232   -7.9099019  
H    6.9133535   -2.8087589   -3.7555795  
C    3.3321174    0.0004714   -1.3379332  
C    2.6974186    0.0000115   -2.5332308  
C    1.2800441   -0.0002119   -2.2052838  
C    1.2395035    0.0000643   -0.7271293  
N    2.4394063    0.0005458   -0.2131034  
C    0.0000000    0.0000000    0.0000000  
C   -1.1468701    0.0000634   -0.7169542  
O   -2.3742201    0.0000072   -0.1695492  
C   -1.1388767    0.0001606   -2.2096354  
O   -2.2206229    0.0000903   -2.7970413  
C    0.1454526    0.0001815   -2.9324239  
H   -2.9844344    0.0001023   -0.9290168  
H    0.1083580    0.0003680   -4.0135594  
H    4.3940040    0.0007617   -1.1498630  
C    2.5128556    2.1077716    2.9199648  
C    1.9592212    1.6432552    4.0696553  
C    0.8915788    0.7479214    3.6910360  
C    0.8684491    0.7287414    2.2159470  
N    1.8754542    1.5738793    1.8102719  
C    0.0000000    0.0000000    1.4700000  
C   -0.9772830   -0.8200135    2.1664417  
O   -1.8021297   -1.5120829    1.5842315  
C   -0.9711318   -0.8147624    3.7284083  
O   -1.7894187   -1.5009653    4.3257297  
C    0.0140216    0.0115358    4.4216297  
H    2.2638494    1.8988021    5.0689105  
H    0.0117648    0.0094386    5.5031631  
H    3.3327358    2.7953732    2.7900019  
H    2.1123206    1.7707734    0.8551938  
