64

C    5.5116835   -1.0419941   -6.5200558  
C    6.5040955   -1.9265282   -6.1662396  
C    7.2893937   -2.1600548   -7.3338733  
C    6.7237883   -1.3841508   -8.3778995  
N    5.6449629   -0.7190934   -7.8502141  
C    7.2435510   -1.3690524   -9.6757475  
C    8.3547091   -2.1512427   -9.9241056  
O    8.9030792   -2.1734005  -11.1738322  
C    8.9331270   -2.9325656   -8.8956204  
O   10.0348735   -3.6572798   -9.3009460  
C    8.4207357   -2.9481555   -7.6150982  
H    6.6440613   -2.3520530   -5.1872953  
H    5.0523230   -0.0835306   -8.3530251  
H    6.8170217   -0.7799767  -10.4759128  
H    9.6583727   -2.7741277  -11.1299745  
H   10.3645072   -4.1565450   -8.5475007  
H    8.8851550   -3.5567653   -6.8480341  
C    4.1997124   -0.7142926   -4.3804693  
C    4.4285577   -0.4616619   -5.7132386  
C    3.4231993    0.4549161   -6.1418872  
C    2.6024960    0.7281510   -5.0177365  
N    3.1006054    0.0006263   -3.9654951  
C    1.5069395    1.5949724   -5.0740028  
C    1.2351055    2.1971655   -6.2871174  
O    0.1773771    3.0527174   -6.3978274  
C    2.0421268    1.9369156   -7.4201676  
O    1.6420925    2.6125648   -8.5545461  
C    3.1229149    1.0816790   -7.3654562  
H    0.8774431    1.8072968   -4.2208590  
H    0.1667379    3.3565065   -7.3148140  
H    2.2391121    2.3813713   -9.2726831  
H    3.7226922    0.9016982   -8.2499633  
H    4.7326843   -1.3489907   -3.6934047  
C    3.2798083    0.0005857   -1.4499652  
C    2.5571142    0.0005565   -2.5996556  
C    1.1637432    0.0001548   -2.2210361  
C    1.1336964   -0.0000200   -0.7459473  
N    2.4483512   -0.0001428   -0.3402723  
C    0.0000000    0.0000000    0.0000000  
C   -1.2757368   -0.0000186   -0.6964415  
O   -2.3524598   -0.0000639   -0.1142311  
C   -1.2676497   -0.0000872   -2.2584083  
O   -2.3355766   -0.0004101   -2.8557295  
C    0.0181558    0.0001758   -2.9516296  
H    0.0150788    0.0003319   -4.0331631  
H    4.3498547    0.0008612   -1.3200026  
H    2.7563626    0.0012823    0.6148059  
C    0.0000000    0.0000000    1.4700000  
C    1.0521667    0.0011902    2.3562342  
C    0.4917218    0.0011957    3.6679131  
C   -0.9187428   -0.0003148    3.5178682  
N   -1.1833171    0.0009411    2.1707914  
C   -1.7951701   -0.0010350    4.6072090  
C   -1.2375837   -0.0005224    5.8710424  
O   -2.0474215   -0.0015360    6.9697579  
C    0.1673580    0.0013566    6.0411963  
O    0.5673524    0.0020687    7.3615553  
C    1.0325770    0.0023412    4.9669890  
H    2.0953057    0.0030649    2.0900562  
H   -2.0989778   -0.0102372    1.7591824  
H   -2.8710934   -0.0020419    4.4995513  
H   -1.4634884   -0.0006497    7.7393593  
H    1.5290710    0.0033153    7.3880045  
H    2.1042148    0.0039609    5.1284455  
