64

C   -7.6302191    0.0673159   -2.4798921  
C   -8.4689320    0.7245518   -1.6097956  
C   -9.8007391    0.3370840   -1.9426019  
C   -9.7113614   -0.5659379   -3.0327802  
N   -8.3796263   -0.7061401   -3.3351717  
C  -10.8349498   -1.1519970   -3.6234355  
C  -12.0712673   -0.8206550   -3.1039046  
O  -13.2013349   -1.3644092   -3.6426900  
C  -12.1809528    0.0786786   -2.0167136  
O  -13.4803820    0.3078516   -1.6138393  
C  -11.0729504    0.6574270   -1.4336986  
H   -8.1590386    1.4009902   -0.8317273  
H   -8.0076766   -1.2935204   -4.0594774  
H  -10.7735600   -1.8408684   -4.4546327  
H  -13.9437647   -1.0053808   -3.1395378  
H  -13.4657022    0.9253498   -0.8762187  
H  -11.1882035    1.3428762   -0.6022212  
C   -4.3329665    2.1450168   -0.3175485  
C   -5.5711456    1.7385433   -0.6826116  
C   -5.3538023    0.8273994   -1.7957507  
C   -3.8860920    0.7997432   -1.9736451  
N   -3.2823480    1.5701205   -1.1099310  
C   -3.2578655    0.0024282   -2.9908505  
C   -4.0594180   -0.7340898   -3.7935894  
O   -3.6090879   -1.5234309   -4.7836322  
C   -5.5440609   -0.7276254   -3.6388177  
O   -6.2117105   -1.4223048   -4.4049020  
C   -6.1645244    0.0985302   -2.5879055  
H   -6.5153527    2.0219329   -0.2499008  
H   -4.4116857   -1.9150018   -5.1730704  
H   -4.0641812    2.8271376    0.4732985  
C    0.0000000    0.0000000    0.0000000  
C    1.0521666   -0.0011982   -0.8862343  
C    0.4917215   -0.0011996   -2.1979132  
C   -0.9187429    0.0003215   -2.0478682  
N   -1.1833171   -0.0009323   -0.7007913  
C   -1.7951703    0.0010483   -3.1372089  
C   -1.2375841    0.0005313   -4.4010422  
O   -2.0474218    0.0015510   -5.4997578  
C    0.1673576   -0.0013585   -4.5711963  
O    0.5673520   -0.0020735   -5.8915554  
C    1.0325768   -0.0023493   -3.4969892  
H    2.0953056   -0.0030808   -0.6200564  
H   -2.0989778    0.0102529   -0.2891822  
H   -1.4634888    0.0006601   -6.2693595  
H    1.5290707   -0.0033271   -5.9180047  
H    2.1042146   -0.0039770   -3.6584456  
C    3.3041272   -0.0001177    3.0120429  
C    2.5845372    0.0004780    1.8395852  
C    1.2040006    0.0000008    2.1983588  
C    1.1422373   -0.0006037    3.6154372  
N    2.4348639   -0.0026109    4.0777464  
C   -0.0655181   -0.0008797    4.3197917  
C   -1.2321768   -0.0002324    3.5801400  
O   -2.4392816   -0.0001146    4.2172520  
C   -1.1911209    0.0000007    2.1655264  
O   -2.4371527    0.0002320    1.5732860  
C    0.0000000    0.0000000    1.4700000  
H    3.0031534    0.0000661    0.8477417  
H    2.7054629    0.0071099    5.0445261  
H   -0.1193549   -0.0014844    5.3997470  
H   -3.1132988    0.0000648    3.5251786  
H   -2.3200282    0.0004071    0.6183591  
H    4.3686625   -0.0004071    3.1724291  
