60

C    5.2656621   -1.1432130   -8.7340023  
C    4.7958797   -0.0599119   -8.0281473  
C    4.9010433    1.0740491   -8.8870262  
C    5.4461189    0.6174455  -10.1143523  
N    5.6574869   -0.7329896   -9.9868144  
C    5.6884487    1.4680319  -11.1972050  
C    5.3745303    2.8038381  -11.0382860  
O    5.5906029    3.6781140  -12.0639406  
C    4.8302438    3.2785705   -9.8212415  
O    4.5715817    4.6337209   -9.8191755  
C    4.5911672    2.4400637   -8.7524682  
H    6.0276015   -1.3325733  -10.7020038  
H    6.1038193    1.1262743  -12.1352185  
H    5.3074090    4.5457777  -11.7473568  
H    4.2063187    4.8723326   -8.9617082  
H    4.1735913    2.8325802   -7.8326646  
H    5.3535726   -2.1757880   -8.4424219  
C    5.9676388   -2.1403202   -4.2647280  
C    5.9574583   -1.7327294   -5.5552103  
C    4.8270664   -0.8220463   -5.6520101  
C    4.2518653   -0.7958519   -4.2900112  
N    4.9163000   -1.5666196   -3.4724335  
C    3.1006054    0.0006263   -3.9654951  
C    2.5492762    0.7377402   -4.9564714  
O    1.4731211    1.5264226   -4.7955003  
C    3.1069015    0.7327486   -6.3410976  
O    2.5539560    1.4279024   -7.1932907  
C    4.2884409   -0.0925700   -6.6488938  
H    6.6335875   -2.0151072   -6.3439990  
H    1.3195669    1.9186832   -5.6739683  
H    6.6542207   -2.8225235   -3.7891473  
C    3.2798083    0.0005857   -1.4499652  
C    2.5571142    0.0005565   -2.5996556  
C    1.1637432    0.0001548   -2.2210361  
C    1.1336964   -0.0000200   -0.7459473  
N    2.4483512   -0.0001428   -0.3402723  
C    0.0000000    0.0000000    0.0000000  
C   -1.2757368   -0.0000186   -0.6964415  
O   -2.3524598   -0.0000639   -0.1142311  
C   -1.2676497   -0.0000872   -2.2584083  
O   -2.3355766   -0.0004101   -2.8557295  
C    0.0181558    0.0001758   -2.9516296  
H    0.0150788    0.0003319   -4.0331631  
H    4.3498547    0.0008612   -1.3200026  
H    2.7563626    0.0012823    0.6148059  
C    0.0000000    0.0000000    1.4700000  
C    1.0541688    0.0001722    2.3260392  
C    0.5103138    0.0000454    3.6635956  
C   -0.9576371   -0.0002459    3.5155732  
N   -1.2018458    0.0001392    2.1615969  
C   -1.8348311   -0.0008317    4.5510609  
C   -1.2972847   -0.0009736    5.9014604  
O   -2.0050672   -0.0014265    6.9001319  
C    0.2542623   -0.0004184    6.0817573  
O    0.7184670   -0.0002256    7.2139121  
C    1.0974552   -0.0000873    4.8889129  
H    2.0940752    0.0005483    2.0517982  
H   -2.9081052   -0.0011668    4.4207061  
H    2.1707277    0.0000911    5.0223670  
H   -2.1128194   -0.0014912    1.7406791  
