60

C   10.9798125    2.1280693   -2.7103269  
C    9.7364131    1.6652480   -2.3467023  
C    9.9279154    0.7771550   -1.2470578  
C   11.3207379    0.7375524   -0.9817187  
N   11.9303222    1.5675424   -1.8895408  
C   11.8740496   -0.0391223    0.0407343  
C   11.0054639   -0.7892527    0.8095258  
O   11.4923791   -1.5652350    1.8213452  
C    9.6126688   -0.7632511    0.5599990  
O    8.8803933   -1.5646872    1.4113597  
C    9.0661420    0.0025169   -0.4486803  
H    8.8059558    1.9337524   -2.8169640  
H   12.9164699    1.7494156   -1.9386927  
H   12.9347348   -0.0737657    0.2479776  
H   10.7290166   -1.9988677    2.2244636  
H    7.9507505   -1.4896186    1.1752825  
H   11.2639977    2.8125561   -3.4911441  
C    6.8068812    0.0035022   -4.1747019  
C    5.5278581    0.0022330   -3.7323476  
C    5.6328267    0.0014349   -2.2813200  
C    7.0869584    0.0022985   -2.0128347  
N    7.7802401    0.0035921   -3.1188854  
C    7.6138018    0.0019125   -0.6758521  
C    6.7282252    0.0011070    0.3464433  
O    7.0793813    0.0006615    1.6436439  
C    5.2547112    0.0005945    0.1078690  
O    4.5071908   -0.0002588    1.0858431  
C    4.7390840    0.0009613   -1.2727298  
H    4.6247032    0.0019722   -4.3183399  
H    6.2347357    0.0001390    2.1291604  
H    7.1567941    0.0044018   -5.1947674  
C    3.2798077    0.0005856   -1.4499661  
C    2.5571132    0.0005565   -2.5996564  
C    1.1637425    0.0001547   -2.2210366  
C    1.1336959   -0.0000200   -0.7459475  
N    2.4483509   -0.0001429   -0.3402730  
C    0.0000000    0.0000000    0.0000000  
C   -1.2757370   -0.0000187   -0.6964411  
O   -2.3524597   -0.0000640   -0.1142306  
C   -1.2676502   -0.0000874   -2.2584078  
O   -2.3355774   -0.0004102   -2.8557287  
C    0.0181551    0.0001758   -2.9516297  
H    2.9547342    0.0006074   -3.5989118  
H    0.0150776    0.0003317   -4.0331632  
H    2.7563626    0.0012823    0.6148051  
C    0.8175213    0.6860729    2.3021913  
C    0.0000000    0.0000000    1.4700000  
C   -0.8887526   -0.7456559    2.3478473  
C   -0.4549825   -0.3816753    3.7138435  
N    0.5448156    0.4573574    3.6934124  
C   -1.0945674   -0.9182058    4.8835240  
C   -2.1210866   -1.7789155    4.6970523  
O   -2.8083856   -2.3554314    5.6976972  
C   -2.5824069   -2.1655116    3.3310774  
O   -3.5227682   -2.9541547    3.2362962  
C   -1.9100805   -1.6015804    2.1470656  
H   -0.7567140   -0.6349833    5.8697035  
H   -3.4728268   -2.9124471    5.2533954  
H   -2.2742832   -1.9066565    1.1752040  
H    1.6189533    1.3585343    2.0405121  
