66

C    6.7748110   -0.0038150    1.2764661  
C    5.5082321   -0.0036674    0.7395816  
C    5.6573268   -0.0010630   -0.6789965  
C    7.0493888    0.0000132   -0.9511885  
N    7.6991163    0.0002434    0.2581378  
C    7.5659481    0.0022552   -2.2503999  
C    6.6607394    0.0031251   -3.2938434  
O    7.1109048    0.0049543   -4.5823937  
C    5.2680300    0.0024512   -3.0424940  
O    4.4967628    0.0038936   -4.1863856  
C    4.7577216    0.0005129   -1.7610467  
H    4.5898243   -0.0041379    1.3012931  
H    8.6954215   -0.0096156    0.3816693  
H    8.6258305    0.0032294   -2.4645286  
H    6.3261381    0.0055801   -5.1457827  
H    3.5699423    0.0032895   -3.9283025  
C    4.5048261   -0.0134662    5.1283144  
C    4.8470211   -0.0113427    3.7958855  
C    6.2719805   -0.0086366    3.7319774  
C    6.7485271   -0.0095375    5.0679524  
N    5.6494943   -0.0105317    5.8905966  
C    8.1101964   -0.0077589    5.3851916  
C    9.0071353   -0.0053280    4.3346338  
O   10.3483726   -0.0038674    4.5878057  
C    8.5511032   -0.0040190    2.9949138  
O    9.5673245   -0.0011891    2.0618375  
C    7.2079301   -0.0054991    2.6812097  
H    4.1547525   -0.0105949    2.9714121  
H    5.6757726   -0.0218775    6.8941710  
H    8.4798390   -0.0082887    6.4013444  
H   10.7885569   -0.0019652    3.7278648  
H    9.1740408   -0.0004942    1.1838099  
H    3.5348035   -0.0153962    5.5952314  
C    3.3041270    0.0001177   -1.5420435  
C    2.5845370   -0.0004780   -0.3695856  
C    1.2040004   -0.0000007   -0.7283590  
C    1.1422370    0.0006038   -2.1454373  
N    2.4348634    0.0026110   -2.6077469  
C   -0.0655187    0.0008799   -2.8497918  
C   -1.2321769    0.0002326   -2.1101398  
O   -2.4392822    0.0001149   -2.7472517  
C   -1.1911211   -0.0000007   -0.6955263  
O   -2.4371526   -0.0002319   -0.1032858  
C    0.0000000    0.0000000    0.0000000  
H    3.0031534   -0.0000661    0.6222578  
H    2.7054623   -0.0071098   -3.5745266  
H   -0.1193555    0.0014846   -3.9297472  
H   -3.1132992   -0.0000646   -2.0551783  
H   -2.3200279   -0.0004070    0.8516411  
C    0.8576279    0.7185626    2.2703808  
C    0.0000000    0.0000000    1.4700000  
C   -0.8668858   -0.7285659    2.3373528  
C   -0.4876752   -0.4117774    3.6669281  
N    0.5635254    0.4678311    3.5902241  
C   -1.1297612   -0.9515493    4.7854808  
C   -2.1738724   -1.8268314    4.5576857  
O   -2.8357962   -2.3827064    5.6140350  
C   -2.5667212   -2.1555554    3.2384331  
O   -3.6226318   -3.0413663    3.1773122  
C   -1.9335634   -1.6236449    2.1344818  
H    1.0363952    0.8769718    4.3757045  
H   -0.8454472   -0.7142436    5.8013813  
H   -3.5178062   -2.9546422    5.2385129  
H   -3.8247440   -3.2102924    2.2519915  
H   -2.2566033   -1.8942483    1.1360343  
H    1.6567807    1.3889844    2.0042067  
