62

C    1.1153429   -3.0909698  -10.1488674  
C    1.2814658   -2.2887208  -11.2539774  
C    0.9269815   -0.9634144  -10.8634602  
C    0.5497725   -1.0189265   -9.4972403  
N    0.6737937   -2.3256191   -9.0950075  
C    0.1392288    0.1085667   -8.7796035  
C    0.1092145    1.3141124   -9.4533512  
O   -0.2835163    2.4465408   -8.8003715  
C    0.4815124    1.3896789  -10.8166196  
O    0.3980990    2.6609747  -11.3459523  
C    0.8863676    0.2777388  -11.5252859  
H    1.6158351   -2.6183908  -12.2227446  
H    0.4853198   -2.6686252   -8.1704507  
H   -0.2328610    3.1646659   -9.4445724  
H    0.6663788    2.6242477  -12.2691425  
H    1.1654545    0.3664647  -12.5687017  
H    1.2755165   -4.1488111  -10.0293949  
C    1.7926684   -2.1130094   -5.2695613  
C    1.5709109   -1.6116993   -6.5312979  
C    0.4476588   -0.7372601   -6.4404054  
C    0.0227367   -0.7448287   -5.0871465  
N    0.8596940   -1.5918116   -4.4039633  
C   -1.0641734    0.0073898   -4.6315339  
C   -1.7341473    0.7815828   -5.5588619  
O   -2.8023666    1.5359045   -5.1678131  
C   -1.3255169    0.8020851   -6.9136385  
O   -2.0941824    1.6220710   -7.7137133  
C   -0.2535111    0.0600469   -7.3638698  
H    2.1470956   -1.8481325   -7.4094229  
H    0.8086761   -1.7900692   -3.4210735  
H   -3.1188183    1.9917711   -5.9585775  
H   -1.7518077    1.5785013   -8.6117590  
H    2.5416451   -2.8022204   -4.9188739  
C    1.1319248    0.0015675   -0.8009270  
C    0.7969916    0.0034959   -2.1169404  
C   -0.6453336    0.0035703   -2.1842672  
C   -1.1266831    0.0015415   -0.7896027  
N    0.0000000    0.0000000    0.0000000  
C   -2.4346129    0.0013924   -0.4276297  
C   -3.4350110    0.0031352   -1.4820184  
O   -4.6384610    0.0030897   -1.2583919  
C   -2.9478958    0.0050460   -2.9661075  
O   -3.7809377    0.0062160   -3.8623775  
C   -1.5113821    0.0053068   -3.2312125  
H    1.4821240    0.0045436   -2.9459192  
H   -2.7664565    0.0000185    0.6013447  
H    2.1104318    0.0009428   -0.3488058  
C    2.5528530    2.1414826    2.8079335  
C    2.0663498    1.7338582    4.0032312  
C    0.9804344    0.8229586    3.6752840  
C    0.9495562    0.7966882    2.1971295  
N    1.8690446    1.5676019    1.6831036  
C    0.0000000    0.0000000    1.4700000  
C   -0.8785127   -0.7372425    2.1869543  
O   -1.8187535   -1.5261249    1.6395491  
C   -0.8723269   -0.7321790    3.6796354  
O   -1.7010379   -1.4274584    4.2670412  
C    0.1115397    0.0933559    4.4024240  
H    2.4028853    2.0163452    4.9860947  
H   -2.2861435   -1.9184361    2.3990168  
H    0.0832434    0.0693689    5.4835595  
H    3.3664920    2.8238276    2.6198634  
