60

C    3.3531864   -5.4652737   -7.8471856  
C    3.9487551   -4.9953765   -8.9947754  
C    3.6573710   -3.6013274   -9.0742937  
C    2.8742720   -3.2743163   -7.9377429  
N    2.7065911   -4.4292448   -7.2148046  
C    2.4049833   -1.9809185   -7.6893901  
C    2.7324445   -0.9997011   -8.6049003  
O    2.3004639    0.2804442   -8.4109042  
C    3.5124713   -1.3064274   -9.7452053  
O    3.7532136   -0.2211799  -10.5622875  
C    3.9755492   -2.5822316   -9.9909893  
H    4.5217041   -5.5850803   -9.6897381  
H    2.2020484   -4.5045482   -6.3500804  
H    2.6349138    0.7972544   -9.1554273  
H    4.2858636   -0.5141305  -11.3079869  
H    4.5708376   -2.7870320  -10.8731257  
H    3.3372637   -6.4577709   -7.4304690  
C    1.7704312   -2.0997831   -5.2515186  
C    1.5928585   -1.6333167   -6.5144327  
C    0.4607457   -0.7379007   -6.4771951  
C   -0.0100421   -0.7207976   -5.0790331  
N    0.8257127   -1.5670939   -4.3875226  
C   -1.0641734    0.0073898   -4.6315339  
C   -1.7831600    0.8289565   -5.5910244  
O   -2.7459474    1.5206789   -5.2862920  
C   -1.3021140    0.8259151   -7.0770897  
O   -1.8998117    1.5134385   -7.8939923  
C   -0.1528625    0.0000284   -7.4390071  
H    0.1740159    0.0036596   -8.4699583  
H    2.5118282   -2.7880436   -4.8793394  
H    0.7607705   -1.7654786   -3.4059561  
C    1.1319248    0.0015675   -0.8009270  
C    0.7969916    0.0034959   -2.1169404  
C   -0.6453336    0.0035703   -2.1842672  
C   -1.1266831    0.0015415   -0.7896027  
N    0.0000000    0.0000000    0.0000000  
C   -2.4346129    0.0013924   -0.4276297  
C   -3.4350110    0.0031352   -1.4820184  
O   -4.6384610    0.0030897   -1.2583919  
C   -2.9478958    0.0050460   -2.9661075  
O   -3.7809377    0.0062160   -3.8623775  
C   -1.5113821    0.0053068   -3.2312125  
H    1.4821240    0.0045436   -2.9459192  
H   -2.7664565    0.0000185    0.6013447  
H    2.1104318    0.0009428   -0.3488058  
C    2.5128556    2.1077716    2.9199648  
C    1.9592212    1.6432552    4.0696553  
C    0.8915788    0.7479214    3.6910360  
C    0.8684491    0.7287414    2.2159470  
N    1.8754542    1.5738793    1.8102719  
C    0.0000000    0.0000000    1.4700000  
C   -0.9772830   -0.8200135    2.1664417  
O   -1.8021297   -1.5120829    1.5842315  
C   -0.9711318   -0.8147624    3.7284083  
O   -1.7894187   -1.5009653    4.3257297  
C    0.0140216    0.0115358    4.4216297  
H    2.2638494    1.8988021    5.0689105  
H    0.0117648    0.0094386    5.5031631  
H    3.3327358    2.7953732    2.7900019  
H    2.1123206    1.7707734    0.8551938  
