60

C    9.1199937    0.0016836   -0.8363905  
C   10.1581811    0.0023064   -1.7389606  
C   11.3674925    0.0027410   -0.9825434  
C   11.0012783    0.0020649    0.3877898  
N    9.6294979    0.0033835    0.4410097  
C   11.9420912    0.0019473    1.4220336  
C   13.2769116    0.0022156    1.0664566  
O   14.2372757    0.0017654    2.0363598  
C   13.6621379    0.0032649   -0.2953129  
O   15.0284497    0.0038313   -0.4864559  
C   12.7345462    0.0036548   -1.3161444  
H   10.0564059    0.0035371   -2.8107037  
H    9.0813291   -0.0072755    1.2820675  
H   11.6694554    0.0015773    2.4683949  
H   15.0878726    0.0023565    1.5783745  
H   15.2032049    0.0045036   -1.4325341  
H   13.0596712    0.0046439   -2.3499580  
C    6.4690067    0.0019755   -4.4192259  
C    7.5790592    0.0025229   -3.6450419  
C    7.0826137    0.0021760   -2.2775472  
C    5.6103549    0.0015082   -2.4155218  
N    5.2447492    0.0013071   -3.6686472  
C    4.7390840    0.0009613   -1.2727298  
C    5.3125318    0.0006873   -0.0477839  
O    4.6211392    0.0001824    1.1046125  
C    6.7952873    0.0009744    0.1242520  
O    7.2479830    0.0008233    1.2689297  
C    7.6676529    0.0015790   -1.0635621  
H    8.6077291    0.0030016   -3.9627138  
H    5.3014942    0.0000717    1.8019436  
H    6.4103389    0.0020015   -5.4960416  
C    3.2798077    0.0005856   -1.4499661  
C    2.5571132    0.0005565   -2.5996564  
C    1.1637425    0.0001547   -2.2210366  
C    1.1336959   -0.0000200   -0.7459475  
N    2.4483509   -0.0001429   -0.3402730  
C    0.0000000    0.0000000    0.0000000  
C   -1.2757370   -0.0000187   -0.6964411  
O   -2.3524597   -0.0000640   -0.1142306  
C   -1.2676502   -0.0000874   -2.2584078  
O   -2.3355774   -0.0004102   -2.8557287  
C    0.0181551    0.0001758   -2.9516297  
H    2.9547342    0.0006074   -3.5989118  
H    0.0150776    0.0003317   -4.0331632  
H    2.7563626    0.0012823    0.6148051  
C    2.3971438    2.0127888    3.1728260  
C    1.9431056    1.6308205    1.9564670  
C    0.8496017    0.7127664    2.2356185  
C    0.7794028    0.6545384    3.7115134  
N    1.6840587    1.4146091    4.2663826  
C   -0.1885723   -0.1578550    4.3957118  
C   -1.0476298   -0.8789867    3.6398520  
O   -2.0015663   -1.6796266    4.1448486  
C   -1.0022026   -0.8410666    2.1483229  
O   -1.8147390   -1.5232959    1.5241687  
C    0.0000000    0.0000000    1.4700000  
H    2.3054237    1.9346118    0.9892483  
H   -0.2170646   -0.1815267    5.4753125  
H   -2.4487139   -2.0549881    3.3649027  
H    3.2048689    2.6911772    3.3971983  
