64

C    2.8170691   -0.7299971   -3.3539672  
C    1.6478449   -0.0100095   -3.2702991  
C    1.5099616    0.7041930   -4.4972886  
C    2.6345517    0.3775763   -5.2976292  
N    3.4089730   -0.4938070   -4.5726605  
C    2.8289283    0.9022212   -6.5789389  
C    1.8704254    1.7721994   -7.0612129  
O    2.0105491    2.3133921   -8.3063998  
C    0.7415973    2.1105566   -6.2775819  
O   -0.1223372    2.9894075   -6.8977269  
C    0.5493306    1.5935718   -5.0133480  
H    4.2679779   -0.9069769   -4.8879102  
H    1.2432645    2.8840006   -8.4440392  
H   -0.8566616    3.1656147   -6.3016374  
H   -0.3251156    1.8712821   -4.4365474  
H    3.2763599   -1.3922060   -2.6401817  
C    1.1188646    0.0008228   -0.8003807  
C    0.0000000    0.0000000    0.0000000  
C   -1.1323857    0.0008896   -0.8673536  
C   -0.6382653    0.0019676   -2.1969283  
N    0.7324026    0.0038483   -2.1202238  
C   -1.4770896    0.0027312   -3.3154815  
C   -2.8395463    0.0020933   -3.0876869  
O   -3.7039181    0.0024411   -4.1440365  
C   -3.3517861    0.0013918   -1.7684344  
O   -4.7300492    0.0012349   -1.7073139  
C   -2.5248540    0.0009114   -0.6644827  
H   -1.1067549    0.0036981   -4.3313820  
H   -4.5940015    0.0021810   -3.7685148  
H   -4.9934596    0.0007243   -0.7819937  
H   -2.9462580    0.0005594    0.3339645  
H    2.1619899    0.0009362   -0.5342062  
C    4.9750505   -2.9050638   -7.2554160  
C    5.9154401   -2.4226580   -8.1359946  
C    5.6525257   -1.0309001   -8.3047732  
C    4.5305674   -0.7181117   -7.4952679  
N    4.1429100   -1.8789500   -6.8733403  
C    3.9913190    0.5693473   -7.4149674  
C    4.5958775    1.5591420   -8.1652954  
O    4.1101259    2.8340277   -8.1237521  
C    5.7159805    1.2666321   -8.9793129  
O    6.2047529    2.3590461   -9.6656641  
C    6.2483268   -0.0033075   -9.0592256  
H    6.6943444   -3.0027709   -8.6005056  
H    3.3787642   -1.9642115   -6.2277452  
H    4.6690073    3.3584601   -8.7118735  
H    6.9594849    2.0756063  -10.1906826  
H    7.1068194   -0.1971879   -9.6915866  
H    4.8311787   -3.9002021   -6.8707606  
C    0.8175213    0.6860729    2.3021913  
C    0.0000000    0.0000000    1.4700000  
C   -0.8887526   -0.7456559    2.3478473  
C   -0.4549825   -0.3816753    3.7138435  
N    0.5448156    0.4573574    3.6934124  
C   -1.0945674   -0.9182058    4.8835240  
C   -2.1210866   -1.7789155    4.6970523  
O   -2.8083856   -2.3554314    5.6976972  
C   -2.5824069   -2.1655116    3.3310774  
O   -3.5227682   -2.9541547    3.2362962  
C   -1.9100805   -1.6015804    2.1470656  
H   -0.7567140   -0.6349833    5.8697035  
H   -3.4728268   -2.9124471    5.2533954  
H   -2.2742832   -1.9066565    1.1752040  
H    1.6189533    1.3585343    2.0405121  
