62

C    3.8737767   -0.3889034   -9.0819156  
C    3.3845708    0.8278798   -8.6664819  
C    3.7216445    1.7784900   -9.6751061  
C    4.4217058    1.0776256  -10.6903052  
N    4.4981999   -0.2356015  -10.2976213  
C    4.9072424    1.7020127  -11.8432070  
C    4.6817019    3.0585736  -11.9737909  
O    5.1339708    3.7180327  -13.0799466  
C    3.9855869    3.7753122  -10.9715319  
O    3.8417032    5.1193189  -11.2477351  
C    3.5065471    3.1600405   -9.8337772  
H    4.9304861   -0.9741156  -10.8226993  
H    5.4416749    1.1735031  -12.6205507  
H    4.8744921    4.6422988  -12.9719341  
H    3.3613273    5.5292551  -10.5219287  
H    2.9770850    3.7351606   -9.0831867  
H    3.8279428   -1.3537264   -8.6065468  
C    3.9370510   -0.7184256   -4.5079536  
C    4.0728530   -0.4678097   -5.8537679  
C    3.0407725    0.4489881   -6.2127829  
C    2.3004121    0.7244272   -5.0346798  
N    2.8699641   -0.0020530   -4.0185824  
C    1.2042089    1.5920522   -5.0158721  
C    0.8491098    2.1927979   -6.2080079  
O   -0.2131497    3.0490482   -6.2461266  
C    1.5752116    1.9303427   -7.3940558  
O    1.0977498    2.6047551   -8.4988369  
C    2.6565828    1.0743119   -7.4134046  
H    4.8227831   -0.8942698   -6.4977637  
H    0.6357060    1.8060551   -4.1213280  
H   -0.2873078    3.3515868   -7.1605858  
H    1.6432278    2.3720959   -9.2564162  
H    4.5160563   -1.3526089   -3.8587048  
C    3.2573670   -0.0002921   -1.5109382  
C    2.5379468   -0.0001711   -0.3591962  
C    1.1435043    0.0000330   -0.7338498  
C    1.1092608   -0.0000085   -2.2088474  
N    2.4227562    0.0001906   -2.6182610  
C   -0.0265533   -0.0002525   -2.9515663  
C   -1.3003033   -0.0002641   -2.2514979  
O   -2.3786785   -0.0004132   -2.8306425  
C   -1.2877724    0.0000310   -0.6895608  
O   -2.3539956    0.0003306   -0.0892035  
C    0.0000000    0.0000000    0.0000000  
H    2.9384091   -0.0000370    0.6389240  
H   -0.0296290   -0.0004088   -4.0327231  
H    4.3270394   -0.0004767   -1.6439445  
C    0.8175213    0.6860729    2.3021913  
C    0.0000000    0.0000000    1.4700000  
C   -0.8887526   -0.7456559    2.3478473  
C   -0.4549825   -0.3816753    3.7138435  
N    0.5448156    0.4573574    3.6934124  
C   -1.0945674   -0.9182058    4.8835240  
C   -2.1210866   -1.7789155    4.6970523  
O   -2.8083856   -2.3554314    5.6976972  
C   -2.5824069   -2.1655116    3.3310774  
O   -3.5227682   -2.9541547    3.2362962  
C   -1.9100805   -1.6015804    2.1470656  
H   -0.7567140   -0.6349833    5.8697035  
H   -3.4728268   -2.9124471    5.2533954  
H   -2.2742832   -1.9066565    1.1752040  
H    1.6189533    1.3585343    2.0405121  
