60

C   -4.7144546    2.9357727    1.0042885  
C   -3.7378791    3.6346374    1.6753740  
C   -4.3908077    4.3845540    2.6980714  
C   -5.7771558    4.1004892    2.6017720  
N   -5.9392745    3.2189901    1.5619202  
C   -6.7265828    4.6677945    3.4570745  
C   -6.2681141    5.5374721    4.4274576  
O   -7.1522205    6.1193495    5.2893105  
C   -4.8887764    5.8337259    4.5391613  
O   -4.5906974    6.7180349    5.5552762  
C   -3.9516107    5.2746424    3.6955552  
H   -2.6846083    3.6081395    1.4542139  
H   -6.8147669    2.8291856    1.2626775  
H   -7.7846314    4.4554929    3.3887864  
H   -6.6309241    6.6820442    5.8765838  
H   -3.6398046    6.8641868    5.5620888  
H   -2.9018790    5.5206707    3.8051505  
C   -4.6051146    2.0113809   -0.1334481  
C   -3.4864971    1.6298266   -0.7927589  
C   -3.9518793    0.7119511   -1.8210700  
C   -5.4173874    0.6533631   -1.6328192  
N   -5.8061458    1.4130855   -0.6450553  
C   -6.2597396   -0.1589834   -2.4668584  
C   -5.6651267   -0.8797261   -3.4447642  
O   -6.3285773   -1.6802771   -4.2962291  
C   -4.1885399   -0.8414365   -3.6601389  
O   -3.7155091   -1.5233211   -4.5692573  
C   -3.3460097   -0.0004262   -2.7913647  
H   -2.4709777    1.9337813   -0.6045897  
H   -7.3277598   -0.1829238   -2.3066431  
H   -5.6384854   -2.0553379   -4.8726449  
C    0.0000000    0.0000000    0.0000000  
C    1.0662919   -0.0000103   -0.8334272  
C    0.4961868    0.0000066   -2.1718889  
C   -0.9663860   -0.0000849   -1.9540248  
N   -1.2632775   -0.0000084   -0.6828659  
C   -1.8985364   -0.0000515   -3.0477258  
C   -1.3925778    0.0004567   -4.3020543  
O   -2.1456385    0.0005412   -5.4151314  
C    0.0786229    0.0009326   -4.5544999  
O    0.4683756    0.0012594   -5.7221104  
C    1.0143162    0.0008443   -3.4159034  
H    2.1107195    0.0000631   -0.5721869  
H   -1.5042277    0.0009692   -6.1484420  
H    2.0724151    0.0013151   -3.6409746  
C    0.0000000    0.0000000    1.4700000  
C    1.0541688    0.0001722    2.3260392  
C    0.5103138    0.0000454    3.6635956  
C   -0.9576371   -0.0002459    3.5155732  
N   -1.2018458    0.0001392    2.1615969  
C   -1.8348311   -0.0008317    4.5510609  
C   -1.2972847   -0.0009736    5.9014604  
O   -2.0050672   -0.0014265    6.9001319  
C    0.2542623   -0.0004184    6.0817573  
O    0.7184670   -0.0002256    7.2139121  
C    1.0974552   -0.0000873    4.8889129  
H    2.0940752    0.0005483    2.0517982  
H   -2.9081052   -0.0011668    4.4207061  
H    2.1707277    0.0000911    5.0223670  
H   -2.1128194   -0.0014912    1.7406791  
