62

C    1.5672959   -1.1099781   -7.2542752  
C    2.5510993   -1.9942768   -6.8766330  
C    3.3450128   -2.2526406   -8.0331578  
C    2.7932924   -1.4914320   -9.0952747  
N    1.7140868   -0.8108598   -8.5885652  
C    3.3243547   -1.5018482  -10.3885854  
C    4.4327468   -2.2949162  -10.6137248  
O    4.9917666   -2.3419259  -11.8580323  
C    4.9973796   -3.0618885   -9.5669395  
O    6.0980745   -3.8001373   -9.9500850  
C    4.4738346   -3.0523069   -8.2908772  
H    2.6799425   -2.4037094   -5.8893350  
H    1.1297771   -0.1804790   -9.1073933  
H    2.9084321   -0.9240764  -11.2024590  
H    5.7429100   -2.9463707  -11.7972456  
H    6.4180688   -4.2883318   -9.1853150  
H    4.9278111   -3.6504093   -7.5094326  
C    0.2315707   -0.7260330   -5.1498919  
C    0.4808480   -0.5092810   -6.4670686  
C   -0.5209812    0.4176789   -6.9381511  
C   -1.3804948    0.7254271   -5.7791349  
N   -0.8712826    0.0001710   -4.7267111  
C   -2.4455050    1.5658368   -5.8133218  
C   -2.7667993    2.2100973   -7.0759516  
O   -3.7062213    2.9834467   -7.2090626  
C   -1.8701895    1.8985555   -8.3164504  
O   -2.1311485    2.4348231   -9.3848975  
C   -0.7493902    0.9755954   -8.1558109  
H   -3.0629932    1.7780163   -4.9515804  
H   -0.1333307    0.7653459   -9.0195185  
H    0.7606203   -1.3553539   -4.4527902  
C    1.0965514    0.0001359   -0.8010305  
C    0.0000000    0.0000000    0.0000000  
C   -1.1546563    0.0001470   -0.8669513  
C   -0.6372014    0.0003519   -2.2486282  
N    0.7342871    0.0007337   -2.1395014  
C   -1.4147739    0.0001352   -3.3608717  
C   -2.8576049   -0.0001048   -3.1854462  
O   -3.6427779   -0.0002494   -4.1244907  
C   -3.4275840   -0.0000725   -1.7311666  
O   -4.6406831    0.0000333   -1.5710060  
C   -2.4891867   -0.0001091   -0.6116744  
H   -2.8919122   -0.0002918    0.3920866  
H    2.1388272    0.0000663   -0.5261648  
H    1.3735872   -0.0006099   -2.9130262  
C    0.0000000    0.0000000    1.4700000  
C    1.0521667    0.0011902    2.3562342  
C    0.4917218    0.0011957    3.6679131  
C   -0.9187428   -0.0003148    3.5178682  
N   -1.1833171    0.0009411    2.1707914  
C   -1.7951701   -0.0010350    4.6072090  
C   -1.2375837   -0.0005224    5.8710424  
O   -2.0474215   -0.0015360    6.9697579  
C    0.1673580    0.0013566    6.0411963  
O    0.5673524    0.0020687    7.3615553  
C    1.0325770    0.0023412    4.9669890  
H    2.0953057    0.0030649    2.0900562  
H   -2.0989778   -0.0102372    1.7591824  
H   -2.8710934   -0.0020419    4.4995513  
H   -1.4634884   -0.0006497    7.7393593  
H    1.5290710    0.0033153    7.3880045  
H    2.1042148    0.0039609    5.1284455  
