64

C    6.9446007    2.1278529   -5.0830071  
C    7.8715342    1.6302271   -5.9693646  
C    8.7242587    0.7556292   -5.2327912  
C    8.2650229    0.7593079   -3.8907724  
N    7.1845039    1.6042289   -3.8341620  
C    8.8722118    0.0058682   -2.8815952  
C    9.9626782   -0.7655692   -3.2336540  
O   10.5930556   -1.5209265   -2.2875704  
C   10.4359614   -0.7821756   -4.5672752  
O   11.5306490   -1.5997661   -4.7584532  
C    9.8376121   -0.0389303   -5.5633118  
H    7.9270241    1.8691567   -7.0176140  
H    6.6430562    1.7996371   -3.0115862  
H   11.3172299   -1.9744671   -2.7382775  
H   11.7866630   -1.5536205   -5.6846992  
H   10.2226268   -0.0716971   -6.5758169  
H    6.1321980    2.8159749   -5.2425310  
C    4.7795901    0.0008674   -1.0815733  
C    5.8357356    0.0020685   -1.9630619  
C    7.0295751    0.0025484   -1.1824551  
C    6.6358520    0.0013023    0.1802287  
N    5.2632774    0.0022529    0.2058246  
C    7.5556549    0.0010648    1.2332011  
C    8.8973613    0.0017971    0.9045656  
O    9.8380076    0.0012544    1.8936035  
C    9.3099221    0.0034181   -0.4491731  
O   10.6798047    0.0043993   -0.6127738  
C    8.4030660    0.0039266   -1.4884698  
H    5.7555549    0.0036461   -3.0366361  
H    4.6982920   -0.0088382    1.0356739  
H    7.2620116    0.0002617    2.2738619  
H   10.6976507    0.0022212    1.4528337  
H   10.8735674    0.0054449   -1.5551424  
C    3.3321168    0.0004716   -1.3379341  
C    2.6974177    0.0000118   -2.5332316  
C    1.2800432   -0.0002116   -2.2052842  
C    1.2395033    0.0000644   -0.7271298  
N    2.4394059    0.0005460   -0.2131041  
C    0.0000000    0.0000000    0.0000000  
C   -1.1468704    0.0000635   -0.7169542  
O   -2.3742206    0.0000074   -0.1695488  
C   -1.1388774    0.0001608   -2.2096352  
O   -2.2206238    0.0000906   -2.7970409  
C    0.1454514    0.0001818   -2.9324241  
H    3.1367978   -0.0000649   -3.5160956  
H   -2.9844350    0.0001027   -0.9290164  
H    0.1083567    0.0003684   -4.0135594  
C    0.8676693    0.7151171    2.2619005  
C    0.5875920    0.4624972    3.5848544  
C   -0.5048400   -0.4542819    3.6114698  
C   -0.8517165   -0.7276451    2.2635546  
N    0.0000000    0.0000000    1.4700000  
C   -1.8902865   -1.5946756    1.9108239  
C   -2.5912627   -2.1969500    2.9375057  
O   -3.6148162   -3.0527051    2.6493466  
C   -2.2603868   -1.9365747    4.2886322  
O   -3.0513550   -2.6123276    5.1947621  
C   -1.2361111   -1.0811317    4.6373480  
H    1.1060808    0.8876438    4.4271209  
H   -2.1597133   -1.8070987    0.8854031  
H   -3.9636755   -3.3565188    3.4974381  
H   -2.7621927   -2.3810384    6.0827341  
H   -1.0058879   -0.9010589    5.6809233  
H    1.6167816    1.3499334    1.8205408  
