62

C   -6.8591837   -0.0028490   -5.4777161  
C   -5.8769211   -0.0043371   -6.4408498  
C   -6.5347863   -0.0053944   -7.7064763  
C   -7.9298994   -0.0041891   -7.4503831  
N   -8.0920270   -0.0046071   -6.0871775  
C   -8.8860611   -0.0044611   -8.4704542  
C   -8.4254740   -0.0056704   -9.7727727  
O   -9.3159439   -0.0056361  -10.8072183  
C   -7.0373854   -0.0072595  -10.0485002  
O   -6.7382070   -0.0087522  -11.3952870  
C   -6.0935426   -0.0072655   -9.0426744  
H   -4.8166641   -0.0057301   -6.2541772  
H   -8.9740053    0.0065864   -5.6076262  
H   -9.9507874   -0.0036915   -8.2818819  
H   -8.7917742   -0.0068762  -11.6187046  
H   -5.7812291   -0.0097394  -11.4942613  
H   -5.0371504   -0.0086855   -9.2845674  
C   -3.3460096   -0.0004265   -2.7913646  
C   -4.0351702    0.0002975   -1.6007663  
C   -5.4244873    0.0000966   -1.9238723  
C   -5.5227199   -0.0010536   -3.3388900  
N   -4.2424267    0.0006062   -3.8343331  
C   -6.7482118   -0.0018514   -4.0119108  
C   -7.8954377   -0.0017884   -3.2424625  
O   -9.1185481   -0.0028970   -3.8482795  
C   -7.8179698   -0.0002733   -1.8293760  
O   -9.0483375    0.0000109   -1.2052468  
C   -6.6093336    0.0007876   -1.1647523  
H   -3.5911529    0.0020019   -0.6200324  
H   -3.9968101   -0.0102582   -4.8077478  
H   -9.7745204   -0.0023404   -3.1390800  
H   -8.9066633    0.0010310   -0.2536526  
H   -6.5814276    0.0021214   -0.0813786  
C    0.0000000    0.0000000    0.0000000  
C    1.0662919   -0.0000103   -0.8334269  
C    0.4961869    0.0000064   -2.1718889  
C   -0.9663859   -0.0000850   -1.9540246  
N   -1.2632774   -0.0000084   -0.6828657  
C   -1.8985363   -0.0000518   -3.0477257  
C   -1.3925778    0.0004564   -4.3020545  
O   -2.1456384    0.0005409   -5.4151311  
C    0.0786230    0.0009323   -4.5544998  
O    0.4683758    0.0012588   -5.7221098  
C    1.0143164    0.0008442   -3.4159030  
H    2.1107195    0.0000633   -0.5721867  
H   -1.5042275    0.0009691   -6.1484418  
H    2.0724152    0.0013148   -3.6409744  
C    1.0672568    0.0000697    2.3021913  
C    0.0000000    0.0000000    1.4700000  
C   -1.1601224    0.0000736    2.3478473  
C   -0.5938729    0.0000769    3.7138435  
N    0.7113367    0.0001554    3.6934124  
C   -1.4286986    0.0001879    4.8835240  
C   -2.7683114    0.0006799    4.6970523  
O   -3.6653903    0.0008304    5.6976972  
C   -3.3702025    0.0010610    3.3310774  
O   -4.5974910    0.0013779    3.2362962  
C   -2.4926826    0.0008943    2.1470656  
H   -0.9878360   -0.0000190    5.8697035  
H   -4.5324246    0.0012261    5.2533954  
H   -2.9677772    0.0012974    1.1752040  
H    2.1134392    0.0000545    2.0405121  
