60

C    8.1059680   -5.6137860   -6.3127924  
C    8.8644955   -5.1798460   -7.3752423  
C    8.6035916   -3.7862405   -7.5314238  
C    7.6702662   -3.4224285   -6.5271975  
N    7.3878457   -4.5559788   -5.8061429  
C    7.1853688   -2.1191540   -6.3818050  
C    7.6513738   -1.1657136   -7.2660947  
O    7.2109986    0.1225483   -7.1688127  
C    8.5824296   -1.5093269   -8.2749976  
O    8.9497768   -0.4485522   -9.0769670  
C    9.0610163   -2.7948965   -8.4191865  
H    9.5238210   -5.7926296   -7.9658172  
H    6.7643136   -4.6038646   -5.0207157  
H    7.6541599    0.6163507   -7.8709745  
H    9.5798895   -0.7657638   -9.7311365  
H    9.7735999   -3.0281820   -9.2016696  
H    8.0192929   -6.5944595   -5.8772175  
C    6.1745029   -2.1408800   -4.0544034  
C    6.2180775   -1.7334918   -5.3442539  
C    5.0926412   -0.8229053   -5.4882169  
C    4.4611847   -0.7965391   -4.1513727  
N    5.0910257   -1.5671311   -3.3066964  
C    3.2973506   -0.0000934   -3.8752374  
C    2.7877444    0.7368257   -4.8884434  
O    1.7057652    1.5254555   -4.7725803  
C    3.4025815    0.7316574   -6.2486306  
O    2.8855805    1.4266378   -7.1232349  
C    4.5959743   -0.0936240   -6.5067945  
H    1.5889229    1.9175677   -5.6567458  
H    5.0113657   -0.0697227   -7.5053481  
H    6.8407164   -2.8229592   -3.5505179  
C    3.3321174    0.0004714   -1.3379332  
C    2.6974186    0.0000115   -2.5332308  
C    1.2800441   -0.0002119   -2.2052838  
C    1.2395035    0.0000643   -0.7271293  
N    2.4394063    0.0005458   -0.2131034  
C    0.0000000    0.0000000    0.0000000  
C   -1.1468701    0.0000634   -0.7169542  
O   -2.3742201    0.0000072   -0.1695492  
C   -1.1388767    0.0001606   -2.2096354  
O   -2.2206229    0.0000903   -2.7970413  
C    0.1454526    0.0001815   -2.9324239  
H   -2.9844344    0.0001023   -0.9290168  
H    0.1083580    0.0003680   -4.0135594  
H    4.3940040    0.0007617   -1.1498630  
C    0.0000000    0.0000000    1.4700000  
C    1.0662921    0.0000102    2.3034270  
C    0.4961870   -0.0000064    3.6418889  
C   -0.9663858    0.0000850    3.4240247  
N   -1.2632773    0.0000084    2.1528658  
C   -1.8985362    0.0000517    4.5177257  
C   -1.3925775   -0.0004564    5.7720543  
O   -2.1456383   -0.0005410    6.8851312  
C    0.0786232   -0.0009323    6.0245000  
O    0.4683759   -0.0012588    7.1921102  
C    1.0143166   -0.0008442    4.8859032  
H    2.1107198   -0.0000632    2.0421868  
H   -2.9622183    0.0003270    4.3293377  
H   -1.5042274   -0.0009692    7.6184419  
H    2.0724152   -0.0013148    5.1109744  
