60

C    6.8894657    0.1892331   -4.3681675  
C    7.9004958   -0.4686029   -3.7067020  
C    9.1251799   -0.0798879   -4.3260975  
C    8.7959216    0.8244779   -5.3680370  
N    7.4302430    0.9642479   -5.3672976  
C    9.7603158    1.4119863   -6.1923952  
C   11.0811802    1.0807390   -5.9605053  
O   12.0634119    1.6258807   -6.7357826  
C   11.4295767    0.1800778   -4.9259785  
O   12.7860719   -0.0488119   -4.8216959  
C   10.4786834   -0.4001005   -4.1125168  
H    7.7711264   -1.1462303   -2.8802170  
H    6.9067094    1.5523286   -5.9902380  
H    9.5158636    2.1018866   -6.9883117  
H   12.8990673    1.2666634   -6.4103481  
H   12.9355700   -0.6672657   -4.1000527  
H   10.7757182   -1.0865457   -3.3282709  
C    4.5414472   -2.0136864   -1.4319367  
C    3.2784306   -1.6314301   -1.7323497  
C    3.4206903   -0.7132107   -2.8517851  
C    4.8766551   -0.6552126   -3.1035523  
N    5.5387695   -1.4155493   -2.2744069  
C    5.4363359    0.1572550   -4.1484162  
C    4.5803865    0.8786770   -4.9075175  
O    4.9639647    1.6794178   -5.9163398  
C    3.1058537    0.8409940   -4.6783999  
O    2.3863360    1.5234829   -5.4075938  
C    2.5562217   -0.0001543   -3.6003001  
H    2.3632541   -1.9351318   -1.2535048  
H    4.1348743    2.0549943   -6.2637662  
H    4.8636452   -2.6922675   -0.6581867  
C    0.0000000    0.0000000    0.0000000  
C    1.0541688   -0.0001719   -0.8560391  
C    0.5103141   -0.0000449   -2.1935955  
C   -0.9576367    0.0002461   -2.0455733  
N   -1.2018459   -0.0001392   -0.6915970  
C   -1.8348306    0.0008319   -3.0810611  
C   -1.2972842    0.0009739   -4.4314605  
O   -2.0050664    0.0014267   -5.4301321  
C    0.2542628    0.0004190   -4.6117571  
O    0.7184677    0.0002263   -5.7439119  
C    1.0974556    0.0000880   -3.4189127  
H    2.0940752   -0.0005479   -0.5817978  
H   -2.9081050    0.0011669   -2.9507065  
H   -2.1128195    0.0014911   -0.2706793  
C    3.2798086   -0.0005857    2.9199648  
C    2.5571146   -0.0005566    4.0696553  
C    1.1637436   -0.0001548    3.6910360  
C    1.1336965    0.0000200    2.2159470  
N    2.4483514    0.0001428    1.8102719  
C    0.0000000    0.0000000    1.4700000  
C   -1.2757367    0.0000186    2.1664417  
O   -2.3524596    0.0000640    1.5842315  
C   -1.2676493    0.0000873    3.7284083  
O   -2.3355761    0.0004100    4.3257297  
C    0.0181563   -0.0001760    4.4216297  
H    2.9547357   -0.0006076    5.0689105  
H    0.0150794   -0.0003319    5.5031631  
H    4.3498549   -0.0008612    2.7900019  
H    2.7563627   -0.0012824    0.8551938  
