62

C    4.9891240   -1.0885211   -8.8254228  
C    5.3875903   -0.7142240  -10.0877988  
C    5.1535272    0.6883916  -10.1995282  
C    4.6069386    1.1189048   -8.9634753  
N    4.5186884    0.0147540   -8.1525001  
C    4.2530274    2.4485309   -8.7152210  
C    4.4548487    3.3602192   -9.7331948  
O    4.1270513    4.6716433   -9.5441763  
C    4.9987059    2.9499129  -10.9736326  
O    5.1382451    3.9754629  -11.8858381  
C    5.3478247    1.6383215  -11.2193352  
H    5.7956222   -1.3714991  -10.8364595  
H    3.8358669    2.7830124   -7.7753797  
H    4.3446792    5.1288049  -10.3669195  
H    5.5116373    3.6137468  -12.6953717  
H    5.7621101    1.3537659  -12.1794766  
H    5.0019356   -2.0554474   -8.3522974  
C    5.8883842   -2.0954747   -4.5533056  
C    4.9762278   -1.6321311   -3.6603566  
C    4.1010834   -0.7362692   -4.3789590  
C    4.5815872   -0.7155465   -5.7737625  
N    5.6672534   -1.5597493   -5.8130036  
C    4.0183667    0.0134743   -6.7702645  
C    2.8618714    0.8325281   -6.4474559  
O    2.2840249    1.5248514   -7.2751536  
C    2.3361185    0.8260250   -4.9766243  
O    1.3633192    1.5118827   -4.6928615  
C    3.0267438   -0.0008951   -3.9901699  
H    4.9226750   -1.8885072   -2.6172757  
H    6.7036720   -2.7830650   -4.3970508  
H    6.2134533   -1.7579038   -6.6312014  
C    3.3003547    0.0005277   -1.4738986  
C    2.5232816    0.0003497   -2.6090746  
C    1.1623203   -0.0001319   -2.1820102  
C    1.1711884    0.0000584   -0.7636141  
N    2.4852301   -0.0014919   -0.3662359  
C    0.0000000    0.0000000    0.0000000  
C   -1.2020383    0.0000520   -0.6806479  
O   -2.3759248    0.0003493    0.0157745  
C   -1.2314655   -0.0005115   -2.0955511  
O   -2.5054388   -0.0008040   -2.6250184  
C   -0.0764513   -0.0007274   -2.8495195  
H    2.8036266    0.0088183    0.5858662  
H   -3.0835639    0.0000346   -0.6418822  
H   -2.4360043   -0.0011529   -3.5845924  
H   -0.1304091   -0.0013423   -3.9319089  
H    4.3715553    0.0004897   -1.3667133  
C    0.8175213    0.6860729    2.3021913  
C    0.0000000    0.0000000    1.4700000  
C   -0.8887526   -0.7456559    2.3478473  
C   -0.4549825   -0.3816753    3.7138435  
N    0.5448156    0.4573574    3.6934124  
C   -1.0945674   -0.9182058    4.8835240  
C   -2.1210866   -1.7789155    4.6970523  
O   -2.8083856   -2.3554314    5.6976972  
C   -2.5824069   -2.1655116    3.3310774  
O   -3.5227682   -2.9541547    3.2362962  
C   -1.9100805   -1.6015804    2.1470656  
H   -0.7567140   -0.6349833    5.8697035  
H   -3.4728268   -2.9124471    5.2533954  
H   -2.2742832   -1.9066565    1.1752040  
H    1.6189533    1.3585343    2.0405121  
