62

C   -8.3922545    0.7379115   -2.7240819  
C   -8.0534696   -0.5258634   -3.1490114  
C   -9.1810770   -1.3640753   -2.9030388  
C  -10.1864920   -0.5493698   -2.3222449  
N   -9.6740295    0.7205647   -2.2259834  
C  -11.4392428   -1.0450909   -1.9485267  
C  -11.6815538   -2.3876464   -2.1653411  
O  -12.8881840   -2.9236944   -1.8193503  
C  -10.6909343   -3.2167757   -2.7432992  
O  -11.0843755   -4.5304749   -2.8941030  
C   -9.4547462   -2.7284708   -3.1119759  
H  -10.1634860    1.5178223   -1.8615752  
H  -12.2097470   -0.4294124   -1.5052840  
H  -12.8476069   -3.8604376   -2.0520063  
H  -10.3584718   -5.0217547   -3.2907274  
H   -8.7158920   -3.3877706   -3.5523129  
H   -7.8204782    1.6499960   -2.7355781  
C   -4.0038810    0.6892344   -2.0945597  
C   -3.2578655    0.0024282   -2.9908505  
C   -4.2205387   -0.7423515   -3.7877591  
C   -5.5362170   -0.3771143   -3.2201536  
N   -5.4155555    0.4618406   -2.2273872  
C   -6.7642688   -0.9125093   -3.7400838  
C   -6.6817368   -1.7733335   -4.7800375  
O   -7.7463803   -2.3488702   -5.3642737  
C   -5.3688438   -2.1611851   -5.3750536  
O   -5.3689003   -2.9498618   -6.3201509  
C   -4.1232465   -1.5984046   -4.8239722  
H   -7.3709642   -2.9062640   -6.0696295  
H   -3.1927619   -1.9043717   -5.2831166  
H   -3.6630768    1.3614030   -1.3231875  
C    0.0000000    0.0000000    0.0000000  
C    1.0521666   -0.0011982   -0.8862343  
C    0.4917215   -0.0011996   -2.1979132  
C   -0.9187429    0.0003215   -2.0478682  
N   -1.1833171   -0.0009323   -0.7007913  
C   -1.7951703    0.0010483   -3.1372089  
C   -1.2375841    0.0005313   -4.4010422  
O   -2.0474218    0.0015510   -5.4997578  
C    0.1673576   -0.0013585   -4.5711963  
O    0.5673520   -0.0020735   -5.8915554  
C    1.0325768   -0.0023493   -3.4969892  
H    2.0953056   -0.0030808   -0.6200564  
H   -2.0989778    0.0102529   -0.2891822  
H   -1.4634888    0.0006601   -6.2693595  
H    1.5290707   -0.0033271   -5.9180047  
H    2.1042146   -0.0039770   -3.6584456  
C    3.2573670    0.0002920    2.9809380  
C    2.5379467    0.0001709    1.8291961  
C    1.1435042   -0.0000331    2.2038498  
C    1.1092607    0.0000083    3.6788474  
N    2.4227561   -0.0001909    4.0882609  
C   -0.0265533    0.0002524    4.4215661  
C   -1.3003036    0.0002640    3.7214979  
O   -2.3786784    0.0004133    4.3006425  
C   -1.2877726   -0.0000311    2.1595606  
O   -2.3539958   -0.0003306    1.5592035  
C    0.0000000    0.0000000    1.4700000  
H    2.9384090    0.0000368    0.8310761  
H   -0.0296291    0.0004086    5.5027230  
H    4.3270393    0.0004765    3.1139444  
H    2.7280493    0.0013407    5.0442112  
