60

C   -4.4384978    2.1219814   -4.6241148  
C   -5.6385858    1.6230943   -5.0750786  
C   -5.3436785    0.7490170   -6.1630208  
C   -3.9352672    0.7542988   -6.3311758  
N   -3.4166354    1.5996324   -5.3819393  
C   -3.2883813    0.0017550   -7.3160641  
C   -4.0776322   -0.7704184   -8.1461297  
O   -3.4976514   -1.5249555   -9.1245522  
C   -5.4845532   -0.7886232   -7.9942781  
O   -6.1306165   -1.6067767   -8.8979201  
C   -6.1234207   -0.0462624   -7.0230541  
H   -6.6074739    1.8608704   -4.6704656  
H   -2.4408479    1.7961078   -5.2507248  
H   -4.2173060   -1.9792199   -9.5817235  
H   -7.0763108   -1.5617178   -8.7269361  
H   -7.2026949   -0.0802512   -6.9309193  
H   -4.2307136    2.8101947   -3.8227748  
C    0.0139742    0.0003878   -4.4216236  
C    1.0657034    0.0004476   -5.2806583  
C    0.5180451    0.0007112   -6.6166624  
C   -0.9494787    0.0008302   -6.4644642  
N   -1.1898345    0.0002249   -5.1097987  
C   -1.8296152    0.0014750   -7.4974515  
C   -1.2959129    0.0018670   -8.8493753  
O   -2.0065337    0.0023910   -9.8460291  
C    0.2551150    0.0014974   -9.0340855  
O    0.7160969    0.0015157  -10.1675560  
C    1.1016984    0.0010811   -7.8436448  
H    2.1063859    0.0001391   -5.0093774  
H    2.1745868    0.0010324   -7.9801520  
H   -2.0996068    0.0017007   -4.6862906  
C    3.2798085    0.0005856   -1.4499646  
C    2.5571146    0.0005565   -2.5996553  
C    1.1637435    0.0001548   -2.2210360  
C    1.1336964   -0.0000200   -0.7459470  
N    2.4483515   -0.0001429   -0.3402716  
C    0.0000000    0.0000000    0.0000000  
C   -1.2757368   -0.0000187   -0.6964415  
O   -2.3524594   -0.0000640   -0.1142314  
C   -1.2676495   -0.0000873   -2.2584081  
O   -2.3355761   -0.0004101   -2.8557295  
C    0.0181563    0.0001759   -2.9516296  
H    2.9547358    0.0006075   -3.5989104  
H    4.3498547    0.0008611   -1.3200019  
H    2.7563628    0.0012823    0.6148064  
C    0.0000000    0.0000000    1.4700000  
C    1.0662921    0.0000102    2.3034270  
C    0.4961870   -0.0000064    3.6418889  
C   -0.9663858    0.0000850    3.4240247  
N   -1.2632773    0.0000084    2.1528658  
C   -1.8985362    0.0000517    4.5177257  
C   -1.3925775   -0.0004564    5.7720543  
O   -2.1456383   -0.0005410    6.8851312  
C    0.0786232   -0.0009323    6.0245000  
O    0.4683759   -0.0012588    7.1921102  
C    1.0143166   -0.0008442    4.8859032  
H    2.1107198   -0.0000632    2.0421868  
H   -2.9622183    0.0003270    4.3293377  
H   -1.5042274   -0.0009692    7.6184419  
H    2.0724152   -0.0013148    5.1109744  
