64

C    5.4344911   -3.6311459   -1.0745419  
C    6.5284145   -4.4425008   -0.8808867  
C    7.3177614   -4.3671994   -2.0665765  
C    6.6498707   -3.4869983   -2.9560112  
N    5.5090647   -3.0595672   -2.3231753  
C    7.1445887   -3.1765025   -4.2263010  
C    8.3353837   -3.7650536   -4.6055033  
O    8.8635794   -3.4962889   -5.8350505  
C    9.0163928   -4.6462326   -3.7322522  
O   10.1887656   -5.1513659   -4.2554426  
C    8.5287895   -4.9532097   -2.4790430  
H    6.7318197   -5.0187069    0.0054583  
H    6.6402693   -2.5065429   -4.9089557  
H    9.6842716   -4.0022448   -5.8961929  
H   10.5856912   -5.7365384   -3.6030418  
H    9.0725104   -5.6318122   -1.8322471  
H    4.6062258   -3.4160589   -0.4213405  
C    4.5278027   -2.1194571   -2.8837265  
C    3.3823329   -1.6458105   -2.3290795  
C    2.7856145   -0.7523485   -3.2936976  
C    3.6837616   -0.7442612   -4.4641918  
N    4.7207730   -1.5927448   -4.1518260  
C    3.4699941   -0.0209495   -5.5923882  
C    2.2757340    0.8048556   -5.6581402  
O    1.9943433    1.4928400   -6.6306611  
C    1.3106478    0.8117466   -4.4299839  
O    0.3021851    1.5033786   -4.4736755  
C    1.6478437   -0.0100096   -3.2702997  
H    2.9992254   -1.8938567   -1.3552646  
H    4.1413736   -0.0292827   -6.4397904  
H    5.4970599   -1.7992790   -4.7532993  
C    1.1188642    0.0008224   -0.8003808  
C    0.0000000    0.0000000    0.0000000  
C   -1.1323861    0.0008899   -0.8673529  
C   -0.6382661    0.0019681   -2.1969282  
N    0.7324017    0.0038483   -2.1202240  
C   -1.4770912    0.0027320   -3.3154810  
C   -2.8395474    0.0020946   -3.0876860  
O   -3.7039199    0.0024426   -4.1440353  
C   -3.3517867    0.0013927   -1.7684331  
O   -4.7300496    0.0012363   -1.7073125  
C   -2.5248543    0.0009121   -0.6644818  
H   -1.1067568    0.0036992   -4.3313814  
H   -4.5940031    0.0021828   -3.7685133  
H   -4.9934602    0.0007260   -0.7819919  
H   -2.9462579    0.0005600    0.3339656  
H    2.1619896    0.0009357   -0.5342065  
C    2.5285572    2.1210227    2.9438989  
C    1.9331703    1.6216660    4.0790748  
C    0.8903039    0.7472258    3.6520102  
C    0.8972198    0.7527806    2.2336141  
N    1.9028376    1.5986179    1.8362361  
C    0.0000000    0.0000000    1.4700000  
C   -0.9207814   -0.7726952    2.1506477  
O   -1.8198395   -1.5274828    1.4542253  
C   -0.9436862   -0.7911793    3.5655508  
O   -1.9197945   -1.6098497    4.0950179  
C   -0.0590329   -0.0485852    4.3195194  
H    2.2150357    1.8593692    5.0905303  
H    2.1533708    1.7953814    0.8841339  
H   -2.3621246   -1.9821033    2.1118817  
H   -1.8668290   -1.5649508    5.0545920  
H   -0.1007624   -0.0827977    5.4019087  
H    3.3491200    2.8096064    2.8367138  
