60

C    0.8567936   -0.5408862   -9.6118153  
C    1.6475886   -0.4332103  -10.7323125  
C    1.5996472    0.9309640  -11.1462328  
C    0.7570038    1.6138861  -10.2321778  
N    0.3213397    0.6904730   -9.3145067  
C    0.4810458    2.9807176  -10.3341989  
C    1.0666376    3.6707746  -11.3777904  
O    0.8312293    5.0072638  -11.5240507  
C    1.9100223    3.0069453  -12.3002055  
O    2.4165313    3.8316440  -13.2833962  
C    2.1824867    1.6584970  -12.2003284  
H    2.1911528   -1.2390242  -11.1951259  
H   -0.1604248    3.5070495   -9.6408798  
H    1.3281327    5.2883522  -12.3033722  
H    2.9750161    3.3054930  -13.8637960  
H    2.8322790    1.1773555  -12.9219598  
H    0.6311993   -1.3989077   -9.0020075  
C    0.2908557   -0.7259189   -5.1324807  
C    0.5947739   -0.5089636   -6.4380995  
C   -0.3866753    0.4179345   -6.9504007  
C   -1.2937764    0.7254249   -5.8281676  
N   -0.8287665    0.0000939   -4.7555305  
C   -2.3565452    1.5657078   -5.9065966  
C   -2.6250319    2.2100942   -7.1814364  
O   -3.5581905    2.9833453   -7.3534798  
C   -1.6774703    1.8988251   -8.3835368  
O   -1.8937506    2.4352002   -9.4618622  
C   -0.5642193    0.9759823   -8.1764507  
H    1.4129887   -0.9482636   -6.9804582  
H   -3.0094325    1.7776989   -5.0713071  
H    0.7904798   -1.3552659   -4.4140187  
C    1.0672569   -0.0000698   -0.8321910  
C    0.0000000    0.0000000    0.0000000  
C   -1.1601223   -0.0000736   -0.8778472  
C   -0.5938729   -0.0000768   -2.2438435  
N    0.7113367   -0.0001553   -2.2234123  
C   -1.4286985   -0.0001877   -3.4135239  
C   -2.7683113   -0.0006798   -3.2270524  
O   -3.6653902   -0.0008302   -4.2276970  
C   -3.3702024   -0.0010610   -1.8610774  
O   -4.5974910   -0.0013779   -1.7662963  
C   -2.4926825   -0.0008943   -0.6770658  
H   -4.5324245   -0.0012258   -3.7833954  
H   -2.9677772   -0.0012974    0.2947961  
H    2.1134391   -0.0000547   -0.5705119  
C    0.0000000    0.0000000    1.4700000  
C    1.0662921    0.0000102    2.3034270  
C    0.4961870   -0.0000064    3.6418889  
C   -0.9663858    0.0000850    3.4240247  
N   -1.2632773    0.0000084    2.1528658  
C   -1.8985362    0.0000517    4.5177257  
C   -1.3925775   -0.0004564    5.7720543  
O   -2.1456383   -0.0005410    6.8851312  
C    0.0786232   -0.0009323    6.0245000  
O    0.4683759   -0.0012588    7.1921102  
C    1.0143166   -0.0008442    4.8859032  
H    2.1107198   -0.0000632    2.0421868  
H   -2.9622183    0.0003270    4.3293377  
H   -1.5042274   -0.0009692    7.6184419  
H    2.0724152   -0.0013148    5.1109744  
