62

C    1.8765335   -4.5839382   -7.2707944  
C    1.3049017   -3.4760371   -6.6891941  
C    1.3787263   -2.4194296   -7.6445634  
C    2.0105375   -2.9464248   -8.7999925  
N    2.3013998   -4.2623701   -8.5386398  
C    2.2500247   -2.1821939   -9.9460224  
C    1.8440367   -0.8619945   -9.9253881  
O    2.0530735   -0.0708667  -11.0178319  
C    1.2123501   -0.3178572   -8.7818398  
O    0.8677824    1.0112135   -8.9167018  
C    0.9760138   -1.0711313   -7.6508007  
H    0.8871972   -3.4342266   -5.6978475  
H    2.7432100   -4.8972689   -9.1787076  
H    2.7312281   -2.5778790  -10.8298096  
H    1.7000234    0.8004568  -10.7955352  
H    0.4470113    1.3005766   -8.1013344  
H    2.0160886   -5.5777005   -6.8810255  
C    0.6605682   -0.7024456   -5.1602328  
C   -0.1387079    0.0017019   -4.3179684  
C   -1.0653111    0.7443400   -5.1393883  
C   -0.7380204    0.4127270   -6.5392828  
N    0.3171090   -0.4684294   -6.4831128  
C   -1.3885286    0.9128903   -7.6201989  
C   -2.4839899    1.8398447   -7.3894267  
O   -3.1316443    2.3448509   -8.2970685  
C   -2.8477048    2.2053535   -5.9150050  
O   -3.7679152    2.9849438   -5.7083352  
C   -2.0739363    1.6016379   -4.8330332  
H   -1.1326586    0.6565863   -8.6388987  
H   -2.3322394    1.8597481   -3.8150046  
H    1.4717489   -1.3724717   -4.9258391  
C    3.3041273    0.0001178   -1.5420428  
C    2.5845373   -0.0004780   -0.3695851  
C    1.2040007   -0.0000007   -0.7283589  
C    1.1422374    0.0006038   -2.1454372  
N    2.4348641    0.0026111   -2.6077464  
C   -0.0655179    0.0008799   -2.8497918  
C   -1.2321766    0.0002325   -2.1101402  
O   -2.4392814    0.0001148   -2.7472522  
C   -1.1911209   -0.0000007   -0.6955266  
O   -2.4371528   -0.0002320   -0.1032862  
C    0.0000000    0.0000000    0.0000000  
H    3.0031533   -0.0000660    0.6222584  
H    2.7054631   -0.0071097   -3.5745261  
H   -3.1132988   -0.0000648   -2.0551787  
H   -2.3200282   -0.0004072    0.8516409  
H    4.3686625    0.0004073   -1.7024290  
C    2.4951002    2.0940188    2.9809380  
C    1.9440701    1.6314916    1.8291961  
C    0.8759964    0.7350050    2.2038498  
C    0.8497377    0.7130254    3.6788474  
N    1.8560616    1.5571714    4.0882609  
C   -0.0205033   -0.0168748    4.4215661  
C   -0.9962600   -0.8356168    3.7214979  
O   -1.8224391   -1.5286685    4.3006425  
C   -0.9864710   -0.8277881    2.1595606  
O   -1.8030528   -1.5133726    1.5592035  
C    0.0000000    0.0000000    1.4700000  
H    2.2509283    1.8888011    0.8310761  
H   -0.0229599   -0.0187323    5.5027230  
H    3.3143982    2.7817323    3.1139444  
H    2.0889452    1.7545833    5.0442112  
