60

C    3.4809096   -5.6244996   -7.6491221  
C    2.7898542   -4.6402211   -6.9812108  
C    2.9663075   -3.4329808   -7.7201519  
C    3.7809367   -3.7449017   -8.8386388  
N    4.0770922   -5.0833124   -8.7640363  
C    4.1599040   -2.7908063   -9.7877827  
C    3.7080306   -1.4983478   -9.6046473  
O    4.0479943   -0.5273793  -10.5016756  
C    2.8946680   -1.1674808   -8.4947900  
O    2.5262180    0.1613431   -8.4521818  
C    2.5206404   -2.1081499   -7.5578947  
H    2.2286275   -4.7754533   -6.0725139  
H    4.6314627   -5.5929270   -9.4280747  
H    4.7807014   -3.0221143  -10.6423641  
H    3.6347323    0.2885303  -10.1905950  
H    1.9791164    0.3004385   -7.6731214  
H    3.5968883   -6.6694548   -7.4176564  
C    1.7744462   -2.1336760   -5.1326802  
C    1.6746906   -1.7240761   -6.4187041  
C    0.5405881   -0.8130121   -6.4352716  
C    0.0614873   -0.7888183   -5.0365363  
N    0.7809200   -1.5609931   -4.2683222  
C   -1.0641734    0.0073898   -4.6315339  
C   -1.6828411    0.7461572   -5.5806429  
O   -2.7449527    1.5348085   -5.3440237  
C   -1.2228403    0.7432050   -7.0006961  
O   -1.8334833    1.4397964   -7.8113107  
C   -0.0658192   -0.0818758   -7.3911694  
H   -2.9590929    1.9284665   -6.2090843  
H    0.2361354   -0.0563403   -8.4296298  
H    2.4922209   -2.8167589   -4.7070387  
C    1.1319248    0.0015675   -0.8009270  
C    0.7969916    0.0034959   -2.1169404  
C   -0.6453336    0.0035703   -2.1842672  
C   -1.1266831    0.0015415   -0.7896027  
N    0.0000000    0.0000000    0.0000000  
C   -2.4346129    0.0013924   -0.4276297  
C   -3.4350110    0.0031352   -1.4820184  
O   -4.6384610    0.0030897   -1.2583919  
C   -2.9478958    0.0050460   -2.9661075  
O   -3.7809377    0.0062160   -3.8623775  
C   -1.5113821    0.0053068   -3.2312125  
H    1.4821240    0.0045436   -2.9459192  
H   -2.7664565    0.0000185    0.6013447  
H    2.1104318    0.0009428   -0.3488058  
C    2.4951002    2.0940188    2.9809380  
C    1.9440701    1.6314916    1.8291961  
C    0.8759964    0.7350050    2.2038498  
C    0.8497377    0.7130254    3.6788474  
N    1.8560616    1.5571714    4.0882609  
C   -0.0205033   -0.0168748    4.4215661  
C   -0.9962600   -0.8356168    3.7214979  
O   -1.8224391   -1.5286685    4.3006425  
C   -0.9864710   -0.8277881    2.1595606  
O   -1.8030528   -1.5133726    1.5592035  
C    0.0000000    0.0000000    1.4700000  
H    2.2509283    1.8888011    0.8310761  
H   -0.0229599   -0.0187323    5.5027230  
H    3.3143982    2.7817323    3.1139444  
H    2.0889452    1.7545833    5.0442112  
