60

C    6.6001509    0.0019432   -4.3713018  
C    7.6333548    0.0021445   -3.4630299  
C    7.0453158    0.0020498   -2.1634874  
C    5.6383368    0.0015002   -2.3433059  
N    5.4022898    0.0034000   -3.6956727  
C    4.7390844    0.0009612   -1.2727295  
C    5.2698384    0.0006705    0.0026047  
O    4.4369622   -0.0002078    1.0839608  
C    6.6708714    0.0015853    0.2024109  
O    7.0428739    0.0015757    1.5309279  
C    7.5585980    0.0023904   -0.8532718  
H    8.6818874    0.0034412   -3.7071041  
H    4.4955250   -0.0070442   -4.1265439  
H    5.0045013    0.0000319    1.8657301  
H    8.0038201    0.0021938    1.5776952  
H    8.6265856    0.0032634   -0.6692047  
H    6.6229014    0.0023217   -5.4476104  
C    3.2798077    0.0005856   -1.4499659  
C    2.5571132    0.0005565   -2.5996562  
C    1.1637425    0.0001548   -2.2210364  
C    1.1336957   -0.0000200   -0.7459472  
N    2.4483508   -0.0001429   -0.3402728  
C    0.0000000    0.0000000    0.0000000  
C   -1.2757370   -0.0000187   -0.6964410  
O   -2.3524597   -0.0000640   -0.1142306  
C   -1.2676501   -0.0000873   -2.2584079  
O   -2.3355772   -0.0004101   -2.8557287  
C    0.0181552    0.0001759   -2.9516296  
H    2.9547343    0.0006074   -3.5989115  
H    2.7563624    0.0012823    0.6148054  
C    0.0139724    0.0003878   -4.4216237  
C    1.0657011    0.0004477   -5.2806588  
C    0.5180423    0.0007113   -6.6166627  
C   -0.9494814    0.0008300   -6.4644636  
N   -1.1898365    0.0002246   -5.1097981  
C   -1.8296185    0.0014748   -7.4974505  
C   -1.2959168    0.0018667   -8.8493745  
O   -2.0065381    0.0023907   -9.8460280  
C    0.2551110    0.0014974   -9.0340857  
O    0.7160923    0.0015156  -10.1675564  
C    1.1016946    0.0010811   -7.8436454  
H    2.1063836    0.0001392   -5.0093781  
H   -2.9025173    0.0016805   -7.3640431  
H    2.1745831    0.0010325   -7.9801532  
H   -2.0996089    0.0017004   -4.6862894  
C    0.8681109    0.7263879    2.2709268  
C    0.6127770    0.5096195    3.5869401  
C   -0.4920590   -0.4175482    3.6542670  
C   -0.8620974   -0.7254003    2.2596025  
N    0.0000000    0.0000000    1.4700000  
C   -1.8641242   -1.5660088    1.8976294  
C   -2.6293522   -2.2103885    2.9520183  
O   -3.5512764   -2.9839180    2.7283916  
C   -2.2549728   -1.8987399    4.4361073  
O   -2.8923672   -2.4351063    5.3323774  
C   -1.1543735   -0.9755647    4.7012123  
H    1.1382914    0.9492124    4.4159191  
H   -2.1192137   -1.7782617    0.8686553  
H   -0.9013378   -0.7652422    5.7314848  
H    1.6172880    1.3558399    1.8188057  
