60

C   -3.7360894   -0.0009301   -7.0698328  
C   -4.3840180    0.0000959   -5.8563028  
C   -5.7835976    0.0000477   -6.1315783  
C   -5.9302948   -0.0013249   -7.5423950  
N   -4.6677437    0.0000613   -8.0814495  
C   -7.1781451   -0.0020530   -8.1729973  
C   -8.2983102   -0.0016902   -7.3646614  
O   -9.5414762   -0.0027183   -7.9281803  
C   -8.1724314    0.0000498   -5.9550632  
O   -9.3806749    0.0006217   -5.2891102  
C   -6.9417162    0.0010421   -5.3322751  
H   -3.9066316    0.0018985   -4.8913717  
H   -4.4556519   -0.0110026   -9.0627119  
H   -7.2966977   -0.0029552   -9.2477748  
H  -10.1727438   -0.0019452   -7.1969038  
H   -9.2064522    0.0017802   -4.3429343  
H   -6.8766767    0.0025532   -4.2504963  
C   -0.2963294   -0.0005341   -4.3948471  
C    0.7407565   -0.0008427   -5.2643478  
C    0.1250899   -0.0009653   -6.5824732  
C   -1.3291521   -0.0008025   -6.3145841  
N   -1.5822799   -0.0004688   -5.0339923  
C   -2.2982581   -0.0008138   -7.3756781  
C   -1.8356090   -0.0005910   -8.6466189  
O   -2.6263952   -0.0005808   -9.7332175  
C   -0.3739300   -0.0003763   -8.9493643  
O   -0.0244446   -0.0003034  -10.1296528  
C    0.6002566   -0.0004130   -7.8435231  
H    1.7935280   -0.0008808   -5.0390752  
H   -2.0105071   -0.0003709  -10.4880914  
H    1.6500152   -0.0001376   -8.1047447  
C    3.1301143   -0.0010313   -1.7028257  
C    2.5367765   -0.0002767   -0.4864669  
C    1.1089900    0.0001027   -0.7656184  
C    1.0177864   -0.0004150   -2.2415133  
N    2.1993571   -0.0011613   -2.7963824  
C   -0.2459220   -0.0002879   -2.9257116  
C   -1.3675327   -0.0000606   -2.1698519  
O   -2.6129319    0.0000866   -2.6748482  
C   -1.3083588    0.0000910   -0.6783229  
O   -2.3693264    0.0004206   -0.0541685  
C    0.0000000    0.0000000    0.0000000  
H    3.0096014   -0.0001008    0.4807517  
H   -3.1967445    0.0002093   -1.8949025  
H    4.1849272   -0.0015113   -1.9271980  
C    0.8681109    0.7263879    2.2709268  
C    0.6127770    0.5096195    3.5869401  
C   -0.4920590   -0.4175482    3.6542670  
C   -0.8620974   -0.7254003    2.2596025  
N    0.0000000    0.0000000    1.4700000  
C   -1.8641242   -1.5660088    1.8976294  
C   -2.6293522   -2.2103885    2.9520183  
O   -3.5512764   -2.9839180    2.7283916  
C   -2.2549728   -1.8987399    4.4361073  
O   -2.8923672   -2.4351063    5.3323774  
C   -1.1543735   -0.9755647    4.7012123  
H    1.1382914    0.9492124    4.4159191  
H   -2.1192137   -1.7782617    0.8686553  
H   -0.9013378   -0.7652422    5.7314848  
H    1.6172880    1.3558399    1.8188057  
