62

C    9.1522031   -0.0000270   -0.9838771  
C   10.1710852    0.0009291   -1.9081846  
C   11.3961116    0.0006314   -1.1774922  
C   11.0589375   -0.0008143    0.2002734  
N    9.6885884    0.0007702    0.2824714  
C   12.0213962   -0.0017779    1.2144042  
C   13.3484043   -0.0015800    0.8306987  
O   14.3290502   -0.0028406    1.7800899  
C   13.7047674    0.0002295   -0.5389066  
O   15.0667348    0.0006167   -0.7588803  
C   12.7558104    0.0014542   -1.5399075  
H   10.0466845    0.0028463   -2.9775368  
H    9.1583132   -0.0102907    1.1349189  
H   11.7709334   -0.0027371    2.2662929  
H   15.1697790   -0.0021508    1.3042321  
H   15.2214583    0.0018373   -1.7084397  
H   13.0590160    0.0030132   -2.5803601  
C    6.4260942    0.0030632   -4.5098896  
C    7.5522593    0.0028889   -3.7593365  
C    7.0848231    0.0018025   -2.3816563  
C    5.6099772    0.0015410   -2.4884881  
N    5.2179714    0.0021962   -3.7336068  
C    4.7630507    0.0004755   -1.3275395  
C    5.3622564   -0.0006826   -0.1149860  
O    4.6953711   -0.0017512    1.0517634  
C    6.8483164   -0.0008252    0.0256772  
O    7.3251007   -0.0017844    1.1605324  
C    7.6953859    0.0003256   -1.1803064  
H    8.5739863    0.0033404   -4.0986751  
H    5.3903103   -0.0024424    1.7345610  
H    6.3446838    0.0037693   -5.5852243  
C    3.3003548    0.0005276   -1.4738982  
C    2.5232817    0.0003497   -2.6090743  
C    1.1623204   -0.0001319   -2.1820101  
C    1.1711886    0.0000583   -0.7636140  
N    2.4852302   -0.0014919   -0.3662356  
C    0.0000000    0.0000000    0.0000000  
C   -1.2020379    0.0000520   -0.6806479  
O   -2.3759249    0.0003495    0.0157742  
C   -1.2314652   -0.0005112   -2.0955511  
O   -2.5054384   -0.0008036   -2.6250184  
C   -0.0764510   -0.0007271   -2.8495195  
H    2.8919962   -0.0005619   -3.6205297  
H    2.8036267    0.0088181    0.5858667  
H   -3.0835636    0.0000348   -0.6418823  
H   -2.4360038   -0.0011526   -3.5845925  
H   -0.1304090   -0.0013420   -3.9319089  
C    0.0000000    0.0000000    1.4700000  
C    1.0662921    0.0000102    2.3034270  
C    0.4961870   -0.0000064    3.6418889  
C   -0.9663858    0.0000850    3.4240247  
N   -1.2632773    0.0000084    2.1528658  
C   -1.8985362    0.0000517    4.5177257  
C   -1.3925775   -0.0004564    5.7720543  
O   -2.1456383   -0.0005410    6.8851312  
C    0.0786232   -0.0009323    6.0245000  
O    0.4683759   -0.0012588    7.1921102  
C    1.0143166   -0.0008442    4.8859032  
H    2.1107198   -0.0000632    2.0421868  
H   -2.9622183    0.0003270    4.3293377  
H   -1.5042274   -0.0009692    7.6184419  
H    2.0724152   -0.0013148    5.1109744  
