62

C    0.8374357    0.0913581   -8.7404439  
C    1.9240140   -0.5557728   -9.2817725  
C    2.0103934   -0.1533887  -10.6475047  
C    0.9410297    0.7478995  -10.8842892  
N    0.2474313    0.8727675   -9.7061783  
C    0.7176556    1.3463383  -12.1279794  
C    1.5898635    1.0293890  -13.1511968  
O    1.4180434    1.5856314  -14.3857353  
C    2.6625424    0.1320181  -12.9346274  
O    3.4423992   -0.0821217  -14.0523539  
C    2.8833485   -0.4589380  -11.7080300  
H    2.5737234   -1.2352204   -8.7571566  
H   -0.5580427    1.4554429   -9.5658852  
H   -0.0956200    2.0339648  -12.3149435  
H    2.1245758    1.2353715  -14.9437632  
H    4.1431094   -0.6993007  -13.8206234  
H    3.7132554   -1.1425296  -11.5722527  
C    2.1120183   -2.1227298   -5.1304393  
C    1.1297843   -1.6610073   -4.2851608  
C    0.3107399   -0.7734496   -5.0441125  
C    0.8462223   -0.7330263   -6.3569534  
N    1.9403247   -1.5620327   -6.3744202  
C    0.2889652    0.0434155   -7.3774390  
C   -0.8294078    0.7924646   -7.0670447  
O   -1.4138834    1.5681740   -8.0260434  
C   -1.3781520    0.7656327   -5.7628299  
O   -2.4916449    1.5660335   -5.6117138  
C   -0.8287665    0.0000939   -4.7555305  
H    1.0180780   -1.9298816   -3.2487143  
H    2.5184779   -1.7431806   -7.1749861  
H   -2.1679403    2.0010224   -7.6049667  
H   -2.7995362    1.4904532   -4.7033666  
H    2.9223337   -2.8065405   -4.9440215  
C    1.0672569   -0.0000698   -0.8321910  
C    0.0000000    0.0000000    0.0000000  
C   -1.1601223   -0.0000736   -0.8778472  
C   -0.5938729   -0.0000768   -2.2438435  
N    0.7113367   -0.0001553   -2.2234123  
C   -1.4286985   -0.0001877   -3.4135239  
C   -2.7683113   -0.0006798   -3.2270524  
O   -3.6653902   -0.0008302   -4.2276970  
C   -3.3702024   -0.0010610   -1.8610774  
O   -4.5974910   -0.0013779   -1.7662963  
C   -2.4926825   -0.0008943   -0.6770658  
H   -4.5324245   -0.0012258   -3.7833954  
H   -2.9677772   -0.0012974    0.2947961  
H    2.1134391   -0.0000547   -0.5705119  
C    0.8681109    0.7263879    2.2709268  
C    0.6127770    0.5096195    3.5869401  
C   -0.4920590   -0.4175482    3.6542670  
C   -0.8620974   -0.7254003    2.2596025  
N    0.0000000    0.0000000    1.4700000  
C   -1.8641242   -1.5660088    1.8976294  
C   -2.6293522   -2.2103885    2.9520183  
O   -3.5512764   -2.9839180    2.7283916  
C   -2.2549728   -1.8987399    4.4361073  
O   -2.8923672   -2.4351063    5.3323774  
C   -1.1543735   -0.9755647    4.7012123  
H    1.1382914    0.9492124    4.4159191  
H   -2.1192137   -1.7782617    0.8686553  
H   -0.9013378   -0.7652422    5.7314848  
H    1.6172880    1.3558399    1.8188057  
