60

C    7.6863326   -3.6573024   -4.8819757  
C    8.4421760   -4.4796760   -4.0789383  
C    7.9102488   -4.3766029   -2.7594581  
C    6.8215821   -3.4693250   -2.8192778  
N    6.7142468   -3.0499284   -4.1220452  
C    6.0592471   -3.1277987   -1.6981203  
C    6.4019705   -3.7130544   -0.4947106  
O    5.6906388   -3.4150689    0.6314440  
C    7.4851027   -4.6203880   -0.4147820  
O    7.7010870   -5.1177758    0.8537986  
C    8.2377711   -4.9575651   -1.5203711  
H    9.2752224   -5.0791709   -4.4039530  
H    5.2283923   -2.4368821   -1.7370647  
H    6.0900589   -3.9235356    1.3492115  
H    8.4490418   -5.7219693    0.8203284  
H    9.0617569   -5.6554600   -1.4283496  
H    7.7646232   -3.4548431   -5.9364142  
C    5.7035977   -2.1123450   -4.6323644  
C    5.5262376   -1.6495152   -5.8966459  
C    4.3945371   -0.7534730   -5.8620425  
C    3.9237589   -0.7320388   -4.4639369  
N    4.7591256   -1.5766813   -3.7699398  
C    2.8699641   -0.0020530   -4.0185824  
C    2.1513540    0.8170174   -4.9804861  
O    1.1888856    1.5100763   -4.6777905  
C    2.6323965    0.8093819   -6.4665365  
O    2.0350136    1.4947736   -7.2854580  
C    3.7812672   -0.0180950   -6.8260219  
H    6.1202740   -1.9066244   -6.7554990  
H    4.1081454   -0.0176478   -7.8569795  
H    4.6940935   -1.7721469   -2.7877935  
C    3.2573670   -0.0002921   -1.5109382  
C    2.5379468   -0.0001711   -0.3591962  
C    1.1435043    0.0000330   -0.7338498  
C    1.1092608   -0.0000085   -2.2088474  
N    2.4227562    0.0001906   -2.6182610  
C   -0.0265533   -0.0002525   -2.9515663  
C   -1.3003033   -0.0002641   -2.2514979  
O   -2.3786785   -0.0004132   -2.8306425  
C   -1.2877724    0.0000310   -0.6895608  
O   -2.3539956    0.0003306   -0.0892035  
C    0.0000000    0.0000000    0.0000000  
H    2.9384091   -0.0000370    0.6389240  
H   -0.0296290   -0.0004088   -4.0327231  
H    4.3270394   -0.0004767   -1.6439445  
C    2.5128556    2.1077716    2.9199648  
C    1.9592212    1.6432552    4.0696553  
C    0.8915788    0.7479214    3.6910360  
C    0.8684491    0.7287414    2.2159470  
N    1.8754542    1.5738793    1.8102719  
C    0.0000000    0.0000000    1.4700000  
C   -0.9772830   -0.8200135    2.1664417  
O   -1.8021297   -1.5120829    1.5842315  
C   -0.9711318   -0.8147624    3.7284083  
O   -1.7894187   -1.5009653    4.3257297  
C    0.0140216    0.0115358    4.4216297  
H    2.2638494    1.8988021    5.0689105  
H    0.0117648    0.0094386    5.5031631  
H    3.3327358    2.7953732    2.7900019  
H    2.1123206    1.7707734    0.8551938  
