62

C    6.0083474   -0.7246447   -0.7941579  
C    6.5317069   -0.0085027   -1.8456821  
C    7.6498955    0.7179009   -1.3391329  
C    7.7613975    0.4023482    0.0392426  
N    6.7481654   -0.4744728    0.3378458  
C    8.7569558    0.9405992    0.8601807  
C    9.6565206    1.8130609    0.2790009  
O   10.6488285    2.3673519    1.0347136  
C    9.5614445    2.1405144   -1.0945171  
O   10.5306605    3.0235021   -1.5238138  
C    8.5793964    1.6101035   -1.9049310  
H    6.5805331   -0.8822203    1.2398560  
H    8.8472495    0.7042231    1.9114543  
H   11.1567372    2.9374067    0.4428265  
H   10.3950784    3.1917327   -2.4613211  
H    8.5315724    1.8796769   -2.9535117  
H    5.1650012   -1.3929825   -0.7617502  
C    2.4861703   -0.0045381   -3.7159920  
C    3.4691534   -0.0057443   -2.7857649  
C    4.7077408   -0.0077548   -3.5489135  
C    4.2744119   -0.0075888   -4.9627062  
N    2.9732094   -0.0056262   -5.0669053  
C    5.2170328   -0.0092338   -6.0473951  
C    6.5327408   -0.0105766   -5.7339546  
O    7.5212024   -0.0121906   -6.6444392  
C    7.0015518   -0.0104094   -4.3167822  
O    8.2141971   -0.0118098   -4.1053319  
C    6.0150640   -0.0087521   -3.2219016  
H    3.3664293   -0.0052316   -1.7140731  
H    4.8722778   -0.0092771   -7.0711400  
H    8.3418878   -0.0128289   -6.1194360  
C    0.0000000    0.0000000    0.0000000  
C    1.0521669   -0.0011901   -0.8862341  
C    0.4917220   -0.0011956   -2.1979132  
C   -0.9187428    0.0003148   -2.0478684  
N   -1.1833170   -0.0009411   -0.7007915  
C   -1.7951699    0.0010351   -3.1372091  
C   -1.2375836    0.0005225   -4.4010425  
O   -2.0474210    0.0015361   -5.4997584  
C    0.1673583   -0.0013566   -4.5711960  
O    0.5673528   -0.0020686   -5.8915549  
C    1.0325772   -0.0023411   -3.4969890  
H    2.0953059   -0.0030648   -0.6200562  
H   -2.0989777    0.0102372   -0.2891825  
H   -2.8710931    0.0020419   -3.0295515  
H   -1.4634882    0.0006497   -6.2693594  
H    1.5290713   -0.0033151   -5.9180046  
C    3.2573670    0.0002920    2.9809380  
C    2.5379467    0.0001709    1.8291961  
C    1.1435042   -0.0000331    2.2038498  
C    1.1092607    0.0000083    3.6788474  
N    2.4227561   -0.0001909    4.0882609  
C   -0.0265533    0.0002524    4.4215661  
C   -1.3003036    0.0002640    3.7214979  
O   -2.3786784    0.0004133    4.3006425  
C   -1.2877726   -0.0000311    2.1595606  
O   -2.3539958   -0.0003306    1.5592035  
C    0.0000000    0.0000000    1.4700000  
H    2.9384090    0.0000368    0.8310761  
H   -0.0296291    0.0004086    5.5027230  
H    4.3270393    0.0004765    3.1139444  
H    2.7280493    0.0013407    5.0442112  
