62

C   -5.8466421    4.6275880   -0.5053526  
C   -5.3576775    3.5203934   -1.1591885  
C   -6.2913036    2.4636838   -0.9439974  
C   -7.3386493    2.9898913   -0.1451867  
N   -7.0363536    4.3054840    0.1047171  
C   -8.4358433    2.2253528    0.2627758  
C   -8.4766407    0.9056508   -0.1433032  
O   -9.5254356    0.1142536    0.2264743  
C   -7.4410252    0.3623007   -0.9402269  
O   -7.6263332   -0.9663498   -1.2622395  
C   -6.3581808    1.1158784   -1.3428362  
H   -4.4403145    3.4791067   -1.7210908  
H   -7.6027005    4.9398339    0.6384124  
H   -9.2372694    2.6204376    0.8717307  
H   -9.3588305   -0.7566351   -0.1570112  
H   -6.8834558   -1.2551877   -1.8010439  
H   -5.4401661    5.6211840   -0.4247159  
C   -3.9676974    0.7295152   -2.0473342  
C   -5.3027969    0.5139977   -2.1703654  
C   -5.4806619   -0.4130398   -3.2629773  
C   -4.1300597   -0.7221785   -3.7700245  
N   -3.2578655    0.0024282   -2.9908505  
C   -3.8704407   -1.5630657   -4.8030835  
C   -4.9963848   -2.2064096   -5.4595095  
O   -4.8663862   -2.9800928   -6.3990919  
C   -6.4355319   -1.8933902   -4.9392395  
O   -7.3913134   -2.4288772   -5.4842132  
C   -6.5888714   -0.9700333   -3.8177449  
H   -2.8721770   -1.7762694   -5.1593470  
H   -7.5886334   -0.7587590   -3.4633958  
H   -3.4426406    1.3584970   -1.3469153  
C    0.0000000    0.0000000    0.0000000  
C    1.0521666   -0.0011982   -0.8862343  
C    0.4917215   -0.0011996   -2.1979132  
C   -0.9187429    0.0003215   -2.0478682  
N   -1.1833171   -0.0009323   -0.7007913  
C   -1.7951703    0.0010483   -3.1372089  
C   -1.2375841    0.0005313   -4.4010422  
O   -2.0474218    0.0015510   -5.4997578  
C    0.1673576   -0.0013585   -4.5711963  
O    0.5673520   -0.0020735   -5.8915554  
C    1.0325768   -0.0023493   -3.4969892  
H    2.0953056   -0.0030808   -0.6200564  
H   -2.0989778    0.0102529   -0.2891822  
H   -1.4634888    0.0006601   -6.2693595  
H    1.5290707   -0.0033271   -5.9180047  
H    2.1042146   -0.0039770   -3.6584456  
C    3.2798086   -0.0005857    2.9199648  
C    2.5571146   -0.0005566    4.0696553  
C    1.1637436   -0.0001548    3.6910360  
C    1.1336965    0.0000200    2.2159470  
N    2.4483514    0.0001428    1.8102719  
C    0.0000000    0.0000000    1.4700000  
C   -1.2757367    0.0000186    2.1664417  
O   -2.3524596    0.0000640    1.5842315  
C   -1.2676493    0.0000873    3.7284083  
O   -2.3355761    0.0004100    4.3257297  
C    0.0181563   -0.0001760    4.4216297  
H    2.9547357   -0.0006076    5.0689105  
H    0.0150794   -0.0003319    5.5031631  
H    4.3498549   -0.0008612    2.7900019  
H    2.7563627   -0.0012824    0.8551938  
