62

C    4.2255539   -0.0174887   -8.2272746  
C    5.2617198   -0.6935459   -8.8287515  
C    5.2485152   -0.3331921  -10.2088137  
C    4.1731624    0.5734488  -10.3919677  
N    3.5718795    0.7417912   -9.1693752  
C    3.8622478    1.1371336  -11.6330886  
C    4.6514567    0.7792818  -12.7088537  
O    4.3922259    1.3004438  -13.9434399  
C    5.7286239   -0.1240875  -12.5462153  
O    6.4196088   -0.3808919  -13.7123796  
C    6.0357592   -0.6807729  -11.3221685  
H    5.9425687   -1.3648078   -8.3339331  
H    2.7850479    1.3380626   -8.9867888  
H    3.0439190    1.8286242  -11.7793117  
H    5.0510887    0.9251861  -14.5420601  
H    7.1297735   -0.9992782  -13.5152285  
H    6.8668399   -1.3699595  -11.2283382  
C    5.7035980   -2.1123456   -4.6323628  
C    5.5262382   -1.6495162   -5.8966442  
C    4.3945378   -0.7534738   -5.8620418  
C    3.9237595   -0.7320394   -4.4639363  
N    4.7591255   -1.5766815   -3.7699383  
C    2.8699641   -0.0020530   -4.0185824  
C    2.1513545    0.8170171   -4.9804864  
O    1.1888859    1.5100763   -4.6777914  
C    2.6323973    0.8093812   -6.4665363  
O    2.0350151    1.4947725   -7.2854585  
C    3.7812681   -0.0180958   -6.8260216  
H    6.1202751   -1.9066256   -6.7554977  
H    6.4446790   -2.7998496   -4.2581597  
H    4.6940935   -1.7721471   -2.7877920  
C    3.2573670   -0.0002921   -1.5109382  
C    2.5379468   -0.0001711   -0.3591962  
C    1.1435043    0.0000330   -0.7338498  
C    1.1092608   -0.0000085   -2.2088474  
N    2.4227562    0.0001906   -2.6182610  
C   -0.0265533   -0.0002525   -2.9515663  
C   -1.3003033   -0.0002641   -2.2514979  
O   -2.3786785   -0.0004132   -2.8306425  
C   -1.2877724    0.0000310   -0.6895608  
O   -2.3539956    0.0003306   -0.0892035  
C    0.0000000    0.0000000    0.0000000  
H    2.9384091   -0.0000370    0.6389240  
H   -0.0296290   -0.0004088   -4.0327231  
H    4.3270394   -0.0004767   -1.6439445  
C    0.8576279    0.7185626    2.2703808  
C    0.0000000    0.0000000    1.4700000  
C   -0.8668858   -0.7285659    2.3373528  
C   -0.4876752   -0.4117774    3.6669281  
N    0.5635254    0.4678311    3.5902241  
C   -1.1297612   -0.9515493    4.7854808  
C   -2.1738724   -1.8268314    4.5576857  
O   -2.8357962   -2.3827064    5.6140350  
C   -2.5667212   -2.1555554    3.2384331  
O   -3.6226318   -3.0413663    3.1773122  
C   -1.9335634   -1.6236449    2.1344818  
H    1.0363952    0.8769718    4.3757045  
H   -0.8454472   -0.7142436    5.8013813  
H   -3.5178062   -2.9546422    5.2385129  
H   -3.8247440   -3.2102924    2.2519915  
H   -2.2566033   -1.8942483    1.1360343  
H    1.6567807    1.3889844    2.0042067  
