64

C    3.4544513   -3.0732199   -5.5785349  
C    4.2195098   -3.7515510   -6.4988709  
C    5.1722184   -4.5179896   -5.7643526  
C    4.9379802   -4.2651417   -4.3884436  
N    3.8895572   -3.3822849   -4.3110525  
C    5.6940936   -4.8558617   -3.3715204  
C    6.7048884   -5.7177615   -3.7504636  
O    7.4735725   -6.3221468   -2.7981730  
C    6.9542279   -5.9824238   -5.1181626  
O    7.9949603   -6.8621487   -5.3333483  
C    6.2088765   -5.3998093   -6.1219250  
H    4.1057182   -3.6994173   -7.5681358  
H    3.4914203   -3.0272144   -3.4605271  
H    5.5206886   -4.6671737   -2.3210299  
H    8.1100565   -6.8741221   -3.2709062  
H    8.0969841   -6.9864044   -6.2819025  
H    6.4233262   -5.6215728   -7.1608237  
C    2.3338133   -2.1434178   -5.7798773  
C    1.7883278   -1.7365448   -6.9496977  
C    0.7199247   -0.8256229   -6.5685995  
C    0.7626761   -0.7985189   -5.0907561  
N    1.7067545   -1.5690021   -4.6227174  
C   -0.1496415   -0.0015615   -4.3176961  
C   -1.0628929    0.7351420   -4.9904329  
O   -1.9748540    1.5241934   -4.3973341  
C   -1.1310333    0.7292327   -6.4815675  
O   -1.9880870    1.4240539   -7.0273726  
C   -0.1842265   -0.0965636   -7.2519840  
H    2.0755606   -2.0195387   -7.9479403  
H   -2.4795477    1.9160033   -5.1328081  
H   -0.2663206   -0.0731943   -8.3303828  
C    3.3003543    0.0005276   -1.4738987  
C    2.5232814    0.0003497   -2.6090747  
C    1.1623200   -0.0001320   -2.1820103  
C    1.1711883    0.0000582   -0.7636140  
N    2.4852300   -0.0014919   -0.3662360  
C    0.0000000    0.0000000    0.0000000  
C   -1.2020384    0.0000519   -0.6806477  
O   -2.3759249    0.0003493    0.0157743  
C   -1.2314656   -0.0005115   -2.0955510  
O   -2.5054392   -0.0008039   -2.6250180  
C   -0.0764516   -0.0007274   -2.8495195  
H    2.8919955   -0.0005620   -3.6205304  
H    2.8036267    0.0088183    0.5858662  
H   -3.0835638    0.0000347   -0.6418818  
H   -2.4360047   -0.0011529   -3.5845921  
H    4.3715549    0.0004895   -1.3667136  
C    2.5285572    2.1210227    2.9438989  
C    1.9331703    1.6216660    4.0790748  
C    0.8903039    0.7472258    3.6520102  
C    0.8972198    0.7527806    2.2336141  
N    1.9028376    1.5986179    1.8362361  
C    0.0000000    0.0000000    1.4700000  
C   -0.9207814   -0.7726952    2.1506477  
O   -1.8198395   -1.5274828    1.4542253  
C   -0.9436862   -0.7911793    3.5655508  
O   -1.9197945   -1.6098497    4.0950179  
C   -0.0590329   -0.0485852    4.3195194  
H    2.2150357    1.8593692    5.0905303  
H    2.1533708    1.7953814    0.8841339  
H   -2.3621246   -1.9821033    2.1118817  
H   -1.8668290   -1.5649508    5.0545920  
H   -0.1007624   -0.0827977    5.4019087  
H    3.3491200    2.8096064    2.8367138  
