62

C    2.5263060    0.0005353   -8.0873975  
C    3.5670579   -0.0002313   -7.1877853  
C    4.7742117   -0.0009718   -7.9476399  
C    4.4041003   -0.0003256   -9.3169249  
N    3.0321733   -0.0013670   -9.3662421  
C    5.3419664   -0.0004802  -10.3538424  
C    6.6777918   -0.0009951  -10.0020642  
O    7.6353934   -0.0008161  -10.9746964  
C    7.0668921   -0.0020191   -8.6413968  
O    8.4337423   -0.0028510   -8.4541417  
C    6.1422081   -0.0021404   -7.6179301  
H    3.4683322   -0.0013590   -6.1157569  
H    2.4816155    0.0093399  -10.2057374  
H    5.0663546   -0.0001346  -11.3994240  
H    8.4872894   -0.0015466  -10.5191333  
H    8.6111877   -0.0034865   -7.5085644  
H    6.4702741   -0.0031169   -6.5850458  
C    0.0950448    0.0004350   -4.4015596  
C    1.1192393    0.0002597   -5.2932436  
C    0.5298386    0.0006950   -6.6113645  
C   -0.9321731    0.0011707   -6.4130916  
N   -1.1298097    0.0005870   -5.0515376  
C   -1.8443588    0.0020606   -7.4178909  
C   -1.3534348    0.0023586   -8.7859287  
O   -2.0950458    0.0030849   -9.7597423  
C    0.1910172    0.0016126   -9.0193235  
O    0.6161266    0.0015487  -10.1667301  
C    1.0746177    0.0009552   -7.8560944  
H    2.1679381   -0.0003125   -5.0548232  
H   -2.9125319    0.0025267   -7.2508092  
H   -2.0258137    0.0022750   -4.5996293  
C    3.3321173    0.0004714   -1.3379336  
C    2.6974184    0.0000115   -2.5332313  
C    1.2800437   -0.0002119   -2.2052840  
C    1.2395034    0.0000643   -0.7271298  
N    2.4394063    0.0005459   -0.2131037  
C    0.0000000    0.0000000    0.0000000  
C   -1.1468702    0.0000634   -0.7169544  
O   -2.3742202    0.0000072   -0.1695489  
C   -1.1388770    0.0001606   -2.2096356  
O   -2.2206231    0.0000903   -2.7970412  
C    0.1454523    0.0001814   -2.9324241  
H    3.1367986   -0.0000653   -3.5160949  
H   -2.9844345    0.0001025   -0.9290168  
H    4.3940040    0.0007618   -1.1498638  
C    0.8676693    0.7151171    2.2619005  
C    0.5875920    0.4624972    3.5848544  
C   -0.5048400   -0.4542819    3.6114698  
C   -0.8517165   -0.7276451    2.2635546  
N    0.0000000    0.0000000    1.4700000  
C   -1.8902865   -1.5946756    1.9108239  
C   -2.5912627   -2.1969500    2.9375057  
O   -3.6148162   -3.0527051    2.6493466  
C   -2.2603868   -1.9365747    4.2886322  
O   -3.0513550   -2.6123276    5.1947621  
C   -1.2361111   -1.0811317    4.6373480  
H    1.1060808    0.8876438    4.4271209  
H   -2.1597133   -1.8070987    0.8854031  
H   -3.9636755   -3.3565188    3.4974381  
H   -2.7621927   -2.3810384    6.0827341  
H   -1.0058879   -0.9010589    5.6809233  
H    1.6167816    1.3499334    1.8205408  
