64

C    7.0205196    0.6173800   -5.1508121  
C    7.6337286   -0.2141167   -4.2424861  
C    9.0334919   -0.1656433   -4.5125080  
C    9.2161047    0.7197016   -5.6055508  
N    7.9736369    1.1758816   -5.9699533  
C   10.4741531    1.0084927   -6.1428620  
C   11.5678064    0.3925432   -5.5660533  
O   12.8194847    0.6393101   -6.0512540  
C   11.4059023   -0.4941922   -4.4750429  
O   12.5908598   -1.0276900   -4.0117929  
C   10.1650816   -0.7797659   -3.9446327  
H    7.1335643   -0.7861795   -3.4798764  
H    7.7890560    1.8278452   -6.7108010  
H   10.6200207    1.6822341   -6.9759273  
H   13.4286203    0.1163287   -5.5139369  
H   12.3929039   -1.6147712   -3.2757544  
H   10.0722221   -1.4632722   -3.1087651  
C    3.4043356   -0.7242388   -2.9869842  
C    2.4861704   -0.0045255   -3.7159919  
C    3.2157602    0.7227065   -4.7026185  
C    4.5865270    0.4039559   -4.5256371  
N    4.6659996   -0.4754876   -3.4745040  
C    5.5977274    0.9420304   -5.3273463  
C    5.2182041    1.8176016   -6.3261032  
O    6.1649635    2.3718711   -7.1381662  
C    3.8556305    2.1482716   -6.5181119  
O    3.6391786    3.0341222   -7.5533707  
C    2.8575498    1.6180358   -5.7274085  
H    5.5125625   -0.8857754   -3.1238237  
H    5.6928638    2.9443329   -7.7567725  
H    2.6943222    3.2044169   -7.6154169  
H    1.8225157    1.8901111   -5.8981659  
H    3.2592089   -1.3942254   -2.1569145  
C    0.0000000    0.0000000    0.0000000  
C    1.0521669   -0.0011848   -0.8862341  
C    0.4917221   -0.0011931   -2.1979130  
C   -0.9187427    0.0003100   -2.0478683  
N   -1.1833170   -0.0009472   -0.7007915  
C   -1.7951698    0.0010259   -3.1372090  
C   -1.2375835    0.0005161   -4.4010425  
O   -2.0474208    0.0015256   -5.4997580  
C    0.1673584   -0.0013557   -4.5711962  
O    0.5673529   -0.0020659   -5.8915551  
C    1.0325773   -0.0023359   -3.4969890  
H    2.0953059   -0.0030542   -0.6200560  
H   -2.0989777    0.0102265   -0.2891825  
H   -2.8710930    0.0020274   -3.0295514  
H   -1.4634881    0.0006427   -6.2693593  
H    1.5290715   -0.0033076   -5.9180042  
C    0.0000000    0.0000000    1.4700000  
C    1.0662921    0.0000102    2.3034270  
C    0.4961870   -0.0000064    3.6418889  
C   -0.9663858    0.0000850    3.4240247  
N   -1.2632773    0.0000084    2.1528658  
C   -1.8985362    0.0000517    4.5177257  
C   -1.3925775   -0.0004564    5.7720543  
O   -2.1456383   -0.0005410    6.8851312  
C    0.0786232   -0.0009323    6.0245000  
O    0.4683759   -0.0012588    7.1921102  
C    1.0143166   -0.0008442    4.8859032  
H    2.1107198   -0.0000632    2.0421868  
H   -2.9622183    0.0003270    4.3293377  
H   -1.5042274   -0.0009692    7.6184419  
H    2.0724152   -0.0013148    5.1109744  
