64

C    3.1670382   -3.5264673   -4.4972899  
C    4.2434641   -4.2966649   -4.8722185  
C    4.4147238   -4.1172030   -6.2768760  
C    3.4052225   -3.2188054   -6.7078248  
N    2.6640389   -2.8811873   -5.6027104  
C    3.2717393   -2.8134135   -8.0392263  
C    4.1739612   -3.3240176   -8.9521650  
O    4.0893168   -2.9610537  -10.2652175  
C    5.1879245   -4.2218582   -8.5415827  
O    6.0077392   -4.6418296   -9.5686506  
C    5.3200354   -4.6224321   -7.2283366  
H    4.8320747   -4.9129853   -4.2144344  
H    2.5044278   -2.1290930   -8.3740992  
H    4.8025864   -3.4245341  -10.7231445  
H    6.6642466   -5.2447712   -9.2066224  
H    6.1065625   -5.3115041   -6.9436749  
H    2.7173938   -3.3874754   -3.5290649  
C    1.5214681   -1.9563162   -5.5959991  
C    0.7564344   -1.5844073   -4.5433899  
C   -0.2212177   -0.6607930   -5.0980362  
C    0.1090029   -0.5886732   -6.5375977  
N    1.1296218   -1.3460487   -6.8354367  
C   -0.6386058    0.2326998   -7.4494710  
C   -1.6694953    0.9491468   -6.9461763  
O   -2.4518892    1.7570649   -7.6818187  
C   -2.0277815    0.8972570   -5.4980401  
O   -2.9783775    1.5758982   -5.1094083  
C   -1.2456329    0.0471727   -4.5828766  
H    0.8445932   -1.8981613   -3.5172991  
H   -0.3750446    0.2664711   -8.4965174  
H   -3.0926575    2.1264000   -7.0476575  
C    1.1243410    0.0099923   -0.7919003  
C    0.7474076    0.0234544   -2.1148543  
C   -0.6787381    0.0234490   -2.1414700  
C   -1.1201745    0.0098592   -0.7935546  
N    0.0000000    0.0000000    0.0000000  
C   -2.4730816    0.0063709   -0.4408240  
C   -3.3971958    0.0170982   -1.4675058  
O   -4.7313517    0.0146259   -1.1793471  
C   -2.9763648    0.0303504   -2.8186324  
O   -4.0166480    0.0395118   -3.7247624  
C   -1.6418562    0.0335260   -3.1673481  
H    1.4178717    0.0310972   -2.9571209  
H   -2.8160166   -0.0041111    0.5845966  
H   -5.1938818    0.0230867   -2.0274384  
H   -3.6464675    0.0482293   -4.6127343  
H    2.1062467    0.0052819   -0.3505407  
C    2.5311839    2.1237619    3.0120429  
C    1.9795631    1.6616747    1.8395852  
C    0.9223175    0.7739173    2.1983588  
C    0.8753926    0.7337535    3.6154372  
N    1.8668922    1.5631002    4.0777464  
C   -0.0496243   -0.0427881    4.3197917  
C   -0.9437528   -0.7922060    3.5801400  
O   -1.8685244   -1.5680278    4.2172520  
C   -0.9124520   -0.7656372    2.1655264  
O   -1.8671164   -1.5663939    1.5732860  
C    0.0000000    0.0000000    1.4700000  
H    2.3005065    1.9304404    0.8477417  
H    2.0679347    1.7444845    5.0445261  
H   -0.0904770   -0.0778569    5.3997470  
H   -2.3849669   -2.0011402    3.5251786  
H   -1.7775064   -1.4909735    0.6183591  
H    3.3468514    2.8078103    3.1724291  
