64

C   -0.2963294   -0.0005338   -4.3948469  
C    0.7248287   -0.0020289   -5.3166396  
C    0.1197348   -0.0021706   -6.6083287  
C   -1.2847550   -0.0004250   -6.4100066  
N   -1.5029813   -0.0014160   -5.0546494  
C   -2.1980210    0.0002432   -7.4686539  
C   -1.6841003   -0.0005639   -8.7508632  
O   -2.5311372    0.0003862   -9.8211639  
C   -0.2858198   -0.0026806   -8.9690928  
O    0.0686631   -0.0036733  -10.3023925  
C    0.6157255   -0.0036142   -7.9251870  
H    1.7764815   -0.0040143   -5.0863876  
H   -2.4039876    0.0099675   -4.6118856  
H   -3.2696198    0.0014283   -7.3241654  
H   -1.9739380   -0.0007158  -10.6103357  
H    1.0289089   -0.0050674  -10.3618041  
H    1.6811962   -0.0054203   -8.1232956  
C    3.1301144   -0.0010311   -1.7028257  
C    2.5367765   -0.0002766   -0.4864669  
C    1.1089900    0.0001028   -0.7656184  
C    1.0177865   -0.0004148   -2.2415134  
N    2.1993573   -0.0011611   -2.7963824  
C   -0.2459219   -0.0002876   -2.9257117  
C   -1.3675328   -0.0000605   -2.1698521  
O   -2.6129318    0.0000868   -2.6748487  
C   -1.3083586    0.0000910   -0.6783230  
O   -2.3693261    0.0004206   -0.0541687  
C    0.0000000    0.0000000    0.0000000  
H    3.0096014   -0.0001008    0.4807517  
H   -3.1967444    0.0002095   -1.8949028  
C    6.7636935   -0.0010972    0.9023158  
C    5.4671767   -0.0014230    0.4424125  
C    5.5308670   -0.0015888   -0.9825589  
C    6.9040851   -0.0016366   -1.3378053  
N    7.6252191    0.0006174   -0.1696541  
C    7.3417424   -0.0020969   -2.6656774  
C    6.3755439   -0.0028234   -3.6529148  
O    6.7475653   -0.0036474   -4.9661597  
C    5.0004290   -0.0024126   -3.3184354  
O    4.1619019   -0.0028165   -4.4139791  
C    4.5679458   -0.0016854   -2.0086709  
H    4.5841347   -0.0004231    1.0582285  
H    8.6271390   -0.0094389   -0.1061186  
H    8.3868632   -0.0019917   -2.9430294  
H    5.9304026   -0.0037547   -5.4814359  
H    3.2522407   -0.0025257   -4.1007379  
H    7.1420550   -0.0005065    1.9101853  
C    2.5285572    2.1210227    2.9438989  
C    1.9331703    1.6216660    4.0790748  
C    0.8903039    0.7472258    3.6520102  
C    0.8972198    0.7527806    2.2336141  
N    1.9028376    1.5986179    1.8362361  
C    0.0000000    0.0000000    1.4700000  
C   -0.9207814   -0.7726952    2.1506477  
O   -1.8198395   -1.5274828    1.4542253  
C   -0.9436862   -0.7911793    3.5655508  
O   -1.9197945   -1.6098497    4.0950179  
C   -0.0590329   -0.0485852    4.3195194  
H    2.2150357    1.8593692    5.0905303  
H    2.1533708    1.7953814    0.8841339  
H   -2.3621246   -1.9821033    2.1118817  
H   -1.8668290   -1.5649508    5.0545920  
H   -0.1007624   -0.0827977    5.4019087  
H    3.3491200    2.8096064    2.8367138  
