60

C    4.1596832   -0.7024167   -9.0151281  
C    3.6725643    0.5509951   -8.7250566  
C    4.1074943    1.4188596   -9.7701632  
C    4.8623586    0.6320912  -10.6774130  
N    4.8758890   -0.6504607  -10.1880306  
C    5.4475686    1.1611728  -11.8317059  
C    5.2672106    2.5089837  -12.0747172  
O    5.8167038    3.0771066  -13.1875096  
C    4.5176432    3.3105625  -11.1811639  
O    4.4291206    4.6336283  -11.5619592  
C    3.9402630    2.7893383  -10.0420929  
H    5.3266451   -1.4337631  -10.6253372  
H    6.0241779    0.5668956  -12.5270896  
H    5.5737891    4.0118560  -13.1651404  
H    3.9071611    5.1048310  -10.9053550  
H    3.3717814    3.4280512   -9.3762449  
H    4.0541069   -1.6290689   -8.4774221  
C    3.9135206   -0.7081242   -4.5250692  
C    2.8699641   -0.0020530   -4.0185824  
C    2.2916402    0.7390435   -5.1145539  
C    3.0895148    0.4044295   -6.3096354  
N    4.0568591   -0.4768161   -5.8847344  
C    2.8606216    0.9024528   -7.5511207  
C    1.7547623    1.8301061   -7.7216207  
O    1.4676786    2.3333351   -8.7998801  
C    0.8966364    2.1987794   -6.4696198  
O   -0.0368096    2.9789838   -6.6008460  
C    1.2404685    1.5971818   -5.1836525  
H    0.6412574    1.8574786   -4.3217272  
H    4.5900518   -1.3778175   -4.0193959  
H    4.7576402   -0.8900200   -6.4722854  
C    3.2573670   -0.0002921   -1.5109382  
C    2.5379468   -0.0001711   -0.3591962  
C    1.1435043    0.0000330   -0.7338498  
C    1.1092608   -0.0000085   -2.2088474  
N    2.4227562    0.0001906   -2.6182610  
C   -0.0265533   -0.0002525   -2.9515663  
C   -1.3003033   -0.0002641   -2.2514979  
O   -2.3786785   -0.0004132   -2.8306425  
C   -1.2877724    0.0000310   -0.6895608  
O   -2.3539956    0.0003306   -0.0892035  
C    0.0000000    0.0000000    0.0000000  
H    2.9384091   -0.0000370    0.6389240  
H   -0.0296290   -0.0004088   -4.0327231  
H    4.3270394   -0.0004767   -1.6439445  
C    0.0000000    0.0000000    1.4700000  
C    1.0662921    0.0000102    2.3034270  
C    0.4961870   -0.0000064    3.6418889  
C   -0.9663858    0.0000850    3.4240247  
N   -1.2632773    0.0000084    2.1528658  
C   -1.8985362    0.0000517    4.5177257  
C   -1.3925775   -0.0004564    5.7720543  
O   -2.1456383   -0.0005410    6.8851312  
C    0.0786232   -0.0009323    6.0245000  
O    0.4683759   -0.0012588    7.1921102  
C    1.0143166   -0.0008442    4.8859032  
H    2.1107198   -0.0000632    2.0421868  
H   -2.9622183    0.0003270    4.3293377  
H   -1.5042274   -0.0009692    7.6184419  
H    2.0724152   -0.0013148    5.1109744  
