64

C    0.1177590   -0.7041724   -5.1422752  
C    0.3059614   -0.4523679   -6.4815445  
C   -0.7176654    0.4566402   -6.8821589  
C   -1.5071137    0.7263232   -5.7350018  
N   -0.9736293    0.0040457   -4.6965764  
C   -2.6097128    1.5856279   -5.7606859  
C   -2.9208571    2.1838185   -6.9663120  
O   -3.9871537    3.0320123   -7.0475013  
C   -2.1454322    1.9270120   -8.1219868  
O   -2.5829252    2.5979312   -9.2452903  
C   -1.0577190    1.0791894   -8.0974447  
H   -3.2155199    1.7952116   -4.8898962  
H   -4.0265659    3.3340956   -7.9642669  
H   -2.0055193    2.3694991   -9.9801547  
H   -0.4827518    0.9016924   -8.9987689  
H    0.6748217   -1.3340379   -4.4700335  
C    1.1188645    0.0008222   -0.8003808  
C    0.0000000    0.0000000    0.0000000  
C   -1.1323859    0.0008892   -0.8673528  
C   -0.6382659    0.0019674   -2.1969282  
N    0.7324018    0.0038481   -2.1202241  
C   -1.4770911    0.0027311   -3.3154809  
C   -2.8395469    0.0020931   -3.0876860  
O   -3.7039197    0.0024412   -4.1440353  
C   -3.3517867    0.0013916   -1.7684331  
O   -4.7300493    0.0012348   -1.7073125  
C   -2.5248542    0.0009113   -0.6644820  
H    1.3576317   -0.0056164   -2.9057045  
H   -4.5940029    0.0021811   -3.7685135  
H   -4.9934598    0.0007244   -0.7819913  
H   -2.9462578    0.0005591    0.3339662  
H    2.1619896    0.0009361   -0.5342067  
C    1.3690461   -1.0268058   -7.3186654  
C    2.3770471   -1.9043620   -6.9926341  
C    3.1297229   -2.1344561   -8.1822290  
C    2.5290685   -1.3637449   -9.2104039  
N    1.4616466   -0.7049562   -8.6525271  
C    3.0109297   -1.3471322  -10.5227770  
C    4.1195218   -2.1224393  -10.8022347  
O    4.6316151   -2.1428273  -12.0672886  
C    4.7325695   -2.8985093   -9.7899576  
O    5.8268337   -3.6166282  -10.2261145  
C    4.2575776   -2.9155903   -8.4951150  
H    2.5480750   -2.3275623   -6.0176242  
H    0.8505553   -0.0739810   -9.1387568  
H    2.5575708   -0.7619902  -11.3109890  
H    5.3917728   -2.7385689  -12.0445733  
H    6.1813986   -4.1126577   -9.4819088  
H    4.7479797   -3.5200672   -7.7410645  
C    2.5128556    2.1077716    2.9199648  
C    1.9592212    1.6432552    4.0696553  
C    0.8915788    0.7479214    3.6910360  
C    0.8684491    0.7287414    2.2159470  
N    1.8754542    1.5738793    1.8102719  
C    0.0000000    0.0000000    1.4700000  
C   -0.9772830   -0.8200135    2.1664417  
O   -1.8021297   -1.5120829    1.5842315  
C   -0.9711318   -0.8147624    3.7284083  
O   -1.7894187   -1.5009653    4.3257297  
C    0.0140216    0.0115358    4.4216297  
H    2.2638494    1.8988021    5.0689105  
H    0.0117648    0.0094386    5.5031631  
H    3.3327358    2.7953732    2.7900019  
H    2.1123206    1.7707734    0.8551938  
