60

C    7.5942059   -0.5424570   -4.6884028  
C    7.0524862    0.6889361   -4.9759409  
C    8.1381373    1.6090076   -5.0730482  
C    9.3281968    0.8753141   -4.8335084  
N    8.9618791   -0.4272325   -4.6015561  
C   10.5961418    1.4642134   -4.8507862  
C   10.6639908    2.8183822   -5.1149858  
O   11.8768044    3.4438722   -5.1442511  
C    9.4878111    3.5675605   -5.3561324  
O    9.7213490    4.9045736   -5.6035166  
C    8.2365971    2.9873080   -5.3389770  
H    9.5948319   -1.1831117   -4.4118255  
H   11.5069646    0.9105754   -4.6688758  
H   11.7002729    4.3727037   -5.3426765  
H    8.8759959    5.3378638   -5.7559640  
H    7.3535889    3.5867683   -5.5271875  
H    7.1130976   -1.4935432   -4.5369804  
C    3.4580103   -0.7268405   -2.8377751  
C    4.7325012   -0.5102402   -3.2535076  
C    4.6631580    0.4171276   -4.3580508  
C    3.2335495    0.7252806   -4.5531175  
N    2.5562217   -0.0001543   -3.6003001  
C    2.7508573    1.5661405   -5.5026795  
C    3.7028851    2.2104925   -6.3920543  
O    3.3673539    2.9842354   -7.2792080  
C    5.2217703    1.8985276   -6.2037144  
O    6.0326417    2.4348679   -6.9467404  
C    5.6204823    0.9750982   -5.1443947  
H    5.6199071   -0.9500704   -2.8343736  
H    1.6983101    1.7786118   -5.6288155  
H    3.1016697   -1.3563613   -2.0386413  
C    0.0000000    0.0000000    0.0000000  
C    1.0541688   -0.0001719   -0.8560391  
C    0.5103141   -0.0000449   -2.1935955  
C   -0.9576367    0.0002461   -2.0455733  
N   -1.2018459   -0.0001392   -0.6915970  
C   -1.8348306    0.0008319   -3.0810611  
C   -1.2972842    0.0009739   -4.4314605  
O   -2.0050664    0.0014267   -5.4301321  
C    0.2542628    0.0004190   -4.6117571  
O    0.7184677    0.0002263   -5.7439119  
C    1.0974556    0.0000880   -3.4189127  
H    2.0940752   -0.0005479   -0.5817978  
H   -2.9081050    0.0011669   -2.9507065  
H   -2.1128195    0.0014911   -0.2706793  
C    0.0000000    0.0000000    1.4700000  
C    1.0541688    0.0001722    2.3260392  
C    0.5103138    0.0000454    3.6635956  
C   -0.9576371   -0.0002459    3.5155732  
N   -1.2018458    0.0001392    2.1615969  
C   -1.8348311   -0.0008317    4.5510609  
C   -1.2972847   -0.0009736    5.9014604  
O   -2.0050672   -0.0014265    6.9001319  
C    0.2542623   -0.0004184    6.0817573  
O    0.7184670   -0.0002256    7.2139121  
C    1.0974552   -0.0000873    4.8889129  
H    2.0940752    0.0005483    2.0517982  
H   -2.9081052   -0.0011668    4.4207061  
H    2.1707277    0.0000911    5.0223670  
H   -2.1128194   -0.0014912    1.7406791  
