64

C   -3.2523869    0.0028874   -7.4031933  
C   -4.0262266    0.0045985   -6.2658117  
C   -5.3883967    0.0057791   -6.6890029  
C   -5.3835645    0.0044156   -8.1074181  
N   -4.0706588    0.0046250   -8.5085337  
C   -6.5569211    0.0047498   -8.8676958  
C   -7.7570173    0.0061851   -8.1836317  
O   -8.9328811    0.0062208   -8.8767109  
C   -7.7824173    0.0079346   -6.7686517  
O   -9.0548790    0.0096456   -6.2355626  
C   -6.6252629    0.0078794   -6.0179725  
H   -3.6546348    0.0060574   -5.2554104  
H   -3.7549805   -0.0067138   -9.4615285  
H   -6.5599981    0.0038605   -9.9489885  
H   -9.6386452    0.0076224   -8.2170445  
H   -8.9827144    0.0107303   -5.2761902  
H   -6.6761401    0.0094260   -4.9354352  
C    0.0139742    0.0003878   -4.4216236  
C    1.0636155   -0.0005662   -5.3108478  
C    0.4994411   -0.0004403   -6.6209270  
C   -0.9105910    0.0009033   -6.4668693  
N   -1.1713317   -0.0005742   -5.1190459  
C   -1.7901139    0.0016902   -7.5537126  
C   -1.2361256    0.0014174   -8.8191278  
O   -2.0490856    0.0025059   -9.9155342  
C    0.1683267   -0.0002925   -8.9932780  
O    0.5645633   -0.0007731  -10.3147699  
C    1.0365985   -0.0013429   -7.9215366  
H    2.1075078   -0.0023718   -5.0476387  
H   -2.0858187    0.0104505   -4.7048318  
H   -1.4673445    0.0017908  -10.6867933  
H    1.5262030   -0.0019167  -10.3439552  
H    2.1077731   -0.0028289   -8.0860410  
C    3.2798085    0.0005856   -1.4499646  
C    2.5571146    0.0005565   -2.5996553  
C    1.1637435    0.0001548   -2.2210360  
C    1.1336964   -0.0000200   -0.7459470  
N    2.4483515   -0.0001429   -0.3402716  
C    0.0000000    0.0000000    0.0000000  
C   -1.2757368   -0.0000187   -0.6964415  
O   -2.3524594   -0.0000640   -0.1142314  
C   -1.2676495   -0.0000873   -2.2584081  
O   -2.3355761   -0.0004101   -2.8557295  
C    0.0181563    0.0001759   -2.9516296  
H    2.9547358    0.0006075   -3.5989104  
H    4.3498547    0.0008611   -1.3200019  
H    2.7563628    0.0012823    0.6148064  
C    2.5285572    2.1210227    2.9438989  
C    1.9331703    1.6216660    4.0790748  
C    0.8903039    0.7472258    3.6520102  
C    0.8972198    0.7527806    2.2336141  
N    1.9028376    1.5986179    1.8362361  
C    0.0000000    0.0000000    1.4700000  
C   -0.9207814   -0.7726952    2.1506477  
O   -1.8198395   -1.5274828    1.4542253  
C   -0.9436862   -0.7911793    3.5655508  
O   -1.9197945   -1.6098497    4.0950179  
C   -0.0590329   -0.0485852    4.3195194  
H    2.2150357    1.8593692    5.0905303  
H    2.1533708    1.7953814    0.8841339  
H   -2.3621246   -1.9821033    2.1118817  
H   -1.8668290   -1.5649508    5.0545920  
H   -0.1007624   -0.0827977    5.4019087  
H    3.3491200    2.8096064    2.8367138  
