62

C   -0.3588475   -0.0127543   -8.7343753  
C    0.4001544   -0.6877392   -9.6621581  
C   -0.0970722   -0.3262473  -10.9492819  
C   -1.1684375    0.5799507  -10.7421395  
N   -1.3019731    0.7469457   -9.3860804  
C   -1.8956409    1.1444934  -11.7944018  
C   -1.5345357    0.7879710  -13.0791874  
O   -2.2110440    1.3100142  -14.1435281  
C   -0.4686790   -0.1149372  -13.3061731  
O   -0.2313159   -0.3703916  -14.6409942  
C    0.2489867   -0.6724687  -12.2685614  
H    1.2115836   -1.3590350   -9.4386899  
H   -1.9746583    1.3426304   -8.9381563  
H   -2.7133404    1.8356528  -11.6431761  
H   -1.8043648    0.9356179  -14.9358058  
H    0.5029855   -0.9885486  -14.7064710  
H    1.0602205   -1.3612733  -12.4733192  
C    2.2882819   -2.1097771   -5.8897962  
C    1.6780090   -1.6459964   -7.0107556  
C    0.6303822   -0.7506089   -6.5799497  
C    0.6807208   -0.7305952   -5.1055495  
N    1.7068262   -1.5753512   -4.7500426  
C   -0.1496415   -0.0015615   -4.3176961  
C   -1.1605340    0.8179094   -4.9650744  
O   -1.9554939    1.5101850   -4.3429051  
C   -1.2321583    0.8117729   -6.5254071  
O   -2.0792929    1.4975134   -7.0816292  
C   -0.2825939   -0.0147701   -7.2663562  
H    1.9325531   -1.9020644   -8.0237955  
H    3.1137392   -2.7971815   -5.8004311  
H    1.9909865   -1.7716676   -3.8078326  
C    3.3003543    0.0005276   -1.4738987  
C    2.5232814    0.0003497   -2.6090747  
C    1.1623200   -0.0001320   -2.1820103  
C    1.1711883    0.0000582   -0.7636140  
N    2.4852300   -0.0014919   -0.3662360  
C    0.0000000    0.0000000    0.0000000  
C   -1.2020384    0.0000519   -0.6806477  
O   -2.3759249    0.0003493    0.0157743  
C   -1.2314656   -0.0005115   -2.0955510  
O   -2.5054392   -0.0008039   -2.6250180  
C   -0.0764516   -0.0007274   -2.8495195  
H    2.8919955   -0.0005620   -3.6205304  
H    2.8036267    0.0088183    0.5858662  
H   -3.0835638    0.0000347   -0.6418818  
H   -2.4360047   -0.0011529   -3.5845921  
H    4.3715549    0.0004895   -1.3667136  
C    2.4951002    2.0940188    2.9809380  
C    1.9440701    1.6314916    1.8291961  
C    0.8759964    0.7350050    2.2038498  
C    0.8497377    0.7130254    3.6788474  
N    1.8560616    1.5571714    4.0882609  
C   -0.0205033   -0.0168748    4.4215661  
C   -0.9962600   -0.8356168    3.7214979  
O   -1.8224391   -1.5286685    4.3006425  
C   -0.9864710   -0.8277881    2.1595606  
O   -1.8030528   -1.5133726    1.5592035  
C    0.0000000    0.0000000    1.4700000  
H    2.2509283    1.8888011    0.8310761  
H   -0.0229599   -0.0187323    5.5027230  
H    3.3143982    2.7817323    3.1139444  
H    2.0889452    1.7545833    5.0442112  
