60

C   -3.9438581    0.7115239   -6.2057833  
C   -5.2946050    0.4616148   -6.2799241  
C   -5.4911850   -0.4468057   -7.3619260  
C   -4.2135044   -0.7181001   -7.9149704  
N   -3.2966998    0.0026947   -7.1907178  
C   -4.0268928   -1.5773478   -9.0020119  
C   -5.1505287   -2.1738228   -9.5403761  
O   -5.0253746   -3.0218815  -10.6025180  
C   -6.4338759   -1.9153925   -9.0027413  
O   -7.4524322   -2.5847109   -9.6491913  
C   -6.6187479   -1.0676252   -7.9305282  
H   -6.0459486    0.8831635   -5.6343447  
H   -3.0557661   -1.7881543   -9.4282445  
H   -5.9176738   -3.3226636  -10.8183798  
H   -8.2846819   -2.3552479   -9.2245600  
H   -7.6139213   -0.8888614   -7.5404613  
H   -3.3910218    1.3404257   -5.5291643  
C    0.0950448    0.0004350   -4.4015596  
C    1.1192393    0.0002595   -5.2932436  
C    0.5298381    0.0006948   -6.6113645  
C   -0.9321737    0.0011708   -6.4130916  
N   -1.1298099    0.0005872   -5.0515376  
C   -1.8443594    0.0020607   -7.4178900  
C   -1.3534356    0.0023587   -8.7859286  
O   -2.0950470    0.0030850   -9.7597423  
C    0.1910164    0.0016124   -9.0193234  
O    0.6161255    0.0015485  -10.1667301  
C    1.0746172    0.0009550   -7.8560944  
H    2.1679381   -0.0003126   -5.0548237  
H    2.1426822    0.0006460   -8.0262737  
H   -2.0258137    0.0022753   -4.5996288  
C    3.3321173    0.0004714   -1.3379336  
C    2.6974184    0.0000115   -2.5332313  
C    1.2800437   -0.0002119   -2.2052840  
C    1.2395034    0.0000643   -0.7271298  
N    2.4394063    0.0005459   -0.2131037  
C    0.0000000    0.0000000    0.0000000  
C   -1.1468702    0.0000634   -0.7169544  
O   -2.3742202    0.0000072   -0.1695489  
C   -1.1388770    0.0001606   -2.2096356  
O   -2.2206231    0.0000903   -2.7970412  
C    0.1454523    0.0001814   -2.9324241  
H    3.1367986   -0.0000653   -3.5160949  
H   -2.9844345    0.0001025   -0.9290168  
H    4.3940040    0.0007618   -1.1498638  
C    2.5528530    2.1414826    2.8079335  
C    2.0663498    1.7338582    4.0032312  
C    0.9804344    0.8229586    3.6752840  
C    0.9495562    0.7966882    2.1971295  
N    1.8690446    1.5676019    1.6831036  
C    0.0000000    0.0000000    1.4700000  
C   -0.8785127   -0.7372425    2.1869543  
O   -1.8187535   -1.5261249    1.6395491  
C   -0.8723269   -0.7321790    3.6796354  
O   -1.7010379   -1.4274584    4.2670412  
C    0.1115397    0.0933559    4.4024240  
H    2.4028853    2.0163452    4.9860947  
H   -2.2861435   -1.9184361    2.3990168  
H    0.0832434    0.0693689    5.4835595  
H    3.3664920    2.8238276    2.6198634  
