62

C   -0.3030212   -0.4454259   -9.6551713  
C   -0.7776061    0.7820663   -9.2545470  
C   -0.4478555    1.7122899  -10.2843770  
C    0.2328743    0.9885252  -11.2966500  
N    0.3054145   -0.3181376  -10.8819365  
C    0.7067054    1.5889480  -12.4670194  
C    0.4891174    2.9446461  -12.6183995  
O    0.9305907    3.5812026  -13.7421913  
C   -0.1877341    3.6840263  -11.6193974  
O   -0.3258042    5.0240084  -11.9172692  
C   -0.6552160    3.0924023  -10.4644212  
H    0.7249905   -1.0689498  -11.3998341  
H    1.2263947    1.0429142  -13.2422448  
H    0.6792988    4.5091262  -13.6469289  
H   -0.7930170    5.4501842  -11.1922241  
H   -1.1699745    3.6845314   -9.7168358  
H   -0.3491322   -1.4013868   -9.1622500  
C   -0.1938777   -0.6741357   -5.1271791  
C   -0.0850112   -0.4444576   -6.4611477  
C   -1.1306716    0.4863328   -6.8147845  
C   -1.8628865    0.7822420   -5.5685545  
N   -1.2456329    0.0471727   -4.5828766  
C   -2.9252687    1.6222089   -5.4819281  
C   -3.3778801    2.2784531   -6.6972557  
O   -4.3258446    3.0524080   -6.7229092  
C   -2.6173816    1.9795654   -8.0284638  
O   -2.9895257    2.5259815   -9.0581235  
C   -1.4861970    1.0558654   -7.9960431  
H    0.6444308   -0.8777807   -7.1220245  
H   -3.4482354    1.8256019   -4.5577812  
H    0.4056142   -1.3098174   -4.4959836  
C    1.1243410    0.0099923   -0.7919003  
C    0.7474076    0.0234544   -2.1148543  
C   -0.6787381    0.0234490   -2.1414700  
C   -1.1201745    0.0098592   -0.7935546  
N    0.0000000    0.0000000    0.0000000  
C   -2.4730816    0.0063709   -0.4408240  
C   -3.3971958    0.0170982   -1.4675058  
O   -4.7313517    0.0146259   -1.1793471  
C   -2.9763648    0.0303504   -2.8186324  
O   -4.0166480    0.0395118   -3.7247624  
C   -1.6418562    0.0335260   -3.1673481  
H    1.4178717    0.0310972   -2.9571209  
H   -2.8160166   -0.0041111    0.5845966  
H   -5.1938818    0.0230867   -2.0274384  
H   -3.6464675    0.0482293   -4.6127343  
H    2.1062467    0.0052819   -0.3505407  
C    0.0000000    0.0000000    1.4700000  
C    1.0541688    0.0001722    2.3260392  
C    0.5103138    0.0000454    3.6635956  
C   -0.9576371   -0.0002459    3.5155732  
N   -1.2018458    0.0001392    2.1615969  
C   -1.8348311   -0.0008317    4.5510609  
C   -1.2972847   -0.0009736    5.9014604  
O   -2.0050672   -0.0014265    6.9001319  
C    0.2542623   -0.0004184    6.0817573  
O    0.7184670   -0.0002256    7.2139121  
C    1.0974552   -0.0000873    4.8889129  
H    2.0940752    0.0005483    2.0517982  
H   -2.9081052   -0.0011668    4.4207061  
H    2.1707277    0.0000911    5.0223670  
H   -2.1128194   -0.0014912    1.7406791  
