64

C   -3.9582760    0.7120058   -2.0436188  
C   -5.3029541    0.4626404   -2.1923631  
C   -5.4397014   -0.4462353   -3.2831635  
C   -4.1334667   -0.7183544   -3.7644416  
N   -3.2578668    0.0024075   -2.9908496  
C   -3.8873084   -1.5782237   -4.8390672  
C   -4.9796641   -2.1744844   -5.4385752  
O   -4.7962429   -3.0231259   -6.4917497  
C   -6.2907081   -1.9152347   -4.9729900  
O   -7.2721903   -2.5844372   -5.6745620  
C   -6.5343135   -1.0668536   -3.9130690  
H   -6.0887189    0.8848335   -1.5896018  
H   -2.8941553   -1.7896600   -5.2107429  
H   -5.6753504   -3.3236326   -6.7565737  
H   -8.1265825   -2.3544052   -5.2968003  
H   -3.4434885    1.3410074   -1.3377083  
C    0.0000000    0.0000000    0.0000000  
C    1.0521662   -0.0011926   -0.8862348  
C    0.4917201   -0.0011978   -2.1979136  
C   -0.9187443    0.0003152   -2.0478679  
N   -1.1833179   -0.0009398   -0.7007910  
C   -1.7951714    0.0010364   -3.1372085  
C   -1.2375860    0.0005225   -4.4010420  
O   -2.0474239    0.0015367   -5.4997571  
C    0.1673556   -0.0013588   -4.5711966  
O    0.5673499   -0.0020723   -5.8915559  
C    1.0325755   -0.0023445   -3.4969896  
H    2.0953053   -0.0030687   -0.6200571  
H   -2.0989783    0.0102402   -0.2891815  
H   -1.4634913    0.0006492   -6.2693588  
H    1.5290683   -0.0033204   -5.9180051  
H    2.1042132   -0.0039660   -3.6584464  
C   -7.9113172   -0.8235304   -3.4596884  
C   -8.3812392   -0.0282061   -2.4403262  
C   -9.8018725   -0.1560941   -2.4335580  
C  -10.1442492   -1.0503744   -3.4799643  
N   -8.9730906   -1.4352549   -4.0840116  
C  -11.4647708   -1.4101431   -3.7655814  
C  -12.4577331   -0.8573010   -2.9803610  
O  -13.7642102   -1.1747513   -3.2156385  
C  -12.1361114    0.0371920   -1.9319059  
O  -13.2360077    0.5025306   -1.2412303  
C  -10.8336230    0.3927694   -1.6497442  
H   -7.7747945    0.5713343   -1.7832342  
H   -8.9002963   -2.0756790   -4.8537769  
H  -11.7323200   -2.0910759   -4.5617908  
H  -14.2852110   -0.6872110   -2.5643875  
H  -12.9315164    1.0999019   -0.5512765  
H  -10.6179810    1.0804415   -0.8403716  
C    3.3321173   -0.0004715    2.8079335  
C    2.6974184   -0.0000116    4.0032312  
C    1.2800439    0.0002118    3.6752840  
C    1.2395035   -0.0000644    2.1971295  
N    2.4394063   -0.0005460    1.6831036  
C    0.0000000    0.0000000    1.4700000  
C   -1.1468701   -0.0000635    2.1869543  
O   -2.3742202   -0.0000073    1.6395491  
C   -1.1388768   -0.0001607    3.6796354  
O   -2.2206231   -0.0000905    4.2670412  
C    0.1454524   -0.0001816    4.4024240  
H    3.1367986    0.0000651    4.9860947  
H   -2.9844344   -0.0001026    2.3990168  
H    0.1083576   -0.0003682    5.4835595  
H    4.3940039   -0.0007619    2.6198634  
