60

C    5.0389062   -2.7785986   -7.3195819  
C    5.9601442   -2.2538876   -8.1962045  
C    5.6726705   -0.8621385   -8.3186503  
C    4.5561598   -0.5929574   -7.4862609  
N    4.1952150   -1.7786040   -6.8958562  
C    3.9972525    0.6823365   -7.3596269  
C    4.5761874    1.7045740   -8.0862916  
O    4.0704768    2.9693770   -7.9994328  
C    5.6904584    1.4557666   -8.9225409  
O    6.1527850    2.5766814   -9.5806809  
C    6.2421870    0.1978557   -9.0481614  
H    6.7423631   -2.8065009   -8.6878800  
H    3.4407914   -1.8962793   -6.2439513  
H    4.6133159    3.5207972   -8.5778158  
H    6.9052798    2.3220202  -10.1233628  
H    7.0956126    0.0377126   -9.6966195  
H    4.9160116   -3.7873261   -6.9641616  
C    2.8494834   -0.7287730   -3.3362168  
C    3.4912468   -0.5137437   -4.5134920  
C    2.6833704    0.4134335   -5.2701384  
C    1.5099399    0.7231864   -4.4311485  
N    1.6707636   -0.0012343   -3.2725974  
C    0.5077408    1.5643698   -4.7913042  
C    0.5901949    2.2074066   -6.0921655  
O   -0.2621867    2.9813187   -6.5078658  
C    1.8239371    1.8937370   -6.9973163  
O    1.9040961    2.4289607   -8.0947544  
C    2.8403299    0.9701079   -6.4996155  
H    4.4240235   -0.9544939   -4.8172678  
H   -0.3442074    1.7780236   -4.1608710  
H    3.1383512   -1.3576871   -2.5098315  
C    1.0965514    0.0001358   -0.8010306  
C    0.0000000    0.0000000    0.0000000  
C   -1.1546565    0.0001470   -0.8669508  
C   -0.6372019    0.0003520   -2.2486278  
N    0.7342867    0.0007338   -2.1395012  
C   -1.4147744    0.0001354   -3.3608712  
C   -2.8576052   -0.0001047   -3.1854454  
O   -3.6427785   -0.0002490   -4.1244896  
C   -3.4275841   -0.0000727   -1.7311660  
O   -4.6406832    0.0000333   -1.5710049  
C   -2.4891868   -0.0001090   -0.6116739  
H   -1.0150456    0.0001617   -4.3654239  
H   -2.8919122   -0.0002919    0.3920871  
H    2.1388270    0.0000663   -0.5261650  
C    0.0000000    0.0000000    1.4700000  
C    1.0662921    0.0000102    2.3034270  
C    0.4961870   -0.0000064    3.6418889  
C   -0.9663858    0.0000850    3.4240247  
N   -1.2632773    0.0000084    2.1528658  
C   -1.8985362    0.0000517    4.5177257  
C   -1.3925775   -0.0004564    5.7720543  
O   -2.1456383   -0.0005410    6.8851312  
C    0.0786232   -0.0009323    6.0245000  
O    0.4683759   -0.0012588    7.1921102  
C    1.0143166   -0.0008442    4.8859032  
H    2.1107198   -0.0000632    2.0421868  
H   -2.9622183    0.0003270    4.3293377  
H   -1.5042274   -0.0009692    7.6184419  
H    2.0724152   -0.0013148    5.1109744  
