62

C    3.3003545    0.0005278   -1.4738990  
C    2.5232811    0.0003501   -2.6090748  
C    1.1623201   -0.0001316   -2.1820103  
C    1.1711885    0.0000584   -0.7636139  
N    2.4852301   -0.0014918   -0.3662354  
C    0.0000000    0.0000000    0.0000000  
C   -1.2020382    0.0000521   -0.6806474  
O   -2.3759248    0.0003495    0.0157751  
C   -1.2314658   -0.0005109   -2.0955506  
O   -2.5054388   -0.0008033   -2.6250176  
C   -0.0764518   -0.0007268   -2.8495194  
H    2.8919955   -0.0005615   -3.6205301  
H    2.8036267    0.0088180    0.5858660  
H   -3.0835639    0.0000349   -0.6418815  
H   -2.4360047   -0.0011523   -3.5845918  
H    4.3715547    0.0004897   -1.3667132  
C   -0.1496417   -0.0015607   -4.3176960  
C    0.8605984   -0.0020136   -5.2251594  
C    0.2508224   -0.0027513   -6.5339785  
C   -1.2079382   -0.0026611   -6.3130517  
N   -1.3844308   -0.0023257   -4.9485959  
C   -2.1356004   -0.0028332   -7.3035804  
C   -1.6659559   -0.0033528   -8.6790693  
O   -2.4225834   -0.0036039   -9.6412618  
C   -0.1253098   -0.0037089   -8.9363920  
O    0.2819500   -0.0044537  -10.0902551  
C    0.7762279   -0.0031995   -7.7870091  
H    1.9128694   -0.0020322   -5.0030341  
H    1.8415248   -0.0032451   -7.9737351  
H   -2.2733179   -0.0006336   -4.4828447  
C   -4.6491676    2.0924655   -4.3391015  
C   -3.6078113    1.6295641   -5.0775959  
C   -4.1585481    0.7328359   -6.0662325  
C   -5.6165781    0.7111222   -5.8415817  
N   -5.8490117    1.5556372   -4.7806112  
C   -6.4964092   -0.0188938   -6.5727991  
C   -5.9723494   -0.8380500   -7.6530209  
O   -6.6834941   -1.5312351   -8.3686100  
C   -4.4314419   -0.8305081   -7.9086637  
O   -3.9785914   -1.5164419   -8.8151303  
C   -3.5842424   -0.0025605   -7.0539081  
H   -2.5720405    1.8867779   -4.9448041  
H   -7.5622754   -0.0205515   -6.3915898  
H   -4.6409960    2.7804425   -3.5093362  
H   -6.7514923    1.7532944   -4.3888107  
C    2.5311839    2.1237619    3.0120429  
C    1.9795631    1.6616747    1.8395852  
C    0.9223175    0.7739173    2.1983588  
C    0.8753926    0.7337535    3.6154372  
N    1.8668922    1.5631002    4.0777464  
C   -0.0496243   -0.0427881    4.3197917  
C   -0.9437528   -0.7922060    3.5801400  
O   -1.8685244   -1.5680278    4.2172520  
C   -0.9124520   -0.7656372    2.1655264  
O   -1.8671164   -1.5663939    1.5732860  
C    0.0000000    0.0000000    1.4700000  
H    2.3005065    1.9304404    0.8477417  
H    2.0679347    1.7444845    5.0445261  
H   -0.0904770   -0.0778569    5.3997470  
H   -2.3849669   -2.0011402    3.5251786  
H   -1.7775064   -1.4909735    0.6183591  
H    3.3468514    2.8078103    3.1724291  
