64

C    1.3344204   -0.9822341   -9.4317149  
C    1.7714803   -0.5673096  -10.6683576  
C    1.5243796    0.8352437  -10.7482665  
C    0.9304266    1.2238508   -9.5202062  
N    0.8277617    0.0958840   -8.7444689  
C    0.5520661    2.5417436   -9.2467254  
C    0.7776813    3.4845695  -10.2307763  
O    0.4276753    4.7862667  -10.0160834  
C    1.3688101    3.1162550  -11.4627379  
O    1.5271653    4.1691470  -12.3400560  
C    1.7420739    1.8162613  -11.7333224  
H    2.2129648   -1.1981553  -11.4207666  
H    0.0988066    2.8443411   -8.3128139  
H    0.6678943    5.2693358  -10.8174595  
H    1.9325360    3.8350863  -13.1460838  
H    2.1925528    1.5641187  -12.6861979  
H    1.3427001   -1.9621837   -8.9860824  
C    2.0818086   -2.1200044   -5.0693006  
C    2.0013922   -1.6205814   -6.3485880  
C    0.8747655   -0.7464877   -6.3842578  
C    0.3022093   -0.7523126   -5.0865395  
N    1.0583530   -1.5979707   -4.3134121  
C   -0.8287665    0.0000939   -4.7555305  
C   -1.3918308    0.7726859   -5.7526456  
O   -2.4970631    1.5271116   -5.4837280  
C   -0.8353008    0.7914353   -7.0536990  
O   -1.5105881    1.6099590   -7.9353732  
C    0.2802630    0.0492103   -7.3810303  
H    2.6715814   -1.8580190   -7.1569591  
H    0.8985640   -1.7948529   -3.3419770  
H   -2.7238718    1.9817206   -6.3054050  
H   -1.0706022    1.5652576   -8.7897836  
H    2.7873940   -2.8084002   -4.6366114  
C    1.0672569   -0.0000698   -0.8321910  
C    0.0000000    0.0000000    0.0000000  
C   -1.1601223   -0.0000736   -0.8778472  
C   -0.5938729   -0.0000768   -2.2438435  
N    0.7113367   -0.0001553   -2.2234123  
C   -1.4286985   -0.0001877   -3.4135239  
C   -2.7683113   -0.0006798   -3.2270524  
O   -3.6653902   -0.0008302   -4.2276970  
C   -3.3702024   -0.0010610   -1.8610774  
O   -4.5974910   -0.0013779   -1.7662963  
C   -2.4926825   -0.0008943   -0.6770658  
H   -4.5324245   -0.0012258   -3.7833954  
H   -2.9677772   -0.0012974    0.2947961  
H    2.1134391   -0.0000547   -0.5705119  
C    2.5285572    2.1210227    2.9438989  
C    1.9331703    1.6216660    4.0790748  
C    0.8903039    0.7472258    3.6520102  
C    0.8972198    0.7527806    2.2336141  
N    1.9028376    1.5986179    1.8362361  
C    0.0000000    0.0000000    1.4700000  
C   -0.9207814   -0.7726952    2.1506477  
O   -1.8198395   -1.5274828    1.4542253  
C   -0.9436862   -0.7911793    3.5655508  
O   -1.9197945   -1.6098497    4.0950179  
C   -0.0590329   -0.0485852    4.3195194  
H    2.2150357    1.8593692    5.0905303  
H    2.1533708    1.7953814    0.8841339  
H   -2.3621246   -1.9821033    2.1118817  
H   -1.8668290   -1.5649508    5.0545920  
H   -0.1007624   -0.0827977    5.4019087  
H    3.3491200    2.8096064    2.8367138  
