60

C    0.5486496   -0.7097072   -5.2160866  
C    0.2216139   -0.4592711   -6.5286400  
C   -0.8774659    0.4498517   -6.5177136  
C   -1.1798183    0.7210113   -5.1586764  
N   -0.2963289   -0.0005348   -4.3948470  
C   -2.2117132    1.5808265   -4.7704765  
C   -2.9516735    2.1780189   -5.7724740  
O   -3.9706965    3.0266526   -5.4493235  
C   -2.6655126    1.9197343   -7.1341709  
O   -3.4917885    2.5897948   -8.0125953  
C   -1.6478464    1.0714073   -7.5178672  
H    0.7138729   -0.8809275   -7.3882216  
H   -2.4472968    1.7915347   -3.7364050  
H   -4.3505467    3.3278805   -6.2849321  
H   -3.2316367    2.3603821   -8.9099785  
H   -1.4522912    0.8927719   -8.5687367  
H    1.3168717   -1.3392020   -4.8007205  
C    3.1301148   -0.0010315   -1.7028253  
C    2.5367766   -0.0002767   -0.4864666  
C    1.1089903    0.0001025   -0.7656183  
C    1.0177867   -0.0004153   -2.2415131  
N    2.1993574   -0.0011616   -2.7963821  
C   -0.2459218   -0.0002884   -2.9257117  
C   -1.3675324   -0.0000610   -2.1698519  
O   -2.6129318    0.0000862   -2.6748483  
C   -1.3083588    0.0000908   -0.6783229  
O   -2.3693264    0.0004202   -0.0541688  
C    0.0000000    0.0000000    0.0000000  
H    3.0096015   -0.0001006    0.4807520  
H   -3.1967441    0.0002093   -1.8949029  
C    6.5698747   -0.0006428    0.9721603  
C    7.6069602   -0.0018571    0.1026602  
C    6.9912939   -0.0024309   -1.2154652  
C    5.5370519   -0.0015110   -0.9475768  
N    5.2839241   -0.0003803    0.3330149  
C    4.5679459   -0.0016858   -2.0086704  
C    5.0305951   -0.0023432   -3.2796108  
O    4.2398089   -0.0025856   -4.3662103  
C    6.4922740   -0.0029076   -3.5823567  
O    6.8417591   -0.0036182   -4.7626446  
C    7.4664602   -0.0027586   -2.4765150  
H    8.6597315   -0.0022174    0.3279326  
H    4.8556972   -0.0030421   -5.1210842  
H    8.5162190   -0.0030663   -2.7377369  
H    6.6068542    0.0001033    2.0499385  
C    2.5128556    2.1077716    2.9199648  
C    1.9592212    1.6432552    4.0696553  
C    0.8915788    0.7479214    3.6910360  
C    0.8684491    0.7287414    2.2159470  
N    1.8754542    1.5738793    1.8102719  
C    0.0000000    0.0000000    1.4700000  
C   -0.9772830   -0.8200135    2.1664417  
O   -1.8021297   -1.5120829    1.5842315  
C   -0.9711318   -0.8147624    3.7284083  
O   -1.7894187   -1.5009653    4.3257297  
C    0.0140216    0.0115358    4.4216297  
H    2.2638494    1.8988021    5.0689105  
H    0.0117648    0.0094386    5.5031631  
H    3.3327358    2.7953732    2.7900019  
H    2.1123206    1.7707734    0.8551938  
