62

C    1.1188652    0.0008224   -0.8003802  
C    0.0000000    0.0000000    0.0000000  
C   -1.1323853    0.0008890   -0.8673533  
C   -0.6382643    0.0019671   -2.1969285  
N    0.7324033    0.0038480   -2.1202239  
C   -1.4770893    0.0027306   -3.3154817  
C   -2.8395456    0.0020923   -3.0876872  
O   -3.7039175    0.0024398   -4.1440366  
C   -3.3517859    0.0013910   -1.7684347  
O   -4.7300482    0.0012340   -1.7073141  
C   -2.5248534    0.0009109   -0.6644831  
H   -1.1067543    0.0036975   -4.3313818  
H   -4.5940006    0.0021799   -3.7685155  
H   -4.9934591    0.0007236   -0.7819939  
H   -2.9462571    0.0005587    0.3339638  
H    2.1619903    0.0009362   -0.5342058  
C    2.8040021   -0.7159408   -3.3653690  
C    1.6478457   -0.0100099   -3.2702992  
C    1.4957399    0.7174269   -4.5082553  
C    2.6664319    0.3749497   -5.3383031  
N    3.4207028   -0.4973419   -4.5879215  
C    2.8929145    0.8595980   -6.5855108  
C    1.9187493    1.7801252   -7.1477982  
O    2.0328527    2.2713027   -8.2631573  
C    0.6714812    2.1569266   -6.2863179  
O   -0.1553079    2.9312412   -6.7490459  
C    0.5367524    1.5697089   -4.9555753  
H   -0.3298157    1.8355597   -4.3655693  
H    3.2575091   -1.3773148   -2.6450879  
H    4.2849208   -0.9128926   -4.8837121  
C    5.0407061   -2.9505037   -7.1909428  
C    4.1715634   -1.9884896   -6.7869685  
C    4.5731657   -0.7606039   -7.4318308  
C    5.7559868   -1.0884768   -8.2505029  
N    5.9879667   -2.4311947   -8.0602845  
C    6.4330053   -0.1952858   -9.0157224  
C    5.9656469    1.1808586   -9.0340712  
O    6.5076350    2.0596763   -9.6915117  
C    4.7149869    1.5505636   -8.1744348  
O    4.3124750    2.7060685   -8.1816959  
C    4.0692646    0.5005550   -7.3906130  
H    3.3437122   -2.1235706   -6.1138943  
H    7.2983202   -0.4564784   -9.6089508  
H    5.0690430   -3.9950989   -6.9265419  
H    6.7297842   -2.9538610   -8.4887408  
C    0.8576279    0.7185626    2.2703808  
C    0.0000000    0.0000000    1.4700000  
C   -0.8668858   -0.7285659    2.3373528  
C   -0.4876752   -0.4117774    3.6669281  
N    0.5635254    0.4678311    3.5902241  
C   -1.1297612   -0.9515493    4.7854808  
C   -2.1738724   -1.8268314    4.5576857  
O   -2.8357962   -2.3827064    5.6140350  
C   -2.5667212   -2.1555554    3.2384331  
O   -3.6226318   -3.0413663    3.1773122  
C   -1.9335634   -1.6236449    2.1344818  
H    1.0363952    0.8769718    4.3757045  
H   -0.8454472   -0.7142436    5.8013813  
H   -3.5178062   -2.9546422    5.2385129  
H   -3.8247440   -3.2102924    2.2519915  
H   -2.2566033   -1.8942483    1.1360343  
H    1.6567807    1.3889844    2.0042067  
