62

C    3.4563083   -0.7177420   -2.8470533  
C    2.5562222   -0.0001542   -3.6002998  
C    3.3099822    0.7271499   -4.5685324  
C    4.6761873    0.4106312   -4.3558679  
N    4.7297760   -0.4676079   -3.3020927  
C    5.7069662    0.9493902   -5.1317700  
C    5.3520796    1.8233623   -6.1409306  
O    6.3186822    2.3782086   -6.9288638  
C    3.9944357    2.1517966   -6.3684186  
O    3.8034936    3.0362546   -7.4098688  
C    2.9770454    1.6208856   -5.6031889  
H    5.5676007   -0.8762676   -2.9292279  
H    6.7501838    0.7122837   -4.9746748  
H    5.8618777    2.9493258   -7.5600682  
H    2.8603065    3.2050726   -7.4964778  
H    1.9463687    1.8912366   -5.8009102  
H    3.2907748   -1.3870883   -2.0202927  
C    0.0000000    0.0000000    0.0000000  
C    1.0541691   -0.0001719   -0.8560389  
C    0.5103143   -0.0000448   -2.1935953  
C   -0.9576364    0.0002464   -2.0455731  
N   -1.2018458   -0.0001389   -0.6915972  
C   -1.8348303    0.0008322   -3.0810611  
C   -1.2972837    0.0009745   -4.4314603  
O   -2.0050658    0.0014276   -5.4301322  
C    0.2542633    0.0004194   -4.6117570  
O    0.7184681    0.0002269   -5.7439118  
C    1.0974560    0.0000881   -3.4189126  
H    2.0940754   -0.0005481   -0.5817976  
H   -2.1128195    0.0014913   -0.2706792  
C   -3.9849984    0.7198453   -1.9557684  
C   -3.2941065    0.0012879   -2.9038247  
C   -4.2599014   -0.7267531   -3.6599970  
C   -5.5339476   -0.4096645   -3.1231661  
N   -5.3307590    0.4696097   -2.0886572  
C   -6.7219417   -0.9489000   -3.6258435  
C   -6.6219958   -1.8239443   -4.6900268  
O   -7.7506376   -2.3792965   -5.2199006  
C   -5.3598455   -2.1529614   -5.2391545  
O   -5.4267845   -3.0384793   -6.2949580  
C   -4.1874260   -1.6215800   -4.7435820  
H   -6.0533555    0.8788542   -1.5244277  
H   -7.6960694   -0.7113634   -3.2210567  
H   -7.4602800   -2.9511474   -5.9423581  
H   -4.5326407   -3.2076324   -6.6072040  
H   -3.2353036   -1.8923973   -5.1847160  
H   -3.6241829    1.3899486   -1.1943663  
C    3.3321173   -0.0004715    2.8079335  
C    2.6974184   -0.0000116    4.0032312  
C    1.2800439    0.0002118    3.6752840  
C    1.2395035   -0.0000644    2.1971295  
N    2.4394063   -0.0005460    1.6831036  
C    0.0000000    0.0000000    1.4700000  
C   -1.1468701   -0.0000635    2.1869543  
O   -2.3742202   -0.0000073    1.6395491  
C   -1.1388768   -0.0001607    3.6796354  
O   -2.2206231   -0.0000905    4.2670412  
C    0.1454524   -0.0001816    4.4024240  
H    3.1367986    0.0000651    4.9860947  
H   -2.9844344   -0.0001026    2.3990168  
H    0.1083576   -0.0003682    5.4835595  
H    4.3940039   -0.0007619    2.6198634  
