62

C    4.4638205   -0.3790151   -8.9303604  
C    5.1800732   -0.2316899  -10.0955848  
C    5.0922561    1.1425986  -10.4673630  
C    4.3032406    1.7905429   -9.4827056  
N    3.9364125    0.8374872   -8.5652421  
C    4.0078519    3.1563459   -9.5287211  
C    4.5185211    3.8813179  -10.5878772  
O    4.2610607    5.2184679  -10.6814586  
C    5.3075521    3.2526949  -11.5803887  
O    5.7418494    4.1096863  -12.5704868  
C    5.5991364    1.9052846  -11.5357763  
H    5.7007717   -1.0182330  -10.6144447  
H    3.4069813    3.6561158   -8.7814687  
H    4.7041969    5.5264255  -11.4827434  
H    6.2671449    3.6060577  -13.1997945  
H    6.2060504    1.4515526  -12.3105412  
H    4.2862438   -1.2558845   -8.3315908  
C    4.1997576   -0.7142333   -4.3804518  
C    4.4285870   -0.4616215   -5.7132274  
C    3.4231705    0.4548822   -6.1418987  
C    2.6024499    0.7280933   -5.0177544  
N    3.1006054    0.0006263   -3.9654951  
C    1.5068388    1.5948438   -5.0740423  
C    1.2349665    2.1969895   -6.2871722  
O    0.1771845    3.0524717   -6.3979040  
C    2.0420041    1.9367625   -7.4202164  
O    1.6419271    2.6123578   -8.5546119  
C    3.1228464    1.0815955   -7.3654835  
H    5.2218489   -0.8865966   -6.3040953  
H    0.8773289    1.8071501   -4.2209039  
H    0.1665252    3.3562377   -7.3148977  
H    2.2389614    2.3811846   -9.2727431  
H    4.7327698   -1.3488805   -3.6933712  
C    3.2798083    0.0005857   -1.4499652  
C    2.5571142    0.0005565   -2.5996556  
C    1.1637432    0.0001548   -2.2210361  
C    1.1336964   -0.0000200   -0.7459473  
N    2.4483512   -0.0001428   -0.3402723  
C    0.0000000    0.0000000    0.0000000  
C   -1.2757368   -0.0000186   -0.6964415  
O   -2.3524598   -0.0000639   -0.1142311  
C   -1.2676497   -0.0000872   -2.2584083  
O   -2.3355766   -0.0004101   -2.8557295  
C    0.0181558    0.0001758   -2.9516296  
H    0.0150788    0.0003319   -4.0331631  
H    4.3498547    0.0008612   -1.3200026  
H    2.7563626    0.0012823    0.6148059  
C    2.3971438    2.0127888    3.1728260  
C    1.9431056    1.6308205    1.9564670  
C    0.8496017    0.7127664    2.2356185  
C    0.7794028    0.6545384    3.7115134  
N    1.6840587    1.4146091    4.2663826  
C   -0.1885723   -0.1578550    4.3957118  
C   -1.0476298   -0.8789867    3.6398520  
O   -2.0015663   -1.6796266    4.1448486  
C   -1.0022026   -0.8410666    2.1483229  
O   -1.8147390   -1.5232959    1.5241687  
C    0.0000000    0.0000000    1.4700000  
H    2.3054237    1.9346118    0.9892483  
H   -0.2170646   -0.1815267    5.4753125  
H   -2.4487139   -2.0549881    3.3649027  
H    3.2048689    2.6911772    3.3971983  
