60

C    1.0942588   -2.7700083   -9.6153681  
C    1.7015636   -2.2435340  -10.7318250  
C    1.3893173   -0.8519916  -10.7585080  
C    0.5819808   -0.5847482   -9.6232920  
N    0.4205814   -1.7712997   -8.9519782  
C    0.0879422    0.6898272   -9.3297410  
C    0.4151124    1.7133254  -10.1978365  
O   -0.0404970    2.9775023   -9.9584816  
C    1.2191172    1.4664565  -11.3360149  
O    1.4562644    2.5884454  -12.1029870  
C    1.7066210    0.2092553  -11.6263768  
H    2.2955380   -2.7948688  -11.4404977  
H   -0.0972461   -1.8903622   -8.1001206  
H    0.2981922    3.5300153  -10.6749193  
H    2.0060651    2.3350744  -12.8507345  
H    2.3199423    0.0506039  -12.5056639  
H    1.0871596   -3.7791777   -9.2405565  
C    0.2315719   -0.7260317   -5.1498914  
C    0.4808493   -0.5092803   -6.4670685  
C   -0.5209816    0.4176777   -6.9381513  
C   -1.3804957    0.7254254   -5.7791358  
N   -0.8712826    0.0001710   -4.7267111  
C   -2.4455074    1.5658335   -5.8133232  
C   -2.7668031    2.2100925   -7.0759531  
O   -3.7062259    2.9834403   -7.2090655  
C   -1.8701922    1.8985510   -8.3164520  
O   -2.1311518    2.4348172   -9.3848993  
C   -0.7493913    0.9755929   -8.1558119  
H    1.2757007   -0.9487527   -7.0429923  
H   -3.0629963    1.7780129   -4.9515821  
H    0.7606229   -1.3553513   -4.4527891  
C    1.0965514    0.0001359   -0.8010305  
C    0.0000000    0.0000000    0.0000000  
C   -1.1546563    0.0001470   -0.8669513  
C   -0.6372014    0.0003519   -2.2486282  
N    0.7342871    0.0007337   -2.1395014  
C   -1.4147739    0.0001352   -3.3608717  
C   -2.8576049   -0.0001048   -3.1854462  
O   -3.6427779   -0.0002494   -4.1244907  
C   -3.4275840   -0.0000725   -1.7311666  
O   -4.6406831    0.0000333   -1.5710060  
C   -2.4891867   -0.0001091   -0.6116744  
H   -2.8919122   -0.0002918    0.3920866  
H    2.1388272    0.0000663   -0.5261648  
H    1.3735872   -0.0006099   -2.9130262  
C    0.8400945    0.7047457    2.2710304  
C    0.0000000    0.0000000    1.4700000  
C   -0.8844236   -0.7423113    2.3369512  
C   -0.4878984   -0.4098547    3.7186280  
N    0.5629682    0.4714286    3.6095011  
C   -1.0836927   -0.9095027    4.8308716  
C   -2.1891196   -1.8367527    4.6554461  
O   -2.7906899   -2.3413415    5.5944904  
C   -2.6257283   -2.2031529    3.2011665  
O   -3.5549479   -2.9829990    3.0410059  
C   -1.9068976   -1.5999348    2.0816745  
H   -0.7774656   -0.6525820    5.8354244  
H   -2.2155208   -1.8586617    1.0779135  
H    1.6384792    1.3747609    1.9961646  
H    1.0518368    0.8833920    4.3830260  
