62

C    2.4963620   -2.1240792   -5.9704919  
C    1.9480114   -1.6619034   -4.7965367  
C    0.8896190   -0.7743524   -5.1524289  
C    0.8386567   -0.7344002   -6.5693737  
N    1.8289587   -1.5636688   -7.0343826  
C   -0.0884740    0.0419043   -7.2712052  
C   -0.9806045    0.7912982   -6.5291205  
O   -1.9072989    1.5668925   -7.1637111  
C   -0.9452756    0.7649386   -5.1145981  
O   -1.8983682    1.5656408   -4.5197594  
C   -0.0307359   -0.0004648   -4.4215606  
H    2.2718145   -1.9304788   -3.8055716  
H    2.0272766   -1.7451631   -8.0017035  
H   -0.1324047    0.0768112   -8.3510451  
H   -2.4218338    2.0000296   -6.4702335  
H   -1.8060311    1.4903718   -3.5650808  
H    3.3116701   -2.8080314   -6.1330999  
C    3.2573667   -0.0002920   -1.5109386  
C    2.5379466   -0.0001709   -0.3591965  
C    1.1435040    0.0000332   -0.7338503  
C    1.1092604   -0.0000083   -2.2088478  
N    2.4227557    0.0001908   -2.6182616  
C   -0.0265538   -0.0002523   -2.9515663  
C   -1.3003040   -0.0002641   -2.2514979  
O   -2.3786787   -0.0004133   -2.8306426  
C   -1.2877728    0.0000312   -0.6895607  
O   -2.3539959    0.0003306   -0.0892033  
C    0.0000000    0.0000000    0.0000000  
H    2.9384091   -0.0000368    0.6389234  
H    2.7280486   -0.0013408   -3.5742120  
C    6.4550022   -0.0009261    1.4492344  
C    7.5628473   -0.0014715    0.6718945  
C    7.0625120   -0.0013729   -0.6941819  
C    5.5906513   -0.0008361   -0.5520182  
N    5.2286137   -0.0004916    0.7021421  
C    4.7161330   -0.0005435   -1.6923266  
C    5.2860923   -0.0003876   -2.9188992  
O    4.5914238   -0.0001199   -4.0693238  
C    6.7683519   -0.0005474   -3.0951536  
O    7.2177890   -0.0005152   -4.2411148  
C    7.6440944   -0.0008911   -1.9098267  
H    8.5924160   -0.0017989    0.9866381  
H    5.2697912   -0.0000401   -4.7685878  
H    8.7123907   -0.0008826   -2.0800427  
H    6.3993987   -0.0008027    2.5262127  
C    0.8676693    0.7151171    2.2619005  
C    0.5875920    0.4624972    3.5848544  
C   -0.5048400   -0.4542819    3.6114698  
C   -0.8517165   -0.7276451    2.2635546  
N    0.0000000    0.0000000    1.4700000  
C   -1.8902865   -1.5946756    1.9108239  
C   -2.5912627   -2.1969500    2.9375057  
O   -3.6148162   -3.0527051    2.6493466  
C   -2.2603868   -1.9365747    4.2886322  
O   -3.0513550   -2.6123276    5.1947621  
C   -1.2361111   -1.0811317    4.6373480  
H    1.1060808    0.8876438    4.4271209  
H   -2.1597133   -1.8070987    0.8854031  
H   -3.9636755   -3.3565188    3.4974381  
H   -2.7621927   -2.3810384    6.0827341  
H   -1.0058879   -0.9010589    5.6809233  
H    1.6167816    1.3499334    1.8205408  
