62

C    3.3003532    0.0005276   -1.4739013  
C    2.5232795    0.0003498   -2.6090769  
C    1.1623181   -0.0001318   -2.1820113  
C    1.1711882    0.0000584   -0.7636154  
N    2.4852297   -0.0014919   -0.3662379  
C    0.0000000    0.0000000    0.0000000  
C   -1.2020392    0.0000521   -0.6806476  
O   -2.3759254    0.0003495    0.0157757  
C   -1.2314672   -0.0005110   -2.0955505  
O   -2.5054408   -0.0008034   -2.6250169  
C   -0.0764539   -0.0007270   -2.8495200  
H    2.8919929   -0.0005617   -3.6205325  
H    2.8036267    0.0088180    0.5858641  
H   -3.0835649    0.0000350   -0.6418804  
H   -2.4360080   -0.0011523   -3.5845910  
H   -0.1304124   -0.0013418   -3.9319091  
C    6.5323569    0.0028964   -4.4466921  
C    7.6043815    0.0022109   -3.6131227  
C    7.0889152    0.0013270   -2.2643717  
C    5.6181639    0.0015261   -2.3813380  
N    5.3453953    0.0028890   -3.7298502  
C    4.7630494    0.0004755   -1.3275437  
C    5.3290144   -0.0007200    0.0111936  
O    4.6424957   -0.0016578    1.0245992  
C    6.8840253   -0.0006991    0.1586604  
O    7.3720531   -0.0013932    1.2807519  
C    7.7018209    0.0002119   -1.0517370  
H    8.6382605    0.0024953   -3.9092793  
H    8.7776739    0.0000148   -0.9409948  
H    4.4257297    0.0017848   -4.1314226  
C    7.6160362    0.0056918   -6.7410322  
C    7.2533660    0.0085971   -8.0496716  
C    5.8099403    0.0091029   -8.0865011  
C    5.3581721    0.0062630   -6.6819772  
N    6.5012905    0.0038875   -5.9163632  
C    4.0581846    0.0062200   -6.2924434  
C    3.0357273    0.0089415   -7.3254532  
O    1.8372719    0.0090675   -7.0764431  
C    3.4913697    0.0117223   -8.8195037  
O    2.6395727    0.0137194   -9.6979669  
C    4.9219596    0.0117772   -9.1149085  
H    7.9208264    0.0100201   -8.8929436  
H    3.7481604    0.0042413   -5.2566872  
H    5.2291427    0.0139161  -10.1519033  
H    8.6038789    0.0045003   -6.3096920  
C    2.5285572    2.1210227    2.9438989  
C    1.9331703    1.6216660    4.0790748  
C    0.8903039    0.7472258    3.6520102  
C    0.8972198    0.7527806    2.2336141  
N    1.9028376    1.5986179    1.8362361  
C    0.0000000    0.0000000    1.4700000  
C   -0.9207814   -0.7726952    2.1506477  
O   -1.8198395   -1.5274828    1.4542253  
C   -0.9436862   -0.7911793    3.5655508  
O   -1.9197945   -1.6098497    4.0950179  
C   -0.0590329   -0.0485852    4.3195194  
H    2.2150357    1.8593692    5.0905303  
H    2.1533708    1.7953814    0.8841339  
H   -2.3621246   -1.9821033    2.1118817  
H   -1.8668290   -1.5649508    5.0545920  
H   -0.1007624   -0.0827977    5.4019087  
H    3.3491200    2.8096064    2.8367138  
