64

C    2.7273108   -2.1121038   -7.4741529  
C    3.8088511   -2.9621769   -7.4848014  
C    4.3140881   -2.9764535   -8.8186428  
C    3.4936595   -2.1084789   -9.5837852  
N    2.5389950   -1.6018425   -8.7372918  
C    3.7008840   -1.8786429  -10.9472449  
C    4.7557242   -2.5367807  -11.5491963  
O    5.0032907   -2.3482422  -12.8781720  
C    5.5852646   -3.4070570  -10.8026721  
O    6.5926609   -3.9876685  -11.5452269  
C    5.3812549   -3.6344782   -9.4576127  
H    4.1864460   -3.5060338   -6.6358989  
H    1.8219930   -0.9483586   -8.9958415  
H    3.0790846   -1.2184289  -11.5360448  
H    5.7718305   -2.8928452  -13.0926945  
H    7.1059331   -4.5598164  -10.9666057  
H    6.0330905   -4.3067196   -8.9120124  
C    1.8836766   -2.1362885   -5.0810756  
C    1.8358579   -1.7275860   -6.3703608  
C    0.7030361   -0.8169591   -6.4333927  
C    0.1677631   -0.7920098   -5.0551891  
N    0.8558147   -1.5634006   -4.2579876  
C   -0.9736297    0.0040464   -4.6965763  
C   -1.5536728    0.7419466   -5.6704280  
O   -2.6247573    1.5303572   -5.4774859  
C   -1.0366297    0.7382178   -7.0707188  
O   -1.6142401    1.4340380   -7.9058359  
C    0.1355200   -0.0866895   -7.4135265  
H   -2.8038822    1.9233565   -6.3507661  
H    0.4792074   -0.0617352   -8.4389468  
H    2.5838916   -2.8188170   -4.6262939  
C    1.1188642    0.0008222   -0.8003808  
C    0.0000000    0.0000000    0.0000000  
C   -1.1323862    0.0008899   -0.8673528  
C   -0.6382663    0.0019679   -2.1969280  
N    0.7324016    0.0038481   -2.1202242  
C   -1.4770914    0.0027318   -3.3154808  
C   -2.8395473    0.0020945   -3.0876857  
O   -3.7039201    0.0024425   -4.1440349  
C   -3.3517868    0.0013931   -1.7684331  
O   -4.7300497    0.0012366   -1.7073121  
C   -2.5248543    0.0009123   -0.6644817  
H    1.3576314   -0.0056167   -2.9057046  
H   -4.5940032    0.0021826   -3.7685128  
H   -4.9934602    0.0007259   -0.7819913  
H   -2.9462577    0.0005603    0.3339659  
H    2.1619895    0.0009355   -0.5342068  
C    0.8676693    0.7151171    2.2619005  
C    0.5875920    0.4624972    3.5848544  
C   -0.5048400   -0.4542819    3.6114698  
C   -0.8517165   -0.7276451    2.2635546  
N    0.0000000    0.0000000    1.4700000  
C   -1.8902865   -1.5946756    1.9108239  
C   -2.5912627   -2.1969500    2.9375057  
O   -3.6148162   -3.0527051    2.6493466  
C   -2.2603868   -1.9365747    4.2886322  
O   -3.0513550   -2.6123276    5.1947621  
C   -1.2361111   -1.0811317    4.6373480  
H    1.1060808    0.8876438    4.4271209  
H   -2.1597133   -1.8070987    0.8854031  
H   -3.9636755   -3.3565188    3.4974381  
H   -2.7621927   -2.3810384    6.0827341  
H   -1.0058879   -0.9010589    5.6809233  
H    1.6167816    1.3499334    1.8205408  
