60

C    3.9738081   -3.7115527   -5.0057130  
C    4.6256135   -4.5144124   -4.0985018  
C    3.9525222   -4.3634983   -2.8499935  
C    2.8889335   -3.4484915   -3.0584846  
N    2.9316273   -3.0707055   -4.3776028  
C    2.0118564   -3.0635543   -2.0399819  
C    2.2119273   -3.6125404   -0.7882776  
O    1.3844228   -3.2714341    0.2422055  
C    3.2677926   -4.5268964   -0.5604231  
O    3.3358456   -4.9847595    0.7392206  
C    4.1335998   -4.9068905   -1.5646685  
H    5.4816634   -5.1319361   -4.3102496  
H    1.1993802   -2.3665203   -2.1923879  
H    1.6954911   -3.7600031    1.0153827  
H    4.0750565   -5.5966984    0.8077901  
H    4.9332953   -5.6091085   -1.3600817  
H    4.1707362   -3.5442403   -6.0507894  
C    1.9957411   -2.1407949   -5.0258948  
C    1.9855627   -1.7332335   -6.3163870  
C    0.8551746   -0.8225476   -6.4132070  
C    0.2799735   -0.7963194   -5.0512088  
N    0.9444052   -1.5670713   -4.2336140  
C   -0.8712826    0.0001710   -4.7267111  
C   -1.4226087    0.7372646   -5.7177042  
O   -2.4987601    1.5259556   -5.5567519  
C   -0.8649837    0.7322389   -7.1023303  
O   -1.4179258    1.4273754   -7.9545395  
C    0.3165522   -0.0930917   -7.4101078  
H    2.6616908   -2.0156327   -7.1051695  
H   -2.6523130    1.9181970   -6.4352286  
H    0.6899760   -0.0690838   -8.4250993  
C    1.0965514    0.0001359   -0.8010305  
C    0.0000000    0.0000000    0.0000000  
C   -1.1546563    0.0001470   -0.8669513  
C   -0.6372014    0.0003519   -2.2486282  
N    0.7342871    0.0007337   -2.1395014  
C   -1.4147739    0.0001352   -3.3608717  
C   -2.8576049   -0.0001048   -3.1854462  
O   -3.6427779   -0.0002494   -4.1244907  
C   -3.4275840   -0.0000725   -1.7311666  
O   -4.6406831    0.0000333   -1.5710060  
C   -2.4891867   -0.0001091   -0.6116744  
H   -2.8919122   -0.0002918    0.3920866  
H    2.1388272    0.0000663   -0.5261648  
H    1.3735872   -0.0006099   -2.9130262  
C    0.0000000    0.0000000    1.4700000  
C    1.0541688    0.0001722    2.3260392  
C    0.5103138    0.0000454    3.6635956  
C   -0.9576371   -0.0002459    3.5155732  
N   -1.2018458    0.0001392    2.1615969  
C   -1.8348311   -0.0008317    4.5510609  
C   -1.2972847   -0.0009736    5.9014604  
O   -2.0050672   -0.0014265    6.9001319  
C    0.2542623   -0.0004184    6.0817573  
O    0.7184670   -0.0002256    7.2139121  
C    1.0974552   -0.0000873    4.8889129  
H    2.0940752    0.0005483    2.0517982  
H   -2.9081052   -0.0011668    4.4207061  
H    2.1707277    0.0000911    5.0223670  
H   -2.1128194   -0.0014912    1.7406791  
