60

C    7.2823990   -3.2437083   -7.0282707  
C    6.7743880   -1.9912967   -6.7716436  
C    7.2793763   -1.1218148   -7.7833678  
C    8.0965506   -1.9066112   -8.6367423  
N    8.0781182   -3.1895935   -8.1486516  
C    8.7595556   -1.3755852   -9.7472492  
C    8.5943788   -0.0278213  -10.0010754  
O    9.2188152    0.5421536  -11.0726267  
C    7.7834157    0.7718060   -9.1609860  
O    7.7194449    2.0950890   -9.5459183  
C    7.1292648    0.2486632   -8.0651146  
H    8.5593291   -3.9718150   -8.5542945  
H    9.3839143   -1.9683533  -10.4014682  
H    8.9734775    1.4765171  -11.0663886  
H    7.1524839    2.5649012   -8.9266967  
H    6.5149923    0.8859068   -7.4397606  
H    7.1412411   -4.1710147   -6.4999376  
C    5.9718892   -2.1066115   -4.3836101  
C    5.8824617   -1.6421429   -5.6565381  
C    4.7503164   -0.7470245   -5.6994995  
C    4.1834495   -0.7279188   -4.3374840  
N    4.9692736   -1.5728897   -3.5882214  
C    3.1006054    0.0006263   -3.9654951  
C    2.4499046    0.8204922   -4.9739315  
O    1.4681175    1.5123813   -4.7379556  
C    3.0331143    0.8153164   -6.4229469  
O    2.4935219    1.5013962   -7.2804985  
C    4.2049176   -0.0107666   -6.7027952  
H    4.6026870   -0.0086184   -7.7085282  
H    6.6857547   -2.7940671   -3.9597122  
H    4.8362803   -1.7697856   -2.6132382  
C    3.2798083    0.0005857   -1.4499652  
C    2.5571142    0.0005565   -2.5996556  
C    1.1637432    0.0001548   -2.2210361  
C    1.1336964   -0.0000200   -0.7459473  
N    2.4483512   -0.0001428   -0.3402723  
C    0.0000000    0.0000000    0.0000000  
C   -1.2757368   -0.0000186   -0.6964415  
O   -2.3524598   -0.0000639   -0.1142311  
C   -1.2676497   -0.0000872   -2.2584083  
O   -2.3355766   -0.0004101   -2.8557295  
C    0.0181558    0.0001758   -2.9516296  
H    0.0150788    0.0003319   -4.0331631  
H    4.3498547    0.0008612   -1.3200026  
H    2.7563626    0.0012823    0.6148059  
C    0.8175213    0.6860729    2.3021913  
C    0.0000000    0.0000000    1.4700000  
C   -0.8887526   -0.7456559    2.3478473  
C   -0.4549825   -0.3816753    3.7138435  
N    0.5448156    0.4573574    3.6934124  
C   -1.0945674   -0.9182058    4.8835240  
C   -2.1210866   -1.7789155    4.6970523  
O   -2.8083856   -2.3554314    5.6976972  
C   -2.5824069   -2.1655116    3.3310774  
O   -3.5227682   -2.9541547    3.2362962  
C   -1.9100805   -1.6015804    2.1470656  
H   -0.7567140   -0.6349833    5.8697035  
H   -3.4728268   -2.9124471    5.2533954  
H   -2.2742832   -1.9066565    1.1752040  
H    1.6189533    1.3585343    2.0405121  
