64

C   -1.6468423   -0.0583285   -3.2702994  
C   -3.0209049   -0.1127730   -3.3084438  
C   -3.3995903   -0.1123941   -4.6836518  
C   -2.2038695   -0.0563515   -5.4445968  
N   -1.1584664   -0.0226655   -4.5554324  
C   -2.1971654   -0.0407088   -6.8426310  
C   -3.4197939   -0.0827069   -7.4841852  
O   -3.4709520   -0.0701118   -8.8480914  
C   -4.6237335   -0.1384955   -6.7424081  
O   -5.7584093   -0.1750662   -7.5263183  
C   -4.6311123   -0.1536845   -5.3631905  
H   -3.6704427   -0.1472769   -2.4505956  
H   -0.1861764    0.0086824   -4.8037279  
H   -1.2892904    0.0020751   -7.4284087  
H   -4.4064739   -0.1046583   -9.0865659  
H   -6.5264854   -0.2118177   -6.9481212  
C   -1.1178682   -0.0472166   -0.8003807  
C    0.0000000    0.0000000    0.0000000  
C    1.1314485    0.0460667   -0.8673533  
C    0.6377984    0.0245002   -2.1969280  
N   -0.7316129   -0.0342147   -2.1202242  
C    1.4759332    0.0585200   -3.3154813  
C    2.8371910    0.1156527   -3.0876862  
O    3.7008345    0.1511471   -4.1440363  
C    3.3489616    0.1375943   -1.7684339  
O    4.7260325    0.1949019   -1.7073137  
C    2.5227205    0.1037846   -0.6644823  
H    1.1059572    0.0421974   -4.3313823  
H    4.5901415    0.1883151   -3.7685147  
H    4.9891949    0.2063344   -0.7819932  
H    2.9437469    0.1216105    0.3339646  
H   -2.1600915   -0.0905842   -0.5342062  
C   -6.0006069    1.8752475   -1.6798767  
C   -7.2607140    1.3252210   -1.6344061  
C   -7.3771915    0.4576139   -2.7605903  
C   -6.1462390    0.5193659   -3.4626358  
N   -5.3336162    1.3906342   -2.7806140  
C   -5.9034985   -0.2118570   -4.6293313  
C   -6.9218430   -1.0203757   -5.0956456  
O   -6.7381004   -1.7562819   -6.2304121  
C   -8.1572447   -1.0950736   -4.4093365  
O   -9.0705395   -1.9441193   -4.9995563  
C   -8.3975081   -0.3737771   -3.2584539  
H   -8.0048608    1.5256176   -0.8826882  
H   -4.3921952    1.6275050   -3.0367392  
H   -7.5601365   -2.2421629   -6.3768398  
H   -9.8764462   -1.9366828   -4.4741392  
H   -9.3538734   -0.4512266   -2.7546231  
H   -5.5253473    2.5759936   -1.0150141  
C    2.5528530    2.1414826    2.8079335  
C    2.0663498    1.7338582    4.0032312  
C    0.9804344    0.8229586    3.6752840  
C    0.9495562    0.7966882    2.1971295  
N    1.8690446    1.5676019    1.6831036  
C    0.0000000    0.0000000    1.4700000  
C   -0.8785127   -0.7372425    2.1869543  
O   -1.8187535   -1.5261249    1.6395491  
C   -0.8723269   -0.7321790    3.6796354  
O   -1.7010379   -1.4274584    4.2670412  
C    0.1115397    0.0933559    4.4024240  
H    2.4028853    2.0163452    4.9860947  
H   -2.2861435   -1.9184361    2.3990168  
H    0.0832434    0.0693689    5.4835595  
H    3.3664920    2.8238276    2.6198634  
