62

C   -0.8736492    0.6910491   -9.0024636  
C    0.0823631   -0.1261601   -9.5598466  
C   -0.0685168   -0.0380007  -10.9754960  
C   -1.1413713    0.8557138  -11.2248627  
N   -1.6088777    1.2784916  -10.0053083  
C   -1.5703083    1.1810620  -12.5151934  
C   -0.9038708    0.5937422  -13.5730656  
O   -1.2814626    0.8767317  -14.8538281  
C    0.1687049   -0.3007818  -13.3445376  
O    0.7297759   -0.8027715  -14.5006302  
C    0.5922227   -0.6224127  -12.0718588  
H    0.7994745   -0.7144133   -9.0133104  
H   -2.3620131    1.9275595   -9.8657432  
H   -2.3874233    1.8613680  -12.7119370  
H   -0.6951739    0.3690445  -15.4298359  
H    1.4459005   -1.3975707  -14.2577658  
H    1.4165941   -1.3110203  -11.9279488  
C    0.9350723   -0.7259390   -5.2319057  
C    0.6347935   -0.5089069   -6.5383531  
C   -0.4715634    0.4184304   -6.5675990  
C   -0.7935141    0.7260948   -5.1610144  
N    0.0950446    0.0004351   -4.4015596  
C   -1.7824138    1.5667841   -4.7647529  
C   -2.5832520    2.2114552   -5.7921735  
O   -3.4968504    2.9850779   -5.5369352  
C   -2.2600299    1.9000089   -7.2882796  
O   -2.9277035    2.4366211   -8.1620756  
C   -1.1693060    0.9767221   -7.5911240  
H    1.1315069   -0.9484321   -7.3849386  
H   -2.0020375    1.7788961   -3.7276009  
H    1.6992191   -1.3555762   -4.8058457  
C    3.3321173    0.0004713   -1.3379338  
C    2.6974181    0.0000116   -2.5332314  
C    1.2800438   -0.0002119   -2.2052841  
C    1.2395034    0.0000643   -0.7271299  
N    2.4394062    0.0005460   -0.2131038  
C    0.0000000    0.0000000    0.0000000  
C   -1.1468702    0.0000634   -0.7169543  
O   -2.3742203    0.0000074   -0.1695487  
C   -1.1388770    0.0001607   -2.2096355  
O   -2.2206234    0.0000905   -2.7970411  
C    0.1454522    0.0001815   -2.9324241  
H    3.1367984   -0.0000653   -3.5160950  
H   -2.9844346    0.0001026   -0.9290167  
H    4.3940038    0.0007618   -1.1498640  
C    2.5311839    2.1237619    3.0120429  
C    1.9795631    1.6616747    1.8395852  
C    0.9223175    0.7739173    2.1983588  
C    0.8753926    0.7337535    3.6154372  
N    1.8668922    1.5631002    4.0777464  
C   -0.0496243   -0.0427881    4.3197917  
C   -0.9437528   -0.7922060    3.5801400  
O   -1.8685244   -1.5680278    4.2172520  
C   -0.9124520   -0.7656372    2.1655264  
O   -1.8671164   -1.5663939    1.5732860  
C    0.0000000    0.0000000    1.4700000  
H    2.3005065    1.9304404    0.8477417  
H    2.0679347    1.7444845    5.0445261  
H   -0.0904770   -0.0778569    5.3997470  
H   -2.3849669   -2.0011402    3.5251786  
H   -1.7775064   -1.4909735    0.6183591  
H    3.3468514    2.8078103    3.1724291  
