60

C    4.0051381    0.7197439   -7.7959706  
C    5.0313853    0.0012894   -7.2275447  
C    5.6627931   -0.7262925   -8.2794707  
C    4.9727749   -0.4090429   -9.4774492  
N    3.9710183    0.4698812   -9.1479141  
C    5.3251589   -0.9478380  -10.7185439  
C    6.3937672   -1.8225987  -10.7509213  
O    6.7804670   -2.3775172  -11.9364771  
C    7.0945227   -2.1517699   -9.5662681  
O    8.1342250   -3.0369653   -9.7632238  
C    6.7472702   -1.6208235   -8.3415083  
H    3.3218324    0.8791416   -9.7952515  
H    4.8032041   -0.7101762  -11.6352123  
H    7.5333780   -2.9492306  -11.7376466  
H    8.5544607   -3.2062503   -8.9144909  
H    7.3025875   -1.8917496   -7.4511717  
H    3.2939051    1.3895368   -7.3437714  
C    2.5562217   -0.0001551   -3.6003001  
C    3.5357958   -0.0006720   -2.6598164  
C    4.7960229   -0.0006609   -3.3645605  
C    4.4679970   -0.0000616   -4.8030278  
N    3.0942340   -0.0001761   -4.8782995  
C    5.3873315    0.0005227   -5.8012902  
C    6.7937409    0.0003382   -5.4344817  
O    7.6974453    0.0007629   -6.2600838  
C    7.1641096   -0.0005465   -3.9170389  
O    8.3448915   -0.0010156   -3.5960816  
C    6.0844249   -0.0008436   -2.9331010  
H    3.3919675   -0.0012036   -1.5940179  
H    6.3492934   -0.0012512   -1.8844982  
H    2.5641257    0.0016995   -5.7303728  
C    0.0000000    0.0000000    0.0000000  
C    1.0541688   -0.0001722   -0.8560390  
C    0.5103141   -0.0000453   -2.1935955  
C   -0.9576367    0.0002460   -2.0455731  
N   -1.2018459   -0.0001392   -0.6915969  
C   -1.8348307    0.0008318   -3.0810611  
C   -1.2972843    0.0009738   -4.4314606  
O   -2.0050665    0.0014267   -5.4301321  
C    0.2542628    0.0004186   -4.6117570  
O    0.7184676    0.0002258   -5.7439117  
C    1.0974555    0.0000874   -3.4189127  
H    2.0940752   -0.0005483   -0.5817978  
H   -2.9081051    0.0011670   -2.9507061  
H   -2.1128194    0.0014912   -0.2706792  
C    3.2573670    0.0002920    2.9809380  
C    2.5379467    0.0001709    1.8291961  
C    1.1435042   -0.0000331    2.2038498  
C    1.1092607    0.0000083    3.6788474  
N    2.4227561   -0.0001909    4.0882609  
C   -0.0265533    0.0002524    4.4215661  
C   -1.3003036    0.0002640    3.7214979  
O   -2.3786784    0.0004133    4.3006425  
C   -1.2877726   -0.0000311    2.1595606  
O   -2.3539958   -0.0003306    1.5592035  
C    0.0000000    0.0000000    1.4700000  
H    2.9384090    0.0000368    0.8310761  
H   -0.0296291    0.0004086    5.5027230  
H    4.3270393    0.0004765    3.1139444  
H    2.7280493    0.0013407    5.0442112  
