62

C   -8.4074065    0.9815774   -1.8275285  
C   -9.7131160    0.5665674   -1.7035992  
C   -9.7305825   -0.8359905   -1.9626852  
C   -8.3950748   -1.2245125   -2.2408901  
N   -7.6176861   -0.0964924   -2.1522680  
C   -8.0378704   -2.5423859   -2.5415636  
C   -9.0471943   -3.4852790   -2.5614598  
O   -8.7539012   -4.7869607   -2.8488914  
C  -10.3858001   -3.1170505   -2.2869416  
O  -11.2752520   -4.1700023   -2.3461873  
C  -10.7389577   -1.8170759   -1.9905091  
H  -10.5502072    1.1973606   -1.4578916  
H   -7.0218657   -2.8449182   -2.7546563  
H   -9.5895844   -5.2700854   -2.8103010  
H  -12.1555776   -3.8359976   -2.1485207  
H  -11.7726816   -1.5649994   -1.7847145  
H   -7.9771670    1.9615574   -1.7113762  
C   -4.3568011    2.1196432   -0.0439437  
C   -5.5783087    1.6201330   -0.4323715  
C   -5.3394752    0.7460400   -1.5339704  
C   -3.9416100    0.7519547   -1.7745206  
N   -3.3751248    1.5976635   -0.8533862  
C   -3.3460097   -0.0004262   -2.7913647  
C   -4.1766436   -0.7730845   -3.5795421  
O   -3.6475259   -1.5274889   -4.5864786  
C   -5.5738550   -0.7919242   -3.3553483  
O   -6.2652642   -1.6105065   -4.2243824  
C   -6.1621470   -0.0497244   -2.3525632  
H   -6.5251586    1.8575137    0.0216316  
H   -2.3939627    1.7946125   -0.7726816  
H   -4.3895800   -1.9821538   -5.0058844  
H   -7.2009062   -1.5658646   -4.0048713  
H   -4.1083018    2.8080666    0.7455376  
C    0.0000000    0.0000000    0.0000000  
C    1.0662919   -0.0000103   -0.8334272  
C    0.4961868    0.0000066   -2.1718889  
C   -0.9663860   -0.0000849   -1.9540248  
N   -1.2632775   -0.0000084   -0.6828659  
C   -1.8985364   -0.0000515   -3.0477258  
C   -1.3925778    0.0004567   -4.3020543  
O   -2.1456385    0.0005412   -5.4151314  
C    0.0786229    0.0009326   -4.5544999  
O    0.4683756    0.0012594   -5.7221104  
C    1.0143162    0.0008443   -3.4159034  
H    2.1107195    0.0000631   -0.5721869  
H   -1.5042277    0.0009692   -6.1484420  
H    2.0724151    0.0013151   -3.6409746  
C    1.0672568    0.0000697    2.3021913  
C    0.0000000    0.0000000    1.4700000  
C   -1.1601224    0.0000736    2.3478473  
C   -0.5938729    0.0000769    3.7138435  
N    0.7113367    0.0001554    3.6934124  
C   -1.4286986    0.0001879    4.8835240  
C   -2.7683114    0.0006799    4.6970523  
O   -3.6653903    0.0008304    5.6976972  
C   -3.3702025    0.0010610    3.3310774  
O   -4.5974910    0.0013779    3.2362962  
C   -2.4926826    0.0008943    2.1470656  
H   -0.9878360   -0.0000190    5.8697035  
H   -4.5324246    0.0012261    5.2533954  
H   -2.9677772    0.0012974    1.1752040  
H    2.1134392    0.0000545    2.0405121  
