62

C    6.0838502   -2.3793032   -2.3125592  
C    5.9614381   -1.0758325   -2.7349882  
C    7.2208232   -0.4451255   -2.5096936  
C    8.0799168   -1.4215072   -1.9435108  
N    7.3574627   -2.5838534   -1.8356746  
C    9.4055101   -1.1498117   -1.5916982  
C    9.8724498    0.1307829   -1.8158030  
O   11.1591271    0.4501774   -1.4910550  
C    9.0304668    1.1188141   -2.3794297  
O    9.6423576    2.3448507   -2.5399497  
C    7.7225490    0.8515602   -2.7264925  
H    7.7078392   -3.4538271   -1.4773962  
H   10.0653487   -1.8895215   -1.1596734  
H   11.2771074    1.3799396   -1.7253353  
H    9.0057300    2.9543081   -2.9257877  
H    7.1014649    1.6287659   -3.1562408  
H    5.3630040   -3.1788906   -2.3123774  
C    3.4546604   -0.7051941   -2.8655878  
C    2.5562217   -0.0001543   -3.6003001  
C    3.3075550    0.7421851   -4.5848133  
C    4.7275388    0.4094243   -4.3618645  
N    4.7487504   -0.4720440   -3.3057143  
C    5.7578594    0.9090039   -5.0902630  
C    5.4475466    1.8364962   -6.1654372  
O    6.3052794    2.3410463   -6.8781951  
C    3.9505752    2.2032205   -6.4191988  
O    3.6771253    2.9832721   -7.3214207  
C    2.9282237    1.6000481   -5.5678275  
H    6.7924734    0.6518586   -4.9103750  
H    1.8941001    1.8589996   -5.7501909  
H    3.2802844   -1.3753180   -2.0395027  
C    0.0000000    0.0000000    0.0000000  
C    1.0541688   -0.0001719   -0.8560391  
C    0.5103141   -0.0000449   -2.1935955  
C   -0.9576367    0.0002461   -2.0455733  
N   -1.2018459   -0.0001392   -0.6915970  
C   -1.8348306    0.0008319   -3.0810611  
C   -1.2972842    0.0009739   -4.4314605  
O   -2.0050664    0.0014267   -5.4301321  
C    0.2542628    0.0004190   -4.6117571  
O    0.7184677    0.0002263   -5.7439119  
C    1.0974556    0.0000880   -3.4189127  
H    2.0940752   -0.0005479   -0.5817978  
H   -2.9081050    0.0011669   -2.9507065  
H   -2.1128195    0.0014911   -0.2706793  
C    3.3003543   -0.0005276    2.9438989  
C    2.5232812   -0.0003497    4.0790748  
C    1.1623199    0.0001319    3.6520102  
C    1.1711883   -0.0000583    2.2336141  
N    2.4852299    0.0014920    1.8362361  
C    0.0000000    0.0000000    1.4700000  
C   -1.2020384   -0.0000520    2.1506477  
O   -2.3759250   -0.0003494    1.4542253  
C   -1.2314658    0.0005113    3.5655508  
O   -2.5054393    0.0008037    4.0950179  
C   -0.0764518    0.0007272    4.3195194  
H    2.8919952    0.0005619    5.0905303  
H    2.8036267   -0.0088181    0.8841339  
H   -3.0835639   -0.0000348    2.1118817  
H   -2.4360050    0.0011527    5.0545920  
H   -0.1304098    0.0013421    5.4019087  
H    4.3715549   -0.0004895    2.8367138  
