62

C   -5.1498594    2.1289882   -6.4346627  
C   -3.8828421    1.6673189   -6.7066824  
C   -3.9925244    0.7809409   -7.8188441  
C   -5.3620630    0.7411493   -8.1858699  
N   -6.0371743    1.5693797   -7.3239671  
C   -5.8383129   -0.0340989   -9.2474555  
C   -4.9151617   -0.7825816   -9.9515459  
O   -5.3259761   -1.5571251  -10.9976478  
C   -3.5444811   -0.7563655   -9.6003136  
O   -2.7511753   -1.5560797  -10.3968476  
C   -3.0739798    0.0079958   -8.5529802  
H   -2.9896044    1.9354698   -6.1688957  
H   -7.0243697    1.7507311   -7.3471165  
H   -6.8808824   -0.0688779   -9.5321307  
H   -4.5348118   -1.9897564  -11.3442786  
H   -1.8414347   -1.4809817  -10.0929803  
H   -5.4910363    2.8120694   -5.6757442  
C   -0.9736295    0.0040466   -4.6965763  
C    0.3099700    0.0046188   -5.1397994  
C    0.2571076    0.0059522   -6.5827272  
C   -1.1727596    0.0061405   -6.9464167  
N   -1.8659235    0.0045498   -5.7579677  
C   -1.6422570    0.0076695   -8.2197089  
C   -0.6747212    0.0090082   -9.3043327  
O   -0.9976622    0.0103679  -10.4850142  
C    0.8447401    0.0085831   -8.9423348  
O    1.6686228    0.0093934   -9.8470316  
C    1.2283995    0.0071689   -7.5328470  
H    1.1930592    0.0039769   -4.5259864  
H    2.2824685    0.0070884   -7.2906440  
H   -2.8659634    0.0058219   -5.6745054  
C    1.1188642    0.0008216   -0.8003808  
C    0.0000000    0.0000000    0.0000000  
C   -1.1323861    0.0008904   -0.8673528  
C   -0.6382661    0.0019681   -2.1969280  
N    0.7324017    0.0038477   -2.1202241  
C   -1.4770913    0.0027323   -3.3154808  
C   -2.8395472    0.0020956   -3.0876858  
O   -3.7039201    0.0024441   -4.1440350  
C   -3.3517867    0.0013945   -1.7684332  
O   -4.7300494    0.0012387   -1.7073122  
C   -2.5248543    0.0009134   -0.6644817  
H    1.3576316   -0.0056175   -2.9057045  
H   -4.5940031    0.0021847   -3.7685129  
H   -4.9934602    0.0007284   -0.7819915  
H   -2.9462576    0.0005617    0.3339659  
H    2.1619896    0.0009343   -0.5342067  
C    2.4951002    2.0940188    2.9809380  
C    1.9440701    1.6314916    1.8291961  
C    0.8759964    0.7350050    2.2038498  
C    0.8497377    0.7130254    3.6788474  
N    1.8560616    1.5571714    4.0882609  
C   -0.0205033   -0.0168748    4.4215661  
C   -0.9962600   -0.8356168    3.7214979  
O   -1.8224391   -1.5286685    4.3006425  
C   -0.9864710   -0.8277881    2.1595606  
O   -1.8030528   -1.5133726    1.5592035  
C    0.0000000    0.0000000    1.4700000  
H    2.2509283    1.8888011    0.8310761  
H   -0.0229599   -0.0187323    5.5027230  
H    3.3143982    2.7817323    3.1139444  
H    2.0889452    1.7545833    5.0442112  
