62

C    6.8379686   -1.9438587   -2.2854831  
C    7.5059775   -2.7754179   -1.4167247  
C    8.8865609   -2.7262563   -1.7719320  
C    9.0015490   -1.8404471   -2.8737694  
N    7.7389155   -1.3846635   -3.1612363  
C   10.2242195   -1.5509335   -3.4869949  
C   11.3513851   -2.1666244   -2.9784689  
O   12.5709064   -1.9191562   -3.5393082  
C   11.2569458   -3.0538154   -1.8799287  
O   12.4682592   -3.5869756   -1.4903080  
C   10.0510454   -3.3401011   -1.2746447  
H    7.0536776   -3.3479624   -0.6251374  
H    7.5090575   -0.7325158   -3.8891440  
H   10.3185327   -0.8768351   -4.3271733  
H   13.2120099   -2.4420704   -3.0404965  
H   12.3159780   -4.1744011   -0.7437523  
H   10.0098173   -4.0239433   -0.4349191  
C    4.4206221   -2.1198138   -1.5561249  
C    5.4069067   -1.6197474   -2.3744427  
C    4.7719051   -0.7451152   -3.3052440  
C    3.3859892   -0.7512895   -3.0033736  
N    3.2068301   -1.5976642   -1.9374610  
C    2.4521483    0.0014840   -3.7217481  
C    2.9260547    0.7748092   -4.7636495  
O    2.0575519    1.5296195   -5.4978012  
C    4.3052229    0.7939171   -5.0804265  
O    4.6197296    1.6131716   -6.1449696  
C    5.2270109    0.0513303   -4.3723322  
H    2.3277576   -1.7949327   -1.4944058  
H    2.5878306    1.9847226   -6.1648472  
H    5.5693406    1.5686710   -6.2928298  
H    6.2770196    0.0860291   -4.6383326  
H    4.4867486   -2.8087417   -0.7315247  
C    0.0000000    0.0000000    0.0000000  
C    1.0662923   -0.0000101   -0.8334270  
C    0.4961873    0.0000065   -2.1718887  
C   -0.9663854   -0.0000848   -1.9540250  
N   -1.2632773   -0.0000083   -0.6828660  
C   -1.8985359   -0.0000514   -3.0477261  
C   -1.3925770    0.0004566   -4.3020547  
O   -2.1456378    0.0005414   -5.4151314  
C    0.0786240    0.0009326   -4.5545000  
O    0.4683767    0.0012591   -5.7221100  
C    1.0143171    0.0008444   -3.4159031  
H    2.1107200    0.0000633   -0.5721865  
H   -2.9622181   -0.0003268   -2.8593381  
H   -1.5042265    0.0009697   -6.1484419  
C    1.0965515   -0.0001358    2.2710304  
C    0.0000000    0.0000000    1.4700000  
C   -1.1546562   -0.0001469    2.3369512  
C   -0.6372014   -0.0003519    3.7186280  
N    0.7342871   -0.0007337    3.6095011  
C   -1.4147739   -0.0001353    4.8308716  
C   -2.8576048    0.0001048    4.6554461  
O   -3.6427778    0.0002493    5.5944904  
C   -3.4275839    0.0000726    3.2011665  
O   -4.6406829   -0.0000333    3.0410059  
C   -2.4891866    0.0001091    2.0816745  
H   -1.0150448   -0.0001615    5.8354244  
H   -2.8919121    0.0002919    1.0779135  
H    2.1388271   -0.0000662    1.9961646  
H    1.3735872    0.0006099    4.3830260  
