64

C    0.9529566   -1.0631270   -7.6473461  
C    2.0016448   -1.9488159   -7.7383120  
C    2.2123575   -2.2035107   -9.1258752  
C    1.2544088   -1.4387343   -9.8395818  
N    0.5045867   -0.7596566   -8.9115530  
C    1.1693260   -1.4449921  -11.2351151  
C    2.0678487   -2.2374934  -11.9227017  
O    2.0292137   -2.2805098  -13.2863986  
C    3.0307366   -3.0079851  -11.2284353  
O    3.8536165   -3.7451480  -12.0547537  
C    3.1150750   -3.0025064   -9.8517065  
H    2.5468843   -2.3615054   -6.9068107  
H   -0.2463432   -0.1274843   -9.1223686  
H    0.4414289   -0.8644875  -11.7850085  
H    2.7309292   -2.8852702  -13.5604904  
H    4.4739162   -4.2358993  -11.5070363  
H    3.8630766   -3.6032411   -9.3476343  
C    0.6781144   -0.7162598   -5.1604645  
C   -0.1387079    0.0017019   -4.3179684  
C   -1.0478128    0.7305977   -5.1406708  
C   -0.7352232    0.4146204   -6.4876569  
N    0.3186251   -0.4648429   -6.4638853  
C   -1.4322859    0.9549030   -7.5725470  
C   -2.4638924    1.8298711   -7.2925530  
O   -3.1776733    2.3862183   -8.3143196  
C   -2.7906191    2.1577872   -5.9551904  
O   -3.8423104    3.0433751   -5.8410699  
C   -2.1032015    1.6253726   -4.8844344  
H   -1.1988696    0.7182163   -8.6014779  
H   -3.8402266    2.9578220   -7.9049827  
H   -3.9981265    3.2117478   -4.9067387  
H   -2.3761700    1.8953599   -3.8709881  
H    1.4896294   -1.3866873   -4.9347903  
C    3.3041273    0.0001178   -1.5420428  
C    2.5845373   -0.0004780   -0.3695851  
C    1.2040007   -0.0000007   -0.7283589  
C    1.1422374    0.0006038   -2.1454372  
N    2.4348641    0.0026111   -2.6077464  
C   -0.0655179    0.0008799   -2.8497918  
C   -1.2321766    0.0002325   -2.1101402  
O   -2.4392814    0.0001148   -2.7472522  
C   -1.1911209   -0.0000007   -0.6955266  
O   -2.4371528   -0.0002320   -0.1032862  
C    0.0000000    0.0000000    0.0000000  
H    3.0031533   -0.0000660    0.6222584  
H    2.7054631   -0.0071097   -3.5745261  
H   -3.1132988   -0.0000648   -2.0551787  
H   -2.3200282   -0.0004072    0.8516409  
H    4.3686625    0.0004073   -1.7024290  
C    2.5128556    2.1077716    2.9199648  
C    1.9592212    1.6432552    4.0696553  
C    0.8915788    0.7479214    3.6910360  
C    0.8684491    0.7287414    2.2159470  
N    1.8754542    1.5738793    1.8102719  
C    0.0000000    0.0000000    1.4700000  
C   -0.9772830   -0.8200135    2.1664417  
O   -1.8021297   -1.5120829    1.5842315  
C   -0.9711318   -0.8147624    3.7284083  
O   -1.7894187   -1.5009653    4.3257297  
C    0.0140216    0.0115358    4.4216297  
H    2.2638494    1.8988021    5.0689105  
H    0.0117648    0.0094386    5.5031631  
H    3.3327358    2.7953732    2.7900019  
H    2.1123206    1.7707734    0.8551938  
