66

C   -3.3003284   -0.0132753   -1.4738976  
C   -2.5232619   -0.0100960   -2.6090741  
C   -1.1623133   -0.0043576   -2.1820095  
C   -1.1711796   -0.0045821   -0.7636135  
N   -2.4852176   -0.0081074   -0.3662350  
C    0.0000000    0.0000000    0.0000000  
C    1.2020289    0.0045909   -0.6806481  
O    2.3759077    0.0088277    0.0157742  
C    1.2314530    0.0052677   -2.0955513  
O    2.5054160    0.0104809   -2.6250183  
C    0.0764466    0.0010224   -2.8495191  
H   -2.8919774   -0.0106086   -3.6205293  
H   -2.8035713   -0.0196472    0.5858673  
H    3.0835406    0.0118757   -0.6418825  
H    2.4359807    0.0105618   -3.5845921  
H    0.1304027    0.0018456   -3.9319086  
C   -5.6708102   -0.0220601   -2.3611548  
C   -4.7630138   -0.0188731   -1.3275388  
C   -5.5133116   -0.0203130   -0.1144228  
C   -6.8854705   -0.0247226   -0.4737104  
N   -6.9456207   -0.0237281   -1.8452054  
C   -7.9149459   -0.0274972    0.4723137  
C   -7.5526339   -0.0260965    1.8053202  
O   -8.5176702   -0.0290281    2.7705720  
C   -6.1889440   -0.0213342    2.1836645  
O   -5.9909051   -0.0200734    3.5489934  
C   -5.1728145   -0.0183216    1.2509277  
H   -7.7894045   -0.0367212   -2.3891184  
H   -8.0553978   -0.0270931    3.6188440  
H   -5.0439614   -0.0168339    3.7189671  
H   -4.1373787   -0.0145095    1.5708280  
H   -5.5098161   -0.0218296   -3.4255986  
C  -10.1358820   -2.1560689   -2.7050289  
C  -11.3845155   -1.6603791   -2.4089331  
C  -11.2311838   -0.7851692   -1.2930937  
C   -9.8551054   -0.7864971   -0.9490987  
N   -9.2188905   -1.6306671   -1.8250125  
C   -9.3392994   -0.0318745    0.1088600  
C  -10.2287928    0.7383507    0.8325536  
O   -9.7785521    1.4947793    1.8756804  
C  -11.6054783    0.7526106    0.5049113  
O  -12.3623034    1.5692346    1.3195801  
C  -12.1150760    0.0081972   -0.5384892  
H  -12.2941588   -1.9009584   -2.9320619  
H   -8.2338191   -1.8244750   -1.8323088  
H  -10.5512299    1.9471806    2.2384007  
H  -13.2788499    1.5215039    1.0310196  
H  -13.1742755    0.0391666   -0.7656827  
H   -9.8270753   -2.8439384   -3.4734253  
C    2.5285572    2.1210227    2.9438989  
C    1.9331703    1.6216660    4.0790748  
C    0.8903039    0.7472258    3.6520102  
C    0.8972198    0.7527806    2.2336141  
N    1.9028376    1.5986179    1.8362361  
C    0.0000000    0.0000000    1.4700000  
C   -0.9207814   -0.7726952    2.1506477  
O   -1.8198395   -1.5274828    1.4542253  
C   -0.9436862   -0.7911793    3.5655508  
O   -1.9197945   -1.6098497    4.0950179  
C   -0.0590329   -0.0485852    4.3195194  
H    2.2150357    1.8593692    5.0905303  
H    2.1533708    1.7953814    0.8841339  
H   -2.3621246   -1.9821033    2.1118817  
H   -1.8668290   -1.5649508    5.0545920  
H   -0.1007624   -0.0827977    5.4019087  
H    3.3491200    2.8096064    2.8367138  
