64

C    1.8198240   -1.8243395   -8.4448971  
C    2.7479359   -2.6305884   -9.0621801  
C    2.5244321   -2.5228596  -10.4668290  
C    1.4380686   -1.6290518  -10.6480712  
N    1.0327242   -1.2250480   -9.4002360  
C    0.9427360   -1.2868007  -11.9099343  
C    1.5554350   -1.8569991  -13.0088678  
O    1.1119718   -1.5570775  -14.2644153  
C    2.6404531   -2.7513218  -12.8484311  
O    3.1426827   -3.2351361  -14.0388229  
C    3.1294593   -3.0896228  -11.6038628  
H    3.4935395   -3.2242848   -8.5615862  
H    0.2861915   -0.5803727   -9.2129828  
H    0.1149832   -0.6063271  -12.0547902  
H    1.6691539   -2.0547258  -14.8769180  
H    3.8717398   -3.8310799  -13.8415145  
H    3.9617683   -3.7776259  -11.5122577  
C    2.3128796   -2.1207451   -5.9853291  
C    1.8202490   -1.6594122   -4.7865988  
C    0.7463179   -0.7716433   -5.0917841  
C    0.6288902   -0.7306957   -6.5047457  
N    1.5962670   -1.5596064   -7.0163180  
C   -0.3301657    0.0460745   -7.1617305  
C   -1.1864715    0.7949188   -6.3780533  
O   -2.1419345    1.5709317   -6.9678910  
C   -1.0847733    0.7675649   -4.9667678  
O   -2.0088874    1.5678198   -4.3272759  
C   -0.1387079    0.0017019   -4.3179684  
H    2.1902178   -1.9286750   -3.8121176  
H   -0.4247431    0.0817399   -8.2382921  
H   -2.6233440    2.0035648   -6.2507177  
H   -1.8718318    1.4918812   -3.3780379  
H    3.1196532   -2.8045581   -6.1865151  
C    3.3041273    0.0001178   -1.5420428  
C    2.5845373   -0.0004780   -0.3695851  
C    1.2040007   -0.0000007   -0.7283589  
C    1.1422374    0.0006038   -2.1454372  
N    2.4348641    0.0026111   -2.6077464  
C   -0.0655179    0.0008799   -2.8497918  
C   -1.2321766    0.0002325   -2.1101402  
O   -2.4392814    0.0001148   -2.7472522  
C   -1.1911209   -0.0000007   -0.6955266  
O   -2.4371528   -0.0002320   -0.1032862  
C    0.0000000    0.0000000    0.0000000  
H    3.0031533   -0.0000660    0.6222584  
H    2.7054631   -0.0071097   -3.5745261  
H   -3.1132988   -0.0000648   -2.0551787  
H   -2.3200282   -0.0004072    0.8516409  
H    4.3686625    0.0004073   -1.7024290  
C    0.8175213    0.6860729    2.3021913  
C    0.0000000    0.0000000    1.4700000  
C   -0.8887526   -0.7456559    2.3478473  
C   -0.4549825   -0.3816753    3.7138435  
N    0.5448156    0.4573574    3.6934124  
C   -1.0945674   -0.9182058    4.8835240  
C   -2.1210866   -1.7789155    4.6970523  
O   -2.8083856   -2.3554314    5.6976972  
C   -2.5824069   -2.1655116    3.3310774  
O   -3.5227682   -2.9541547    3.2362962  
C   -1.9100805   -1.6015804    2.1470656  
H   -0.7567140   -0.6349833    5.8697035  
H   -3.4728268   -2.9124471    5.2533954  
H   -2.2742832   -1.9066565    1.1752040  
H    1.6189533    1.3585343    2.0405121  
