64

C    1.1243397    0.0100587   -0.7919008  
C    0.7474050    0.0234990   -2.1148549  
C   -0.6787407    0.0234097   -2.1414696  
C   -1.1201756    0.0097938   -0.7935543  
N    0.0000000    0.0000000    0.0000000  
C   -2.4730823    0.0062259   -0.4408234  
C   -3.3971976    0.0168991   -1.4675051  
O   -4.7313527    0.0143484   -1.1793462  
C   -2.9763681    0.0301765   -2.8186315  
O   -4.0166513    0.0392766   -3.7247609  
C   -1.6418599    0.0334306   -3.1673478  
H   -2.8160163   -0.0042766    0.5845976  
H   -5.1938847    0.0227821   -2.0274361  
H   -3.6464721    0.0480164   -4.6127334  
H   -1.3497514    0.0435084   -4.2109230  
H    2.1062457    0.0054059   -0.3505416  
C    2.8410155   -0.6914087   -3.3574595  
C    3.4607952   -0.4638597   -4.5441225  
C    2.6381572    0.4698018   -5.2765010  
C    1.4800223    0.7697157   -4.4130397  
N    1.6628915    0.0339888   -3.2649308  
C    0.4704761    1.6131951   -4.7463023  
C    0.5283133    2.2692638   -6.0419736  
O   -0.3323904    3.0462149   -6.4341923  
C    1.7455370    1.9661678   -6.9727280  
O    1.8049353    2.5123990   -8.0660552  
C    2.7718921    1.0388940   -6.5030354  
H    4.3882980   -0.9003973   -4.8693730  
H   -0.3699633    1.8194938   -4.0982191  
H    3.1456979   -1.3281646   -2.5428425  
C    4.9568784   -2.6993425   -7.4032030  
C    5.8617847   -2.1646256   -8.2907215  
C    5.5715062   -0.7718243   -8.3929104  
C    4.4701978   -0.5123452   -7.5375063  
N    4.1205829   -1.7045147   -6.9534520  
C    3.9131114    0.7611495   -7.3869900  
C    4.4782753    1.7915279   -8.1129979  
O    3.9736590    3.0549952   -8.0033292  
C    5.5772655    1.5524617   -8.9720011  
O    6.0270417    2.6806985   -9.6263152  
C    6.1271844    0.2963333   -9.1211857  
H    6.6351813   -2.7114053   -8.8024663  
H    3.3781934   -1.8296921   -6.2892460  
H    4.5056414    3.6129634   -8.5855074  
H    6.7696565    2.4323832  -10.1853017  
H    6.9687470    0.1437351   -9.7867408  
H    4.8409216   -3.7119192   -7.0565021  
C    2.5311839    2.1237619    3.0120429  
C    1.9795631    1.6616747    1.8395852  
C    0.9223175    0.7739173    2.1983588  
C    0.8753926    0.7337535    3.6154372  
N    1.8668922    1.5631002    4.0777464  
C   -0.0496243   -0.0427881    4.3197917  
C   -0.9437528   -0.7922060    3.5801400  
O   -1.8685244   -1.5680278    4.2172520  
C   -0.9124520   -0.7656372    2.1655264  
O   -1.8671164   -1.5663939    1.5732860  
C    0.0000000    0.0000000    1.4700000  
H    2.3005065    1.9304404    0.8477417  
H    2.0679347    1.7444845    5.0445261  
H   -0.0904770   -0.0778569    5.3997470  
H   -2.3849669   -2.0011402    3.5251786  
H   -1.7775064   -1.4909735    0.6183591  
H    3.3468514    2.8078103    3.1724291  
