64

C   -3.0266770   -0.0201417   -3.9901700  
C   -4.3187145   -0.0279658   -4.4624466  
C   -4.2414155   -0.0258944   -5.8867433  
C   -2.8648943   -0.0169128   -6.2288455  
N   -2.1549790   -0.0116661   -5.0538519  
C   -2.4145790   -0.0129272   -7.5524730  
C   -3.3712800   -0.0184096   -8.5489014  
O   -2.9867337   -0.0152162   -9.8585308  
C   -4.7495026   -0.0270133   -8.2275835  
O   -5.5775078   -0.0312363   -9.3310920  
C   -5.1944728   -0.0306763   -6.9220128  
H   -5.2075869   -0.0332723   -3.8550995  
H   -1.1536684   -0.0155509   -4.9807538  
H   -3.7989210   -0.0197586  -10.3815946  
H   -6.4901039   -0.0370274   -9.0265619  
H   -6.2565783   -0.0371010   -6.7066773  
C   -3.3002714   -0.0234660   -1.4738988  
C   -2.5232183   -0.0178872   -2.6090749  
C   -1.1622933   -0.0079467   -2.1820105  
C   -1.1711598   -0.0081985   -0.7636141  
N   -2.4851803   -0.0157812   -0.3662359  
C    0.0000000    0.0000000    0.0000000  
C    1.2020095    0.0083023   -0.6806487  
O    2.3758702    0.0161638    0.0157743  
C    1.2314321    0.0090701   -2.0955514  
O    2.5053725    0.0182170   -2.6250189  
C    0.0764444    0.0012584   -2.8495196  
H   -2.8034977   -0.0283039    0.5858661  
H    3.0834893    0.0213966   -0.6418824  
H    2.4359373    0.0180833   -3.5845929  
H    0.1303964    0.0022483   -3.9319092  
H   -4.3714464   -0.0308729   -1.3667135  
C    0.0019601   -0.7160688   -7.2833686  
C   -0.9902507   -0.0034296   -7.9159270  
C   -0.3688970    0.7299798   -8.9697917  
C    1.0151789    0.4221142   -8.9313307  
N    1.2064579   -0.4570680   -7.8944763  
C    1.9367315    0.9685498   -9.8296279  
C    1.4521946    1.8414444  -10.7843303  
O    2.3084668    2.4035639  -11.6864579  
C    0.0746714    2.1613004  -10.8385485  
O   -0.2513554    3.0457903  -11.8458861  
C   -0.8349915    1.6228127   -9.9525066  
H    2.0870980   -0.8607187   -7.6308092  
H    2.9929001    0.7380571   -9.8055024  
H    1.7722848    2.9724754  -12.2540081  
H   -1.1989922    3.2085606  -11.8128106  
H   -1.8840405    1.8866818  -10.0184461  
H   -0.0540163   -1.3875095   -6.4437298  
C    0.8175213    0.6860729    2.3021913  
C    0.0000000    0.0000000    1.4700000  
C   -0.8887526   -0.7456559    2.3478473  
C   -0.4549825   -0.3816753    3.7138435  
N    0.5448156    0.4573574    3.6934124  
C   -1.0945674   -0.9182058    4.8835240  
C   -2.1210866   -1.7789155    4.6970523  
O   -2.8083856   -2.3554314    5.6976972  
C   -2.5824069   -2.1655116    3.3310774  
O   -3.5227682   -2.9541547    3.2362962  
C   -1.9100805   -1.6015804    2.1470656  
H   -0.7567140   -0.6349833    5.8697035  
H   -3.4728268   -2.9124471    5.2533954  
H   -2.2742832   -1.9066565    1.1752040  
H    1.6189533    1.3585343    2.0405121  
