62

C   -8.4180846    0.9789131   -1.8435068  
C   -7.6176861   -0.0964924   -2.1522680  
C   -8.4682797   -1.2385625   -2.2345268  
C   -9.7881608   -0.7948148   -1.9644734  
N   -9.7217560    0.5560960   -1.7294250  
C  -10.8896012   -1.6559775   -1.9604404  
C  -10.6543872   -2.9893377   -2.2343077  
O  -11.6941122   -3.8735883   -2.2436970  
C   -9.3445456   -3.4513097   -2.5058085  
O   -9.2741860   -4.8056107   -2.7593061  
C   -8.2574382   -2.6023644   -2.5096902  
H  -10.5053060    1.1480172   -1.5204745  
H  -11.8980227   -1.3240413   -1.7552409  
H  -11.3159517   -4.7374779   -2.4533494  
H   -8.3561543   -5.0352909   -2.9327110  
H   -7.2658468   -2.9852172   -2.7209910  
H   -8.1619769    2.0138443   -1.6942249  
C   -4.3568011    2.1196432   -0.0439437  
C   -5.5783087    1.6201330   -0.4323715  
C   -5.3394752    0.7460400   -1.5339704  
C   -3.9416100    0.7519547   -1.7745206  
N   -3.3751248    1.5976635   -0.8533862  
C   -3.3460097   -0.0004262   -2.7913647  
C   -4.1766436   -0.7730845   -3.5795421  
O   -3.6475259   -1.5274889   -4.5864786  
C   -5.5738550   -0.7919242   -3.3553483  
O   -6.2652642   -1.6105065   -4.2243824  
C   -6.1621470   -0.0497244   -2.3525632  
H   -6.5251586    1.8575137    0.0216316  
H   -2.3939627    1.7946125   -0.7726816  
H   -4.3895800   -1.9821538   -5.0058844  
H   -7.2009062   -1.5658646   -4.0048713  
H   -4.1083018    2.8080666    0.7455376  
C    0.0000000    0.0000000    0.0000000  
C    1.0662919   -0.0000103   -0.8334272  
C    0.4961868    0.0000066   -2.1718889  
C   -0.9663860   -0.0000849   -1.9540248  
N   -1.2632775   -0.0000084   -0.6828659  
C   -1.8985364   -0.0000515   -3.0477258  
C   -1.3925778    0.0004567   -4.3020543  
O   -2.1456385    0.0005412   -5.4151314  
C    0.0786229    0.0009326   -4.5544999  
O    0.4683756    0.0012594   -5.7221104  
C    1.0143162    0.0008443   -3.4159034  
H    2.1107195    0.0000631   -0.5721869  
H   -1.5042277    0.0009692   -6.1484420  
H    2.0724151    0.0013151   -3.6409746  
C    0.0000000    0.0000000    1.4700000  
C    1.0541688    0.0001722    2.3260392  
C    0.5103138    0.0000454    3.6635956  
C   -0.9576371   -0.0002459    3.5155732  
N   -1.2018458    0.0001392    2.1615969  
C   -1.8348311   -0.0008317    4.5510609  
C   -1.2972847   -0.0009736    5.9014604  
O   -2.0050672   -0.0014265    6.9001319  
C    0.2542623   -0.0004184    6.0817573  
O    0.7184670   -0.0002256    7.2139121  
C    1.0974552   -0.0000873    4.8889129  
H    2.0940752    0.0005483    2.0517982  
H   -2.9081052   -0.0011668    4.4207061  
H    2.1707277    0.0000911    5.0223670  
H   -2.1128194   -0.0014912    1.7406791  
