62

C    5.4475732   -0.9811120   -8.5654002  
C    4.9538845    0.0945548   -7.8642006  
C    5.0805502    1.2363375   -8.7097120  
C    5.6627782    0.7921533   -9.9244693  
N    5.8746097   -0.5587296   -9.8025676  
C    5.9340083    1.6529466  -10.9922979  
C    5.6113291    2.9863791  -10.8310096  
O    5.8545641    3.8702806  -11.8422317  
C    5.0301339    3.4487842   -9.6263490  
O    4.7672186    4.8031029   -9.6200517  
C    4.7625291    2.6002035   -8.5723916  
H    6.2674103   -1.1509087  -10.5118008  
H    6.3777513    1.3206769  -11.9206789  
H    5.5594668    4.7342923  -11.5265328  
H    4.3762477    5.0330872   -8.7716110  
H    4.3169539    2.9833840   -7.6618350  
H    5.5301878   -2.0159537   -8.2803804  
C    6.2078070   -2.1204374   -4.1884497  
C    6.1274188   -1.6213462   -5.4678683  
C    5.0008410   -0.7471989   -5.5037681  
C    4.4282842   -0.7526502   -4.2060484  
N    5.1843804   -1.5981474   -3.4326986  
C    3.2973506   -0.0000934   -3.8752374  
C    2.7343299    0.7722679   -4.8725555  
O    1.6291399    1.5268263   -4.6038367  
C    3.2908609    0.7906440   -6.1736139  
O    2.6156195    1.6089739   -7.0555033  
C    4.4063831    0.0482704   -6.5007499  
H    6.7975949   -1.8590340   -6.2761773  
H    5.0245803   -1.7947652   -2.4612117  
H    1.4023566    1.9812319   -5.4256330  
H    3.0556030    1.5640232   -7.9099019  
H    6.9133535   -2.8087589   -3.7555795  
C    3.3321174    0.0004714   -1.3379332  
C    2.6974186    0.0000115   -2.5332308  
C    1.2800441   -0.0002119   -2.2052838  
C    1.2395035    0.0000643   -0.7271293  
N    2.4394063    0.0005458   -0.2131034  
C    0.0000000    0.0000000    0.0000000  
C   -1.1468701    0.0000634   -0.7169542  
O   -2.3742201    0.0000072   -0.1695492  
C   -1.1388767    0.0001606   -2.2096354  
O   -2.2206229    0.0000903   -2.7970413  
C    0.1454526    0.0001815   -2.9324239  
H   -2.9844344    0.0001023   -0.9290168  
H    0.1083580    0.0003680   -4.0135594  
H    4.3940040    0.0007617   -1.1498630  
C    0.8681109    0.7263879    2.2709268  
C    0.6127770    0.5096195    3.5869401  
C   -0.4920590   -0.4175482    3.6542670  
C   -0.8620974   -0.7254003    2.2596025  
N    0.0000000    0.0000000    1.4700000  
C   -1.8641242   -1.5660088    1.8976294  
C   -2.6293522   -2.2103885    2.9520183  
O   -3.5512764   -2.9839180    2.7283916  
C   -2.2549728   -1.8987399    4.4361073  
O   -2.8923672   -2.4351063    5.3323774  
C   -1.1543735   -0.9755647    4.7012123  
H    1.1382914    0.9492124    4.4159191  
H   -2.1192137   -1.7782617    0.8686553  
H   -0.9013378   -0.7652422    5.7314848  
H    1.6172880    1.3558399    1.8188057  
