64

C   -6.4191814    2.3718158   -0.8223865  
C   -6.3887624    1.0688124   -1.2625277  
C   -7.5644025    0.4333478   -0.7638759  
C   -8.2800147    1.4064788   -0.0203433  
N   -7.5559413    2.5715514   -0.0745696  
C   -9.4934604    1.1297741    0.6166626  
C   -9.9937607   -0.1525804    0.5007146  
O  -11.1750905   -0.4768370    1.1026547  
C   -9.2942206   -1.1374255   -0.2365378  
O   -9.9219471   -2.3657706   -0.2582716  
C   -8.0969407   -0.8652293   -0.8649932  
H   -7.8212755    3.4401975    0.3532545  
H  -10.0436875    1.8669874    1.1849653  
H  -11.3386890   -1.4070418    0.8996302  
H   -9.3845809   -2.9728196   -0.7762807  
H   -7.5838567   -1.6400847   -1.4225067  
H   -5.7192285    3.1741246   -0.9815259  
C   -3.9849990    0.7198450   -1.9557668  
C   -3.2941076    0.0012878   -2.9038237  
C   -4.2599031   -0.7267530   -3.6599958  
C   -5.5339487   -0.4096640   -3.1231643  
N   -5.3307597    0.4696096   -2.0886553  
C   -6.7219427   -0.9488993   -3.6258414  
C   -6.6219977   -1.8239429   -4.6900250  
O   -7.7506394   -2.3792946   -5.2198990  
C   -5.3598478   -2.1529600   -5.2391535  
O   -5.4267873   -3.0384776   -6.2949576  
C   -4.1874277   -1.6215791   -4.7435812  
H   -7.6960711   -0.7113624   -3.2210543  
H   -7.4602831   -2.9511454   -5.9423566  
H   -4.5326439   -3.2076307   -6.6072041  
H   -3.2353058   -1.8923965   -5.1847160  
H   -3.6241831    1.3899478   -1.1943646  
C    0.0000000    0.0000000    0.0000000  
C    1.0541688   -0.0001723   -0.8560392  
C    0.5103136   -0.0000455   -2.1935956  
C   -0.9576373    0.0002461   -2.0455730  
N   -1.2018460   -0.0001389   -0.6915968  
C   -1.8348314    0.0008319   -3.0810607  
C   -1.2972851    0.0009739   -4.4314603  
O   -2.0050676    0.0014268   -5.4301316  
C    0.2542619    0.0004184   -4.6117572  
O    0.7184666    0.0002257   -5.7439122  
C    1.0974551    0.0000873   -3.4189129  
H    2.0940752   -0.0005484   -0.5817983  
H    2.1707276   -0.0000912   -3.5523673  
H   -2.1128194    0.0014915   -0.2706789  
C    1.1188642   -0.0008217    2.2703808  
C    0.0000000    0.0000000    1.4700000  
C   -1.1323862   -0.0008904    2.3373528  
C   -0.6382662   -0.0019682    3.6669281  
N    0.7324016   -0.0038477    3.5902241  
C   -1.4770914   -0.0027325    4.7854808  
C   -2.8395474   -0.0020958    4.5576857  
O   -3.7039201   -0.0024443    5.6140350  
C   -3.3517868   -0.0013946    3.2384331  
O   -4.7300496   -0.0012389    3.1773122  
C   -2.5248543   -0.0009135    2.1344818  
H    1.3576314    0.0056174    4.3757045  
H   -1.1067570   -0.0036993    5.8013813  
H   -4.5940033   -0.0021850    5.2385129  
H   -4.9934601   -0.0007286    2.2519915  
H   -2.9462578   -0.0005617    1.1360343  
H    2.1619896   -0.0009344    2.0042067  
