62

C    6.9902377    0.8361457   -5.0824227  
C    7.6742325    0.0341718   -4.1984220  
C    9.0610691    0.1641183   -4.5056633  
C    9.1632025    1.0664478   -5.5952943  
N    7.8873690    1.4539444   -5.9219634  
C   10.3876642    1.4302332   -6.1637504  
C   11.5298509    0.8732053   -5.6221718  
O   12.7517651    1.1942886   -6.1387412  
C   11.4484105   -0.0293210   -4.5351429  
O   12.6739355   -0.4980057   -4.1088047  
C   10.2407683   -0.3888635   -3.9740209  
H    7.2283734   -0.5710033   -3.4277301  
H    7.6459142    2.0998078   -6.6517175  
H   10.4722387    2.1173011   -6.9944050  
H   13.4040478    0.7028276   -5.6227382  
H   12.5298071   -1.1008013   -3.3729594  
H   10.2097273   -1.0826884   -3.1420825  
C    3.4490007   -0.7155694   -2.8370992  
C    4.7273320   -0.4631135   -3.2782359  
C    4.6191178    0.4538721   -4.3654467  
C    3.2387525    0.7275245   -4.5433023  
N    2.5562217   -0.0001543   -3.6003001  
C    2.7607275    1.5948136   -5.5302624  
C    3.6931809    2.1970540   -6.3524636  
O    3.2810854    3.0530542   -7.3324914  
C    5.0747610    1.9363921   -6.1908802  
O    5.8764929    2.6121488   -7.0874986  
C    5.5470398    1.0806941   -5.2176081  
H    5.6270600   -0.8884991   -2.8677122  
H    1.7099378    1.8074577   -5.6710640  
H    4.0797050    3.3567958   -7.7832816  
H    6.7933160    2.3806575   -6.9101549  
H    3.1033302   -1.3504575   -2.0393600  
C    0.0000000    0.0000000    0.0000000  
C    1.0541688   -0.0001719   -0.8560391  
C    0.5103141   -0.0000449   -2.1935955  
C   -0.9576367    0.0002461   -2.0455733  
N   -1.2018459   -0.0001392   -0.6915970  
C   -1.8348306    0.0008319   -3.0810611  
C   -1.2972842    0.0009739   -4.4314605  
O   -2.0050664    0.0014267   -5.4301321  
C    0.2542628    0.0004190   -4.6117571  
O    0.7184677    0.0002263   -5.7439119  
C    1.0974556    0.0000880   -3.4189127  
H    2.0940752   -0.0005479   -0.5817978  
H   -2.9081050    0.0011669   -2.9507065  
H   -2.1128195    0.0014911   -0.2706793  
C    3.2573670    0.0002920    2.9809380  
C    2.5379467    0.0001709    1.8291961  
C    1.1435042   -0.0000331    2.2038498  
C    1.1092607    0.0000083    3.6788474  
N    2.4227561   -0.0001909    4.0882609  
C   -0.0265533    0.0002524    4.4215661  
C   -1.3003036    0.0002640    3.7214979  
O   -2.3786784    0.0004133    4.3006425  
C   -1.2877726   -0.0000311    2.1595606  
O   -2.3539958   -0.0003306    1.5592035  
C    0.0000000    0.0000000    1.4700000  
H    2.9384090    0.0000368    0.8310761  
H   -0.0296291    0.0004086    5.5027230  
H    4.3270393    0.0004765    3.1139444  
H    2.7280493    0.0013407    5.0442112  
