64

C    2.2746100   -1.9454470   -8.4691972  
C    3.2467427   -2.7769133   -8.9752502  
C    3.1377345   -2.7281391  -10.3966361  
C    2.0726330   -1.8426510  -10.7022419  
N    1.5692701   -1.3866782   -9.5092073  
C    1.6819664   -1.5535608  -12.0131942  
C    2.3794124   -2.1693527  -13.0342454  
O    2.0397897   -1.9222932  -14.3329491  
C    3.4448513   -3.0562278  -12.7494471  
O    4.0398702   -3.5895389  -13.8741141  
C    3.8306219   -3.3420958  -11.4563937  
H    3.9474514   -3.3491491   -8.3916861  
H    0.8122820   -0.7346778   -9.4099815  
H    0.8709570   -0.8797085  -12.2527560  
H    2.6428823   -2.4452083  -14.8771045  
H    4.7485625   -4.1767310  -13.5938211  
H    4.6504454   -4.0257031  -11.2691801  
C    2.5712580   -2.1206951   -5.9616534  
C    1.9373695   -1.6210575   -7.0756615  
C    0.9098909   -0.7465418   -6.6129415  
C    0.9654398   -0.7523422   -5.1956172  
N    1.9839669   -1.5983920   -4.8330982  
C    0.0950446    0.0004351   -4.4015596  
C   -0.8484202    0.7733795   -5.0501034  
O   -1.7229563    1.5281754   -4.3231345  
C   -0.9198267    0.7921108   -6.4633859  
O   -1.9133951    1.6110121   -6.9589329  
C   -0.0616586    0.0495202   -7.2473711  
H    2.2669718   -1.7953555   -3.8901799  
H   -2.2874063    1.9829868   -4.9617328  
H   -1.8933719    1.5662709   -7.9197665  
H   -0.1404743    0.0839253   -8.3276867  
H    3.3949113   -2.8094149   -5.8827842  
C    3.3321173    0.0004713   -1.3379338  
C    2.6974181    0.0000116   -2.5332314  
C    1.2800438   -0.0002119   -2.2052841  
C    1.2395034    0.0000643   -0.7271299  
N    2.4394062    0.0005460   -0.2131038  
C    0.0000000    0.0000000    0.0000000  
C   -1.1468702    0.0000634   -0.7169543  
O   -2.3742203    0.0000074   -0.1695487  
C   -1.1388770    0.0001607   -2.2096355  
O   -2.2206234    0.0000905   -2.7970411  
C    0.1454522    0.0001815   -2.9324241  
H    3.1367984   -0.0000653   -3.5160950  
H   -2.9844346    0.0001026   -0.9290167  
H    4.3940038    0.0007618   -1.1498640  
C    2.5285572    2.1210227    2.9438989  
C    1.9331703    1.6216660    4.0790748  
C    0.8903039    0.7472258    3.6520102  
C    0.8972198    0.7527806    2.2336141  
N    1.9028376    1.5986179    1.8362361  
C    0.0000000    0.0000000    1.4700000  
C   -0.9207814   -0.7726952    2.1506477  
O   -1.8198395   -1.5274828    1.4542253  
C   -0.9436862   -0.7911793    3.5655508  
O   -1.9197945   -1.6098497    4.0950179  
C   -0.0590329   -0.0485852    4.3195194  
H    2.2150357    1.8593692    5.0905303  
H    2.1533708    1.7953814    0.8841339  
H   -2.3621246   -1.9821033    2.1118817  
H   -1.8668290   -1.5649508    5.0545920  
H   -0.1007624   -0.0827977    5.4019087  
H    3.3491200    2.8096064    2.8367138  
