60

C    2.4049833   -1.9809185   -7.6893901  
C    3.4895413   -2.8199039   -7.8003170  
C    3.8969069   -2.7952916   -9.1670824  
C    3.0164182   -1.9161138   -9.8480468  
N    2.1216504   -1.4404981   -8.9218748  
C    3.1225038   -1.6496185  -11.2164455  
C    4.1360865   -2.2819361  -11.9099900  
O    4.2852296   -2.0572098  -13.2479991  
C    5.0243320   -3.1628517  -11.2483075  
O    5.9798019   -3.7145510  -12.0765882  
C    4.9201004   -3.4264332   -9.8984239  
H    3.9319011   -3.3815174   -6.9953938  
H    1.3826987   -0.7876321   -9.1108124  
H    2.4545214   -0.9806877  -11.7413586  
H    5.0404527   -2.5886839  -13.5316150  
H    6.5381176   -4.2962428  -11.5516853  
H    5.6150038   -4.1059951   -9.4190661  
C    1.7704315   -2.0997830   -5.2515185  
C    1.5928585   -1.6333167   -6.5144327  
C    0.4607455   -0.7379008   -6.4771947  
C   -0.0100422   -0.7207977   -5.0790331  
N    0.8257127   -1.5670939   -4.3875226  
C   -1.0641734    0.0073898   -4.6315339  
C   -1.7831601    0.8289564   -5.5910245  
O   -2.7459476    1.5206786   -5.2862920  
C   -1.3021140    0.8259151   -7.0770897  
O   -1.8998118    1.5134384   -7.8939923  
C   -0.1528624    0.0000285   -7.4390071  
H    0.1740158    0.0036595   -8.4699583  
H    2.5118283   -2.7880435   -4.8793394  
H    0.7607705   -1.7654785   -3.4059559  
C    1.1319248    0.0015675   -0.8009270  
C    0.7969916    0.0034959   -2.1169404  
C   -0.6453336    0.0035703   -2.1842672  
C   -1.1266831    0.0015415   -0.7896027  
N    0.0000000    0.0000000    0.0000000  
C   -2.4346129    0.0013924   -0.4276297  
C   -3.4350110    0.0031352   -1.4820184  
O   -4.6384610    0.0030897   -1.2583919  
C   -2.9478958    0.0050460   -2.9661075  
O   -3.7809377    0.0062160   -3.8623775  
C   -1.5113821    0.0053068   -3.2312125  
H    1.4821240    0.0045436   -2.9459192  
H   -2.7664565    0.0000185    0.6013447  
H    2.1104318    0.0009428   -0.3488058  
C    2.4951002    2.0940188    2.9809380  
C    1.9440701    1.6314916    1.8291961  
C    0.8759964    0.7350050    2.2038498  
C    0.8497377    0.7130254    3.6788474  
N    1.8560616    1.5571714    4.0882609  
C   -0.0205033   -0.0168748    4.4215661  
C   -0.9962600   -0.8356168    3.7214979  
O   -1.8224391   -1.5286685    4.3006425  
C   -0.9864710   -0.8277881    2.1595606  
O   -1.8030528   -1.5133726    1.5592035  
C    0.0000000    0.0000000    1.4700000  
H    2.2509283    1.8888011    0.8310761  
H   -0.0229599   -0.0187323    5.5027230  
H    3.3143982    2.7817323    3.1139444  
H    2.0889452    1.7545833    5.0442112  
