62

C    0.0000000    0.0000000    0.0000000  
C    1.0521663   -0.0011848   -0.8862345  
C    0.4917204   -0.0011931   -2.1979132  
C   -0.9187440    0.0003103   -2.0478677  
N   -1.1833178   -0.0009469   -0.7007906  
C   -1.7951715    0.0010260   -3.1372080  
C   -1.2375860    0.0005162   -4.4010418  
O   -2.0474246    0.0015258   -5.4997565  
C    0.1673554   -0.0013555   -4.5711965  
O    0.5673495   -0.0020658   -5.8915552  
C    1.0325749   -0.0023359   -3.4969894  
H    2.0953051   -0.0030544   -0.6200571  
H   -2.0989782    0.0102266   -0.2891815  
H   -2.8710950    0.0020277   -3.0295498  
H   -1.4634918    0.0006423   -6.2693584  
H    1.5290678   -0.0033073   -5.9180051  
C    4.3492359   -2.0980064   -1.4710681  
C    3.1288583   -1.6343795   -1.8449721  
C    3.3413761   -0.7396446   -2.9581301  
C    4.7960275   -0.7198915   -3.2038732  
N    5.3496945   -1.5635224   -2.2686574  
C    5.4017582    0.0079301   -4.1760207  
C    4.5652013    0.8266244   -5.0376746  
O    5.0157004    1.5178902   -5.9418338  
C    3.0221456    0.8211333   -4.7952838  
O    2.3077276    1.5066991   -5.5142178  
C    2.4861679   -0.0045255   -3.7159933  
H    2.1872594   -1.8898593   -1.3924955  
H    4.6019212   -2.7850026   -0.6798181  
H    6.3294132   -1.7620983   -2.1805306  
C    6.8548512    0.0082622   -4.3983299  
C    7.8234285   -0.6682994   -3.7288546  
C    9.0824651   -0.3188241   -4.3432876  
C    8.7657287    0.6235765   -5.4334019  
N    7.3989327    0.7797217   -5.4139898  
C    9.6875110    1.1872907   -6.2545276  
C   11.0848082    0.8426781   -6.0512073  
O   11.9898550    1.2975441   -6.7384380  
C   11.4431285   -0.1535743   -4.9027769  
O   12.6161430   -0.4514183   -4.7222558  
C   10.3618756   -0.6953049   -4.0834648  
H    7.6730495   -1.3361184   -2.8993863  
H    9.4340689    1.8764038   -7.0481265  
H   10.6183975   -1.3842963   -3.2902361  
H    6.8772397    1.3655897   -6.0398040  
C    1.1243417   -0.0099156    2.2619005  
C    0.7474090   -0.0234034    3.5848544  
C   -0.6787367   -0.0234952    3.6114698  
C   -1.1201739   -0.0099357    2.2635546  
N    0.0000000    0.0000000    1.4700000  
C   -2.4730812   -0.0065396    1.9108239  
C   -3.3971947   -0.0173298    2.9375057  
O   -4.7313508   -0.0149487    2.6493466  
C   -2.9763630   -0.0305536    4.2886322  
O   -4.0166453   -0.0397858    5.1947621  
C   -1.6418541   -0.0336380    4.6373480  
H    1.4178735   -0.0310004    4.4271209  
H   -2.8160170    0.0039190    0.8854031  
H   -5.1938803   -0.0234410    3.4974381  
H   -3.6464643   -0.0484781    6.0827341  
H   -1.3497443   -0.0436789    5.6809233  
H    2.1062470   -0.0051382    1.8205408  
