60

C    2.0267553   -0.0000384   -8.1984929  
C    3.1408358   -0.0000935   -7.3914663  
C    4.2783643   -0.0002493   -8.2520646  
C    3.7921658    0.0000039   -9.5845582  
N    2.4210661   -0.0018237   -9.5160152  
C    4.6376343    0.0002440  -10.6980977  
C    5.9987107    0.0005352  -10.4621979  
O    6.8693544    0.0011286  -11.5133842  
C    6.5030884   -0.0000863   -9.1399200  
O    7.8809626   -0.0001164   -9.0705972  
C    5.6696004   -0.0005966   -8.0409094  
H    3.1344285   -0.0011345   -6.3149206  
H    1.8005232    0.0084583  -10.3051930  
H    4.2733522    0.0002935  -11.7161856  
H    7.7571867    0.0009431  -11.1325710  
H    8.1388620   -0.0005250   -8.1437250  
H    6.0850541   -0.0012489   -7.0399723  
C   -0.2963294   -0.0005341   -4.3948471  
C    0.7407570   -0.0008425   -5.2643479  
C    0.1250904   -0.0009651   -6.5824732  
C   -1.3291515   -0.0008023   -6.3145850  
N   -1.5822797   -0.0004687   -5.0339928  
C   -2.2982577   -0.0008134   -7.3756785  
C   -1.8356081   -0.0005906   -8.6466189  
O   -2.6263942   -0.0005804   -9.7332175  
C   -0.3739289   -0.0003760   -8.9493653  
O   -0.0244437   -0.0003029  -10.1296538  
C    0.6002573   -0.0004128   -7.8435231  
H    1.7935284   -0.0008807   -5.0390753  
H   -3.3548545   -0.0008989   -7.1509265  
H   -2.0105061   -0.0003704  -10.4880924  
C    3.1301143   -0.0010313   -1.7028257  
C    2.5367765   -0.0002767   -0.4864669  
C    1.1089900    0.0001027   -0.7656184  
C    1.0177864   -0.0004150   -2.2415133  
N    2.1993571   -0.0011613   -2.7963824  
C   -0.2459220   -0.0002879   -2.9257116  
C   -1.3675327   -0.0000606   -2.1698519  
O   -2.6129319    0.0000866   -2.6748482  
C   -1.3083588    0.0000910   -0.6783229  
O   -2.3693264    0.0004206   -0.0541685  
C    0.0000000    0.0000000    0.0000000  
H    3.0096014   -0.0001008    0.4807517  
H   -3.1967445    0.0002093   -1.8949025  
H    4.1849272   -0.0015113   -1.9271980  
C    2.5528530    2.1414826    2.8079335  
C    2.0663498    1.7338582    4.0032312  
C    0.9804344    0.8229586    3.6752840  
C    0.9495562    0.7966882    2.1971295  
N    1.8690446    1.5676019    1.6831036  
C    0.0000000    0.0000000    1.4700000  
C   -0.8785127   -0.7372425    2.1869543  
O   -1.8187535   -1.5261249    1.6395491  
C   -0.8723269   -0.7321790    3.6796354  
O   -1.7010379   -1.4274584    4.2670412  
C    0.1115397    0.0933559    4.4024240  
H    2.4028853    2.0163452    4.9860947  
H   -2.2861435   -1.9184361    2.3990168  
H    0.0832434    0.0693689    5.4835595  
H    3.3664920    2.8238276    2.6198634  
