64

C   -3.9681760    0.7212744   -2.0574947  
C   -3.2578640    0.0024079   -2.9908519  
C   -4.2079297   -0.7249017   -3.7673801  
C   -5.4928326   -0.4070687   -3.2575436  
N   -5.3109881    0.4719255   -2.2188336  
C   -6.6702836   -0.9454663   -3.7852996  
C   -6.5484320   -1.8204218   -4.8472710  
O   -7.6659796   -2.3749699   -5.4009652  
C   -5.2751703   -2.1501730   -5.3696545  
O   -5.3203501   -3.0354960   -6.4267761  
C   -4.1131448   -1.6196191   -4.8493323  
H   -6.0450843    0.8815544   -1.6699366  
H   -7.3607867   -2.9469036   -6.1172150  
H   -4.4199158   -3.2051809   -6.7200835  
H   -3.1520866   -1.8909865   -5.2702893  
H   -3.6231025    1.3910351   -1.2885322  
C    0.0000000    0.0000000    0.0000000  
C    1.0521674   -0.0011914   -0.8862336  
C    0.4917224   -0.0011964   -2.1979128  
C   -0.9187417    0.0003160   -2.0478686  
N   -1.1833166   -0.0009394   -0.7007917  
C   -1.7951687    0.0010372   -3.1372096  
C   -1.2375824    0.0005238   -4.4010427  
O   -2.0474192    0.0015381   -5.4997588  
C    0.1673601   -0.0013574   -4.5711963  
O    0.5673543   -0.0020699   -5.8915549  
C    1.0325779   -0.0023427   -3.4969886  
H    2.0953061   -0.0030676   -0.6200555  
H   -2.0989773    0.0102401   -0.2891830  
H   -1.4634864    0.0006510   -6.2693600  
H    1.5290739   -0.0033178   -5.9180040  
H    2.1042166   -0.0039640   -3.6584446  
C   -8.4246346    0.6226566   -2.8527072  
C   -8.0057169   -0.6217655   -3.2630591  
C   -9.1050484   -1.5121976   -3.0808472  
C  -10.1765800   -0.7478276   -2.5521847  
N   -9.7290683    0.5436778   -2.4242633  
C  -11.4233615   -1.3026148   -2.2479869  
C  -11.5915980   -2.6535794   -2.4820140  
O  -12.7890314   -3.2463750   -2.2031606  
C  -10.5343121   -3.4330530   -3.0086882  
O  -10.8581635   -4.7625037   -3.1848244  
C   -9.3039795   -2.8864622   -3.3087666  
H  -10.2735448    1.3155278   -2.0840069  
H  -12.2440354   -0.7254911   -1.8447214  
H  -12.6929372   -4.1789042   -2.4364446  
H  -10.0902054   -5.2176771   -3.5435180  
H   -8.5130219   -3.5086282   -3.7109774  
H   -7.8957002    1.5600413   -2.8304013  
C    0.0000000    0.0000000    1.4700000  
C    1.0541688    0.0001722    2.3260392  
C    0.5103138    0.0000454    3.6635956  
C   -0.9576371   -0.0002459    3.5155732  
N   -1.2018458    0.0001392    2.1615969  
C   -1.8348311   -0.0008317    4.5510609  
C   -1.2972847   -0.0009736    5.9014604  
O   -2.0050672   -0.0014265    6.9001319  
C    0.2542623   -0.0004184    6.0817573  
O    0.7184670   -0.0002256    7.2139121  
C    1.0974552   -0.0000873    4.8889129  
H    2.0940752    0.0005483    2.0517982  
H   -2.9081052   -0.0011668    4.4207061  
H    2.1707277    0.0000911    5.0223670  
H   -2.1128194   -0.0014912    1.7406791  
