64

C    2.8233664   -0.7205607   -3.3382292  
C    3.4268661   -0.4842994   -4.5516688  
C    2.5842328    0.4170778   -5.2672726  
C    1.4720842    0.6983393   -4.4330402  
N    1.6478441   -0.0100103   -3.2702994  
C    0.4355979    1.5542918   -4.8175285  
C    0.5235710    2.1371635   -6.0668078  
O   -0.4608988    2.9814396   -6.4922850  
C    1.6251367    1.8686375   -6.9137216  
O    1.5672663    2.5248764   -8.1258871  
C    2.6478820    1.0241123   -6.5351770  
H    4.3591355   -0.9101967   -4.8810315  
H   -0.4148219    1.7726465   -4.1864115  
H   -0.2071854    3.2724183   -7.3778505  
H    2.3476242    2.2892251   -8.6368809  
H    3.1377238   -1.3408256   -2.5163961  
C    1.1188644    0.0008222   -0.8003802  
C    0.0000000    0.0000000    0.0000000  
C   -1.1323859    0.0008892   -0.8673531  
C   -0.6382655    0.0019669   -2.1969283  
N    0.7324019    0.0038477   -2.1202237  
C   -1.4770904    0.0027303   -3.3154812  
C   -2.8395467    0.0020925   -3.0876865  
O   -3.7039188    0.0024401   -4.1440357  
C   -3.3517866    0.0013913   -1.7684335  
O   -4.7300494    0.0012345   -1.7073130  
C   -2.5248543    0.0009112   -0.6644822  
H   -1.1067560    0.0036971   -4.3313815  
H   -4.5940025    0.0021802   -3.7685138  
H   -4.9934597    0.0007243   -0.7819929  
H   -2.9462580    0.0005593    0.3339652  
H    2.1619896    0.0009358   -0.5342059  
C    4.8978609   -2.6646460   -7.4783290  
C    5.7698337   -2.1111402   -8.3870443  
C    5.4451621   -0.7256450   -8.4849824  
C    4.3577849   -0.4897764   -7.6052650  
N    4.0491600   -1.6884051   -7.0114148  
C    3.7749258    0.7708419   -7.4443116  
C    4.2995183    1.8123868   -8.1846927  
O    3.7684095    3.0641018   -8.0657491  
C    5.3840240    1.5968643   -9.0679896  
O    5.7926478    2.7337350   -9.7342452  
C    5.9593482    0.3534449   -9.2274792  
H    6.5438972   -2.6410439   -8.9152687  
H    3.3250882   -1.8292233   -6.3303337  
H    4.2740252    3.6329162   -8.6607852  
H    6.5279700    2.5013993  -10.3095071  
H    6.7889396    0.2188497   -9.9116881  
H    4.8132447   -3.6788598   -7.1273741  
C    0.0000000    0.0000000    1.4700000  
C    1.0662921    0.0000102    2.3034270  
C    0.4961870   -0.0000064    3.6418889  
C   -0.9663858    0.0000850    3.4240247  
N   -1.2632773    0.0000084    2.1528658  
C   -1.8985362    0.0000517    4.5177257  
C   -1.3925775   -0.0004564    5.7720543  
O   -2.1456383   -0.0005410    6.8851312  
C    0.0786232   -0.0009323    6.0245000  
O    0.4683759   -0.0012588    7.1921102  
C    1.0143166   -0.0008442    4.8859032  
H    2.1107198   -0.0000632    2.0421868  
H   -2.9622183    0.0003270    4.3293377  
H   -1.5042274   -0.0009692    7.6184419  
H    2.0724152   -0.0013148    5.1109744  
