60

C   -9.1669816    3.0299385   -1.8815979  
C  -10.2931581    2.2404232   -1.9109366  
C   -9.8616779    0.9098587   -2.1902635  
C   -8.4499604    0.9491880   -2.3222904  
N   -8.0608386    2.2517181   -2.1309325  
C   -7.6843695   -0.1873500   -2.5996746  
C   -8.3561086   -1.3854688   -2.7461514  
O   -7.6573481   -2.5261757   -3.0173231  
C   -9.7642889   -1.4448980   -2.6184235  
O  -10.2852475   -2.7105120   -2.7921059  
C  -10.5202284   -0.3240278   -2.3450530  
H  -11.3017082    2.5817393   -1.7518042  
H   -7.1137190    2.5839476   -2.1548056  
H   -8.3085871   -3.2369967   -3.0796589  
H  -11.2406835   -2.6628157   -2.6897791  
H  -11.5973423   -0.4004176   -2.2530353  
H   -9.0653917    4.0868595   -1.7039611  
C   -4.6947976    2.0138971   -0.3183443  
C   -3.5421867    1.6316854   -0.9158233  
C   -3.9514600    0.7140407   -1.9679277  
C   -5.4250718    0.6562913   -1.8596816  
N   -5.8665584    1.4162667   -0.8945306  
C   -6.2212659   -0.1556042   -2.7383094  
C   -5.5747443   -0.8767168   -3.6824179  
O   -6.1913469   -1.6769183   -4.5687128  
C   -4.0886055   -0.8392725   -3.8171449  
O   -3.5672058   -1.5214556   -4.6991824  
C   -3.2941076    0.0012878   -2.9038237  
H   -2.5382353    1.9350698   -0.6726877  
H   -5.4711320   -2.0523898   -5.1067318  
H   -4.8199134    2.6921166    0.5107142  
C    0.0000000    0.0000000    0.0000000  
C    1.0541688   -0.0001723   -0.8560392  
C    0.5103136   -0.0000455   -2.1935956  
C   -0.9576373    0.0002461   -2.0455730  
N   -1.2018460   -0.0001389   -0.6915968  
C   -1.8348314    0.0008319   -3.0810607  
C   -1.2972851    0.0009739   -4.4314603  
O   -2.0050676    0.0014268   -5.4301316  
C    0.2542619    0.0004184   -4.6117572  
O    0.7184666    0.0002257   -5.7439122  
C    1.0974551    0.0000873   -3.4189129  
H    2.0940752   -0.0005484   -0.5817983  
H    2.1707276   -0.0000912   -3.5523673  
H   -2.1128194    0.0014915   -0.2706789  
C    3.2798086   -0.0005857    2.9199648  
C    2.5571146   -0.0005566    4.0696553  
C    1.1637436   -0.0001548    3.6910360  
C    1.1336965    0.0000200    2.2159470  
N    2.4483514    0.0001428    1.8102719  
C    0.0000000    0.0000000    1.4700000  
C   -1.2757367    0.0000186    2.1664417  
O   -2.3524596    0.0000640    1.5842315  
C   -1.2676493    0.0000873    3.7284083  
O   -2.3355761    0.0004100    4.3257297  
C    0.0181563   -0.0001760    4.4216297  
H    2.9547357   -0.0006076    5.0689105  
H    0.0150794   -0.0003319    5.5031631  
H    4.3498549   -0.0008612    2.7900019  
H    2.7563627   -0.0012824    0.8551938  
