64

C    2.4521484    0.0014842   -3.7217481  
C    3.5379004    0.0014492   -2.8769939  
C    4.7042702    0.0016044   -3.6980792  
C    4.2640495    0.0020180   -5.0464607  
N    2.8914061   -0.0000175   -5.0249744  
C    5.1472048    0.0025712   -6.1303547  
C    6.4993920    0.0030164   -5.8479207  
O    7.4055692    0.0039157   -6.8686330  
C    6.9581309    0.0022390   -4.5091249  
O    8.3328180    0.0023940   -4.3925944  
C    6.0874477    0.0014198   -3.4393422  
H    3.4945812    0.0002216   -1.8013009  
H    2.2982886    0.0103119   -5.8349658  
H    4.8180484    0.0027443   -7.1603345  
H    8.2798218    0.0037914   -6.4575998  
H    8.5587830    0.0018623   -3.4574242  
H    6.4683334    0.0006542   -2.4247469  
C    0.0000000    0.0000000    0.0000000  
C    1.0662922   -0.0000101   -0.8334266  
C    0.4961875    0.0000066   -2.1718886  
C   -0.9663853   -0.0000848   -1.9540248  
N   -1.2632772   -0.0000083   -0.6828658  
C   -1.8985359   -0.0000514   -3.0477260  
C   -1.3925768    0.0004568   -4.3020543  
O   -2.1456378    0.0005413   -5.4151314  
C    0.0786238    0.0009327   -4.5544999  
O    0.4683768    0.0012594   -5.7221098  
C    1.0143171    0.0008446   -3.4159030  
H    2.1107199    0.0000634   -0.5721863  
H   -1.5042266    0.0009697   -6.1484425  
C   -3.9847100    0.7177366   -1.8071036  
C   -3.3460091   -0.0004261   -2.7913651  
C   -4.3510974   -0.7290150   -3.4939006  
C   -5.5942320   -0.4126521   -2.8885442  
N   -5.3355648    0.4667358   -1.8665924  
C   -6.8075069   -0.9525624   -3.3258661  
C   -6.7651058   -1.8275478   -4.3939392  
O   -7.9205862   -2.3835410   -4.8616466  
C   -5.5345110   -2.1558460   -5.0109275  
O   -5.6582854   -3.0414001   -6.0615548  
C   -4.3371699   -1.6237986   -4.5798529  
H   -6.0266285    0.8755682   -1.2638747  
H   -7.7583062   -0.7155806   -2.8686768  
H   -7.6696373   -2.9552254   -5.5988488  
H   -4.7823563   -3.2100440   -6.4219868  
H   -3.4103019   -1.8940736   -5.0721395  
H   -3.5833882    1.3880437   -1.0664361  
C    3.3003543   -0.0005276    2.9438989  
C    2.5232812   -0.0003497    4.0790748  
C    1.1623199    0.0001319    3.6520102  
C    1.1711883   -0.0000583    2.2336141  
N    2.4852299    0.0014920    1.8362361  
C    0.0000000    0.0000000    1.4700000  
C   -1.2020384   -0.0000520    2.1506477  
O   -2.3759250   -0.0003494    1.4542253  
C   -1.2314658    0.0005113    3.5655508  
O   -2.5054393    0.0008037    4.0950179  
C   -0.0764518    0.0007272    4.3195194  
H    2.8919952    0.0005619    5.0905303  
H    2.8036267   -0.0088181    0.8841339  
H   -3.0835639   -0.0000348    2.1118817  
H   -2.4360050    0.0011527    5.0545920  
H   -0.1304098    0.0013421    5.4019087  
H    4.3715549   -0.0004895    2.8367138  
