62

C    0.0000000    0.0000000    0.0000000  
C    1.0521667   -0.0011906   -0.8862341  
C    0.4917227   -0.0011963   -2.1979131  
C   -0.9187421    0.0003145   -2.0478684  
N   -1.1833168   -0.0009413   -0.7007915  
C   -1.7951690    0.0010346   -3.1372095  
C   -1.2375822    0.0005217   -4.4010428  
O   -2.0474198    0.0015349   -5.4997584  
C    0.1673600   -0.0013578   -4.5711963  
O    0.5673545   -0.0020703   -5.8915548  
C    1.0325785   -0.0023423   -3.4969888  
H    2.0953061   -0.0030656   -0.6200555  
H   -2.0989774    0.0102375   -0.2891831  
H   -1.4634863    0.0006484   -6.2693600  
H    1.5290728   -0.0033171   -5.9180038  
H    2.1042157   -0.0039623   -3.6584453  
C   -4.7114676    2.0140164   -0.4339619  
C   -3.5467558    1.6314383   -1.0072506  
C   -3.9343478    0.7149044   -2.0684939  
C   -5.4099584    0.6581318   -1.9914604  
N   -5.8712092    1.4176769   -1.0352551  
C   -6.1879767   -0.1525090   -2.8873597  
C   -5.5221535   -0.8733545   -3.8181634  
O   -6.1204506   -1.6724248   -4.7179237  
C   -4.0334736   -0.8368761   -3.9214237  
O   -3.4940295   -1.5187507   -4.7927835  
C   -3.2578642    0.0024037   -2.9908517  
H   -2.5479538    1.9339113   -0.7427124  
H   -7.2650744   -0.1751424   -2.8082468  
H   -5.3892901   -2.0479978   -5.2408982  
C   -4.9052096    2.9377537    0.6930135  
C   -3.9751700    3.6153589    1.4140907  
C   -4.6894763    4.3837801    2.4061243  
C   -6.1221717    4.0962226    2.2024480  
N   -6.1853378    3.2133619    1.1491401  
C   -7.1264052    4.6303484    2.9426700  
C   -6.7725881    5.5499778    4.0111410  
O   -7.6043808    6.0834970    4.7334843  
C   -5.2614622    5.8690851    4.2445390  
O   -4.9514583    6.6421194    5.1409631  
C   -4.2701109    5.2313810    3.3817483  
H   -2.9102847    3.5809727    1.2676300  
H   -8.1709782    4.4061043    2.7768670  
H   -3.2259376    5.4574527    3.5500281  
H   -7.0309732    2.8270212    0.7713973  
C    3.3003543   -0.0005276    2.9438989  
C    2.5232812   -0.0003497    4.0790748  
C    1.1623199    0.0001319    3.6520102  
C    1.1711883   -0.0000583    2.2336141  
N    2.4852299    0.0014920    1.8362361  
C    0.0000000    0.0000000    1.4700000  
C   -1.2020384   -0.0000520    2.1506477  
O   -2.3759250   -0.0003494    1.4542253  
C   -1.2314658    0.0005113    3.5655508  
O   -2.5054393    0.0008037    4.0950179  
C   -0.0764518    0.0007272    4.3195194  
H    2.8919952    0.0005619    5.0905303  
H    2.8036267   -0.0088181    0.8841339  
H   -3.0835639   -0.0000348    2.1118817  
H   -2.4360050    0.0011527    5.0545920  
H   -0.1304098    0.0013421    5.4019087  
H    4.3715549   -0.0004895    2.8367138  
