64

C    4.2805096   -1.0448023   -8.9571073  
C    4.5323848   -0.6427567  -10.2483808  
C    4.2805957    0.7601254  -10.3042725  
C    3.8747739    1.1621964   -9.0059753  
N    3.8837075    0.0415857   -8.2130253  
C    3.5448189    2.4841250   -8.6922491  
C    3.6263109    3.4172177   -9.7075698  
O    3.3157129    4.7223068   -9.4560048  
C    4.0288288    3.0354169  -11.0095012  
O    4.0598191    4.0798117  -11.9104028  
C    4.3542240    1.7314344  -11.3197818  
H    4.8565384   -1.2821781  -11.0515362  
H    3.2346682    2.7969681   -7.7047594  
H    3.4370620    5.1972112  -10.2884738  
H    4.3412964    3.7368486  -12.7640712  
H    4.6589947    1.4688889  -12.3260936  
H    4.3511334   -2.0208097   -8.5083539  
C    5.6573111   -2.1473680   -4.7413590  
C    5.3913273   -1.6588958   -5.9995775  
C    4.2744195   -0.7801340   -5.8775348  
C    3.8987699   -0.7719569   -4.5097819  
N    4.7576801   -1.6141266   -3.8482379  
C    2.8310662   -0.0116220   -4.0232752  
C    2.1299947    0.7546478   -4.9340480  
O    1.0786366    1.5163391   -4.5127576  
C    2.4893424    0.7594366   -6.3028664  
O    1.6943743    1.5731552   -7.0833993  
C    3.5423736    0.0093841   -6.7835666  
H    5.9347035   -1.9064424   -6.8953777  
H    4.7417700   -1.8017169   -2.8620645  
H    0.7349588    1.9646893   -5.2964234  
H    2.0038823    1.5189562   -7.9927233  
H    6.4166733   -2.8350609   -4.4105910  
C    3.3041270    0.0001177   -1.5420434  
C    2.5845372   -0.0004781   -0.3695856  
C    1.2040006   -0.0000008   -0.7283592  
C    1.1422371    0.0006037   -2.1454375  
N    2.4348636    0.0026109   -2.6077467  
C   -0.0655183    0.0008798   -2.8497920  
C   -1.2321770    0.0002326   -2.1101400  
O   -2.4392818    0.0001147   -2.7472520  
C   -1.1911210   -0.0000007   -0.6955263  
O   -2.4371527   -0.0002320   -0.1032859  
C    0.0000000    0.0000000    0.0000000  
H    3.0031533   -0.0000660    0.6222577  
H   -0.1193553    0.0014844   -3.9297472  
H   -3.1132989   -0.0000648   -2.0551784  
H   -2.3200282   -0.0004069    0.8516410  
H    4.3686624    0.0004070   -1.7024294  
C    2.5528530    2.1414826    2.8079335  
C    2.0663498    1.7338582    4.0032312  
C    0.9804344    0.8229586    3.6752840  
C    0.9495562    0.7966882    2.1971295  
N    1.8690446    1.5676019    1.6831036  
C    0.0000000    0.0000000    1.4700000  
C   -0.8785127   -0.7372425    2.1869543  
O   -1.8187535   -1.5261249    1.6395491  
C   -0.8723269   -0.7321790    3.6796354  
O   -1.7010379   -1.4274584    4.2670412  
C    0.1115397    0.0933559    4.4024240  
H    2.4028853    2.0163452    4.9860947  
H   -2.2861435   -1.9184361    2.3990168  
H    0.0832434    0.0693689    5.4835595  
H    3.3664920    2.8238276    2.6198634  
