64

C    5.4768067   -1.0658684   -6.5397148  
C    6.4683107   -1.9515704   -6.1862764  
C    7.2364910   -2.2069670   -7.3607011  
C    6.6618610   -1.4425859   -8.4082923  
N    5.5943417   -0.7630581   -7.8760672  
C    7.1643480   -1.4495593   -9.7129942  
C    8.2671920   -2.2423830   -9.9646745  
O    8.7986919   -2.2860971  -11.2211017  
C    8.8543916   -3.0124892   -8.9327107  
O    9.9460886   -3.7500479   -9.3420359  
C    8.3590407   -3.0063047   -7.6454211  
H    6.6186659   -2.3638176   -5.2032008  
H    4.9990246   -0.1310174   -8.3801541  
H    6.7308664   -0.8693588  -10.5159038  
H    9.5507406   -2.8909751  -11.1785416  
H   10.2826219   -4.2404996   -8.5858570  
H    8.8298451   -3.6067579   -6.8758262  
C    4.1935184   -0.7177398   -4.3920614  
C    3.1006054    0.0006263   -3.9654951  
C    2.6156865    0.7290727   -5.0919139  
C    3.4596602    0.4124175   -6.1870683  
N    4.4081828   -0.4670001   -5.7271261  
C    3.2765221    0.9521236   -7.4637700  
C    2.2220072    1.8272018   -7.6381675  
O    1.9974363    2.3830042   -8.8644080  
C    1.3691760    2.1557905   -6.5576473  
O    0.3653188    3.0414033   -6.8912721  
C    1.5494155    1.6239448   -5.2978134  
H    3.9163356    0.7149188   -8.3025626  
H    1.2248045    2.9547959   -8.7676620  
H   -0.1646154    3.2102482   -6.1062468  
H    0.8800660    1.8944411   -4.4895551  
H    4.8377617   -1.3880261   -3.8492670  
C    3.2798083    0.0005857   -1.4499652  
C    2.5571142    0.0005565   -2.5996556  
C    1.1637432    0.0001548   -2.2210361  
C    1.1336964   -0.0000200   -0.7459473  
N    2.4483512   -0.0001428   -0.3402723  
C    0.0000000    0.0000000    0.0000000  
C   -1.2757368   -0.0000186   -0.6964415  
O   -2.3524598   -0.0000639   -0.1142311  
C   -1.2676497   -0.0000872   -2.2584083  
O   -2.3355766   -0.0004101   -2.8557295  
C    0.0181558    0.0001758   -2.9516296  
H    0.0150788    0.0003319   -4.0331631  
H    4.3498547    0.0008612   -1.3200026  
H    2.7563626    0.0012823    0.6148059  
C    2.5285572    2.1210227    2.9438989  
C    1.9331703    1.6216660    4.0790748  
C    0.8903039    0.7472258    3.6520102  
C    0.8972198    0.7527806    2.2336141  
N    1.9028376    1.5986179    1.8362361  
C    0.0000000    0.0000000    1.4700000  
C   -0.9207814   -0.7726952    2.1506477  
O   -1.8198395   -1.5274828    1.4542253  
C   -0.9436862   -0.7911793    3.5655508  
O   -1.9197945   -1.6098497    4.0950179  
C   -0.0590329   -0.0485852    4.3195194  
H    2.2150357    1.8593692    5.0905303  
H    2.1533708    1.7953814    0.8841339  
H   -2.3621246   -1.9821033    2.1118817  
H   -1.8668290   -1.5649508    5.0545920  
H   -0.1007624   -0.0827977    5.4019087  
H    3.3491200    2.8096064    2.8367138  
