60

C    5.2032984   -1.0823549   -8.7424570  
C    5.6382908   -0.7068693   -9.9923607  
C    5.4072530    0.6957945  -10.1096450  
C    4.8247788    1.1251107   -8.8896700  
N    4.7131956    0.0202319   -8.0825703  
C    4.4634714    2.4544447   -8.6506784  
C    4.6946543    3.3670661   -9.6615467  
O    4.3611795    4.6782555   -9.4810198  
C    5.2745209    2.9579600  -10.8859659  
O    5.4403394    3.9843374  -11.7928267  
C    5.6309597    1.6466574  -11.1225317  
H    6.0681191   -1.3634032  -10.7293858  
H    4.0190241    2.7880159   -7.7231013  
H    4.6025809    5.1361828  -10.2966756  
H    5.8372465    3.6234083  -12.5914505  
H    6.0731129    1.3630293  -12.0704408  
H    5.2025463   -2.0496923   -8.2699994  
C    5.9779326   -2.0928592   -4.4468277  
C    5.0400352   -1.6304885   -3.5804345  
C    4.1859905   -0.7341818   -4.3234533  
C    4.7069275   -0.7121372   -5.7036455  
N    5.7934745   -1.5560774   -5.7119684  
C    4.1728106    0.0176374   -6.7155014  
C    3.0072079    0.8361655   -6.4258171  
O    2.4535610    1.5290918   -7.2693981  
C    2.4388223    0.8282645   -4.9709354  
O    1.4580063    1.5136695   -4.7150431  
C    3.1006054    0.0006263   -3.9654951  
H    4.9561722   -1.8877888   -2.5395805  
H    6.7884827   -2.7804145   -4.2674807  
H    6.3633299   -1.7534011   -6.5140748  
C    3.2798083    0.0005857   -1.4499652  
C    2.5571142    0.0005565   -2.5996556  
C    1.1637432    0.0001548   -2.2210361  
C    1.1336964   -0.0000200   -0.7459473  
N    2.4483512   -0.0001428   -0.3402723  
C    0.0000000    0.0000000    0.0000000  
C   -1.2757368   -0.0000186   -0.6964415  
O   -2.3524598   -0.0000639   -0.1142311  
C   -1.2676497   -0.0000872   -2.2584083  
O   -2.3355766   -0.0004101   -2.8557295  
C    0.0181558    0.0001758   -2.9516296  
H    0.0150788    0.0003319   -4.0331631  
H    4.3498547    0.0008612   -1.3200026  
H    2.7563626    0.0012823    0.6148059  
C    2.5528530    2.1414826    2.8079335  
C    2.0663498    1.7338582    4.0032312  
C    0.9804344    0.8229586    3.6752840  
C    0.9495562    0.7966882    2.1971295  
N    1.8690446    1.5676019    1.6831036  
C    0.0000000    0.0000000    1.4700000  
C   -0.8785127   -0.7372425    2.1869543  
O   -1.8187535   -1.5261249    1.6395491  
C   -0.8723269   -0.7321790    3.6796354  
O   -1.7010379   -1.4274584    4.2670412  
C    0.1115397    0.0933559    4.4024240  
H    2.4028853    2.0163452    4.9860947  
H   -2.2861435   -1.9184361    2.3990168  
H    0.0832434    0.0693689    5.4835595  
H    3.3664920    2.8238276    2.6198634  
