62

C   -2.8583697    0.0009052   -8.6426812  
C   -3.9836075    0.0018889   -7.8512857  
C   -5.1090115    0.0022166   -8.7276802  
C   -4.6042596    0.0011063  -10.0532552  
N   -3.2342495    0.0022804   -9.9655795  
C   -5.4341011    0.0007756  -11.1784901  
C   -6.7983376    0.0012732  -10.9616127  
O   -7.6542233    0.0006304  -12.0248502  
C   -7.3211250    0.0027559   -9.6465050  
O   -8.6998323    0.0035066   -9.5964233  
C   -6.5030589    0.0033563   -8.5359668  
H   -3.9922284    0.0034227   -6.7747561  
H   -2.6027559   -0.0086753  -10.7460139  
H   -5.0556439    0.0000748  -12.1913927  
H   -8.5472853    0.0014351  -11.6564679  
H   -8.9706451    0.0044711   -8.6732424  
H   -6.9324441    0.0046775   -7.5409270  
C   -0.8712823    0.0001712   -4.7267111  
C    0.4246872    0.0002196   -5.1323438  
C    0.4138924    0.0002759   -6.5761999  
C   -1.0047702    0.0002855   -6.9813996  
N   -1.7322698   -0.0001788   -5.8136522  
C   -1.4369659    0.0007303   -8.2678326  
C   -0.4382364    0.0010071   -9.3238038  
O   -0.7266369    0.0013501  -10.5133939  
C    1.0700316    0.0007501   -8.9176841  
O    1.9199265    0.0006730   -9.7979910  
C    1.4124572    0.0005498   -7.4976147  
H    1.2895156    0.0000339   -4.4930590  
H    2.4590211    0.0005779   -7.2248003  
H   -2.7343169    0.0012687   -5.7593665  
C    1.0965515    0.0001358   -0.8010304  
C    0.0000000    0.0000000    0.0000000  
C   -1.1546562    0.0001470   -0.8669514  
C   -0.6372012    0.0003520   -2.2486282  
N    0.7342873    0.0007338   -2.1395014  
C   -1.4147737    0.0001354   -3.3608717  
C   -2.8576047   -0.0001047   -3.1854463  
O   -3.6427778   -0.0002491   -4.1244908  
C   -3.4275837   -0.0000725   -1.7311667  
O   -4.6406828    0.0000333   -1.5710061  
C   -2.4891866   -0.0001090   -0.6116745  
H   -2.8919121   -0.0002919    0.3920865  
H    2.1388272    0.0000662   -0.5261647  
H    1.3735873   -0.0006098   -2.9130261  
C    0.8576279    0.7185626    2.2703808  
C    0.0000000    0.0000000    1.4700000  
C   -0.8668858   -0.7285659    2.3373528  
C   -0.4876752   -0.4117774    3.6669281  
N    0.5635254    0.4678311    3.5902241  
C   -1.1297612   -0.9515493    4.7854808  
C   -2.1738724   -1.8268314    4.5576857  
O   -2.8357962   -2.3827064    5.6140350  
C   -2.5667212   -2.1555554    3.2384331  
O   -3.6226318   -3.0413663    3.1773122  
C   -1.9335634   -1.6236449    2.1344818  
H    1.0363952    0.8769718    4.3757045  
H   -0.8454472   -0.7142436    5.8013813  
H   -3.5178062   -2.9546422    5.2385129  
H   -3.8247440   -3.2102924    2.2519915  
H   -2.2566033   -1.8942483    1.1360343  
H    1.6567807    1.3889844    2.0042067  
