62

C    1.6487258   -2.3707623   -7.7799781  
C    1.2159531   -1.0676894   -7.6952661  
C    1.5658511   -0.4320895   -8.9233471  
C    2.2152123   -1.4052134   -9.7253978  
N    2.2505212   -2.5704125   -9.0003590  
C    2.6976729   -1.1283901  -11.0081265  
C    2.5211249    0.1540781  -11.4900846  
O    2.9727597    0.4784533  -12.7366081  
C    1.8760151    1.1389180  -10.7047561  
O    1.7772273    2.3673847  -11.3248008  
C    1.4000459    0.8666048   -9.4391240  
H    2.6421678   -3.4390823   -9.3165994  
H    3.1935961   -1.8655974  -11.6243950  
H    2.7512794    1.4087235  -12.8737511  
H    1.3296014    2.9744214  -10.7275223  
H    0.9102535    1.6414592   -8.8610398  
H    1.5770170   -3.1731751   -7.0658701  
C    0.8246867   -0.7190543   -5.2242741  
C   -0.0307352   -0.0004646   -4.4215603  
C   -0.9001604    0.7278868   -5.2865486  
C   -0.5247009    0.4109451   -6.6171514  
N    0.5268047   -0.4685438   -6.5433115  
C   -1.1700224    0.9504892   -7.7339507  
C   -2.2135721    1.8256965   -7.5033123  
O   -2.8785559    2.3813506   -8.5578538  
C   -2.6027002    2.1545707   -6.1829949  
O   -3.6585244    3.0402812   -6.1189979  
C   -1.9663492    1.6228848   -5.0807725  
H   -0.8885752    0.7130660   -8.7506223  
H   -3.5595538    2.9532703   -8.1804768  
H   -3.8580209    3.2093201   -5.1931309  
H   -2.2865756    1.8935992   -4.0814492  
H    1.6246629   -1.3893553   -4.9602777  
C    3.2573670   -0.0002920   -1.5109380  
C    2.5379468   -0.0001709   -0.3591961  
C    1.1435043    0.0000332   -0.7338500  
C    1.1092609   -0.0000082   -2.2088477  
N    2.4227562    0.0001909   -2.6182613  
C   -0.0265532   -0.0002522   -2.9515663  
C   -1.3003035   -0.0002639   -2.2514981  
O   -2.3786784   -0.0004131   -2.8306429  
C   -1.2877725    0.0000312   -0.6895608  
O   -2.3539958    0.0003307   -0.0892036  
C    0.0000000    0.0000000    0.0000000  
H    2.9384091   -0.0000369    0.6389239  
H    4.3270394   -0.0004765   -1.6439446  
H    2.7280494   -0.0013406   -3.5742113  
C    2.5128556    2.1077716    2.9199648  
C    1.9592212    1.6432552    4.0696553  
C    0.8915788    0.7479214    3.6910360  
C    0.8684491    0.7287414    2.2159470  
N    1.8754542    1.5738793    1.8102719  
C    0.0000000    0.0000000    1.4700000  
C   -0.9772830   -0.8200135    2.1664417  
O   -1.8021297   -1.5120829    1.5842315  
C   -0.9711318   -0.8147624    3.7284083  
O   -1.7894187   -1.5009653    4.3257297  
C    0.0140216    0.0115358    4.4216297  
H    2.2638494    1.8988021    5.0689105  
H    0.0117648    0.0094386    5.5031631  
H    3.3327358    2.7953732    2.7900019  
H    2.1123206    1.7707734    0.8551938  
