62

C    2.1192509   -1.8295016   -8.4507034  
C    3.0752597   -2.6362246   -9.0231655  
C    2.9179549   -2.5294790  -10.4368351  
C    1.8413644   -1.6357550  -10.6695085  
N    1.3779141   -1.2308531   -9.4423639  
C    1.4058447   -1.2943753  -11.9534755  
C    2.0694180   -1.8653751  -13.0220300  
O    1.6854108   -1.5663225  -14.2972234  
C    3.1456415   -2.7596288  -12.8102028  
O    3.7031675   -3.2443046  -13.9753627  
C    3.5756541   -3.0970705  -11.5438113  
H    3.7964955   -3.2295978   -8.4877016  
H    0.6234613   -0.5860151   -9.2908188  
H    0.5858556   -0.6139703  -12.1375106  
H    2.2706972   -2.0644263  -14.8825419  
H    4.4221133   -3.8401388  -13.7436250  
H    4.4026938   -3.7850427  -11.4127482  
C    2.4962702   -2.1241895   -5.9704916  
C    1.9479396   -1.6619896   -4.7965365  
C    0.8895861   -0.7743925   -5.1524289  
C    0.8386259   -0.7344385   -6.5693735  
N    1.8288917   -1.5637501   -7.0343817  
C   -0.0884710    0.0419065   -7.2712058  
C   -0.9805688    0.7913395   -6.5291209  
O   -1.9072294    1.5669746   -7.1637119  
C   -0.9452412    0.7649786   -5.1145987  
O   -1.8982996    1.5657230   -4.5197602  
C   -0.0307352   -0.0004646   -4.4215603  
H    2.2717310   -1.9305789   -3.8055713  
H   -0.1323996    0.0768152   -8.3510458  
H   -2.4217455    2.0001341   -6.4702341  
H   -1.8059651    1.4904495   -3.5650812  
H    3.3115489   -2.8081778   -6.1330989  
C    3.2573670   -0.0002920   -1.5109380  
C    2.5379468   -0.0001709   -0.3591961  
C    1.1435043    0.0000332   -0.7338500  
C    1.1092609   -0.0000082   -2.2088477  
N    2.4227562    0.0001909   -2.6182613  
C   -0.0265532   -0.0002522   -2.9515663  
C   -1.3003035   -0.0002639   -2.2514981  
O   -2.3786784   -0.0004131   -2.8306429  
C   -1.2877725    0.0000312   -0.6895608  
O   -2.3539958    0.0003307   -0.0892036  
C    0.0000000    0.0000000    0.0000000  
H    2.9384091   -0.0000369    0.6389239  
H    4.3270394   -0.0004765   -1.6439446  
H    2.7280494   -0.0013406   -3.5742113  
C    0.0000000    0.0000000    1.4700000  
C    1.0662921    0.0000102    2.3034270  
C    0.4961870   -0.0000064    3.6418889  
C   -0.9663858    0.0000850    3.4240247  
N   -1.2632773    0.0000084    2.1528658  
C   -1.8985362    0.0000517    4.5177257  
C   -1.3925775   -0.0004564    5.7720543  
O   -2.1456383   -0.0005410    6.8851312  
C    0.0786232   -0.0009323    6.0245000  
O    0.4683759   -0.0012588    7.1921102  
C    1.0143166   -0.0008442    4.8859032  
H    2.1107198   -0.0000632    2.0421868  
H   -2.9622183    0.0003270    4.3293377  
H   -1.5042274   -0.0009692    7.6184419  
H    2.0724152   -0.0013148    5.1109744  
