62

C   -0.6255009   -0.7254811   -9.4228175  
C   -0.3142040   -0.7141474  -10.7627559  
C   -0.5140636    0.6202629  -11.2253633  
C   -0.9509059    1.3851572  -10.1135927  
N   -1.0095861    0.5370404   -9.0356916  
C   -1.2447244    2.7491722  -10.2026023  
C   -1.0945307    3.3520799  -11.4363464  
O   -1.3674219    4.6817846  -11.5792728  
C   -0.6601424    2.6056529  -12.5574938  
O   -0.5604811    3.3490243  -13.7154273  
C   -0.3703639    1.2599257  -12.4704754  
H    0.0152225   -1.5634563  -11.3364681  
H   -1.5782196    3.3377224   -9.3590437  
H   -1.2000792    4.8967773  -12.5061165  
H   -0.2614059    2.7704249  -14.4235098  
H   -0.0397993    0.7143393  -13.3465696  
H   -0.6053204   -1.5345733   -8.7129440  
C    0.6364688   -0.6837595   -5.1902200  
C   -0.1387079    0.0017019   -4.3179684  
C   -1.0701777    0.7476897   -5.1500536  
C   -0.7049024    0.3845506   -6.5361590  
N    0.2947993   -0.4543147   -6.5660079  
C   -1.4020122    0.9216209   -7.6722400  
C   -2.4181036    1.7820426   -7.4344017  
O   -3.1544583    2.3589953   -8.3992581  
C   -2.8108993    2.1677923   -6.0469331  
O   -3.7454940    2.9562142   -5.9050026  
C   -2.0803710    1.6033193   -4.8981847  
H   -3.7960377    2.9156438   -7.9221097  
H   -2.3957800    1.9077869   -3.9092220  
H    1.4500366   -1.3562239   -4.9691495  
C    3.3041273    0.0001178   -1.5420428  
C    2.5845373   -0.0004780   -0.3695851  
C    1.2040007   -0.0000007   -0.7283589  
C    1.1422374    0.0006038   -2.1454372  
N    2.4348641    0.0026111   -2.6077464  
C   -0.0655179    0.0008799   -2.8497918  
C   -1.2321766    0.0002325   -2.1101402  
O   -2.4392814    0.0001148   -2.7472522  
C   -1.1911209   -0.0000007   -0.6955266  
O   -2.4371528   -0.0002320   -0.1032862  
C    0.0000000    0.0000000    0.0000000  
H    3.0031533   -0.0000660    0.6222584  
H    2.7054631   -0.0071097   -3.5745261  
H   -3.1132988   -0.0000648   -2.0551787  
H   -2.3200282   -0.0004072    0.8516409  
H    4.3686625    0.0004073   -1.7024290  
C    0.8681109    0.7263879    2.2709268  
C    0.6127770    0.5096195    3.5869401  
C   -0.4920590   -0.4175482    3.6542670  
C   -0.8620974   -0.7254003    2.2596025  
N    0.0000000    0.0000000    1.4700000  
C   -1.8641242   -1.5660088    1.8976294  
C   -2.6293522   -2.2103885    2.9520183  
O   -3.5512764   -2.9839180    2.7283916  
C   -2.2549728   -1.8987399    4.4361073  
O   -2.8923672   -2.4351063    5.3323774  
C   -1.1543735   -0.9755647    4.7012123  
H    1.1382914    0.9492124    4.4159191  
H   -2.1192137   -1.7782617    0.8686553  
H   -0.9013378   -0.7652422    5.7314848  
H    1.6172880    1.3558399    1.8188057  
