64

C    3.0965826   -0.7172697   -7.4535473  
C    4.3378330   -0.4687295   -7.9920576  
C    4.1474448    0.4394538   -9.0753646  
C    2.7574910    0.7120209   -9.1506037  
N    2.1484304   -0.0078208   -8.1528604  
C    2.2059438    1.5714186  -10.1056003  
C    3.0733849    2.1667381  -11.0007643  
O    2.5881060    3.0148856  -11.9537414  
C    4.4633161    1.9070288  -10.9419492  
O    5.1947596    2.5752941  -11.9020296  
C    5.0080947    1.0591125  -10.0002590  
H    5.2661604   -0.8910152   -7.6472739  
H    1.1474442    1.7831924  -10.1683042  
H    3.3502692    3.3147577  -12.4660385  
H    6.1224446    2.3450043  -11.7926125  
H    6.0766214    0.8793561   -9.9798329  
H    2.8124089   -1.3455884   -6.6268556  
C   -0.1496416   -0.0015616   -4.3176961  
C    0.8570959   -0.0030907   -5.2552164  
C    0.2320389   -0.0039277   -6.5373647  
C   -1.1692063   -0.0025516   -6.3172809  
N   -1.3663824   -0.0030845   -4.9587013  
C   -2.0987837   -0.0025858   -7.3616343  
C   -1.6048139   -0.0037287   -8.6516620  
O   -2.4683508   -0.0034645   -9.7086935  
C   -0.2100859   -0.0054854   -8.8915534  
O    0.1236731   -0.0068845  -10.2301908  
C    0.7075438   -0.0057260   -7.8617575  
H    1.9121942   -0.0046520   -5.0413049  
H   -2.2604160    0.0081847   -4.5020195  
H   -3.1680125   -0.0016854   -7.2005416  
H   -1.9234600   -0.0046961  -10.5064137  
H    1.0828823   -0.0079962  -10.3044896  
C    3.3003544    0.0005274   -1.4738988  
C    2.5232813    0.0003494   -2.6090747  
C    1.1623199   -0.0001321   -2.1820103  
C    1.1711883    0.0000582   -0.7636141  
N    2.4852299   -0.0014920   -0.3662360  
C    0.0000000    0.0000000    0.0000000  
C   -1.2020383    0.0000519   -0.6806477  
O   -2.3759250    0.0003494    0.0157744  
C   -1.2314656   -0.0005115   -2.0955510  
O   -2.5054391   -0.0008040   -2.6250180  
C   -0.0764517   -0.0007275   -2.8495195  
H    2.8919953   -0.0005622   -3.6205304  
H    2.8036267    0.0088182    0.5858661  
H   -3.0835639    0.0000346   -0.6418817  
H   -2.4360050   -0.0011531   -3.5845921  
H    4.3715546    0.0004893   -1.3667137  
C    2.4951002    2.0940188    2.9809380  
C    1.9440701    1.6314916    1.8291961  
C    0.8759964    0.7350050    2.2038498  
C    0.8497377    0.7130254    3.6788474  
N    1.8560616    1.5571714    4.0882609  
C   -0.0205033   -0.0168748    4.4215661  
C   -0.9962600   -0.8356168    3.7214979  
O   -1.8224391   -1.5286685    4.3006425  
C   -0.9864710   -0.8277881    2.1595606  
O   -1.8030528   -1.5133726    1.5592035  
C    0.0000000    0.0000000    1.4700000  
H    2.2509283    1.8888011    0.8310761  
H   -0.0229599   -0.0187323    5.5027230  
H    3.3143982    2.7817323    3.1139444  
H    2.0889452    1.7545833    5.0442112  
