60

C   -7.4576533    3.0812792    0.1836468  
C   -8.7625924    2.9773739    0.6064990  
C   -9.1469378    1.6138775    0.4398966  
C   -8.0256672    0.9274642   -0.0925651  
N   -7.0178254    1.8482347   -0.2376627  
C   -8.0445092   -0.4397556   -0.3843607  
C   -9.2165227   -1.1266180   -0.1337953  
O   -9.2895708   -2.4633271   -0.4000390  
C  -10.3460429   -0.4592807    0.3969213  
O  -11.4372362   -1.2810644    0.5900867  
C  -10.3282564    0.8895528    0.6847719  
H   -9.3639043    3.7852012    0.9870678  
H   -7.1933472   -0.9687405   -0.7904392  
H  -10.1819144   -2.7419044   -0.1563507  
H  -12.1559404   -0.7526473    0.9504236  
H  -11.2090341    1.3734179    1.0904621  
H   -6.8063010    3.9376789    0.1479022  
C   -4.4924722    2.0950382   -0.2442176  
C   -3.4157282    1.6323169   -0.9302108  
C   -3.9167334    0.7362616   -1.9455502  
C   -5.3841441    0.7147471   -1.7937837  
N   -5.6689496    1.5587230   -0.7452227  
C   -6.2266196   -0.0146658   -2.5683136  
C   -5.6495861   -0.8333368   -3.6215682  
O   -6.3243550   -1.5259647   -4.3720698  
C   -4.0978602   -0.8259952   -3.8001701  
O   -3.6005727   -1.5115249   -4.6833547  
C   -3.2941076    0.0012878   -2.9038237  
H   -2.3878035    1.8892262   -0.7458680  
H   -7.3001860   -0.0161873   -2.4403987  
H   -4.5254896    2.7825514    0.5853157  
C    0.0000000    0.0000000    0.0000000  
C    1.0541688   -0.0001723   -0.8560392  
C    0.5103136   -0.0000455   -2.1935956  
C   -0.9576373    0.0002461   -2.0455730  
N   -1.2018460   -0.0001389   -0.6915968  
C   -1.8348314    0.0008319   -3.0810607  
C   -1.2972851    0.0009739   -4.4314603  
O   -2.0050676    0.0014268   -5.4301316  
C    0.2542619    0.0004184   -4.6117572  
O    0.7184666    0.0002257   -5.7439122  
C    1.0974551    0.0000873   -3.4189129  
H    2.0940752   -0.0005484   -0.5817983  
H    2.1707276   -0.0000912   -3.5523673  
H   -2.1128194    0.0014915   -0.2706789  
C    1.0672568    0.0000697    2.3021913  
C    0.0000000    0.0000000    1.4700000  
C   -1.1601224    0.0000736    2.3478473  
C   -0.5938729    0.0000769    3.7138435  
N    0.7113367    0.0001554    3.6934124  
C   -1.4286986    0.0001879    4.8835240  
C   -2.7683114    0.0006799    4.6970523  
O   -3.6653903    0.0008304    5.6976972  
C   -3.3702025    0.0010610    3.3310774  
O   -4.5974910    0.0013779    3.2362962  
C   -2.4926826    0.0008943    2.1470656  
H   -0.9878360   -0.0000190    5.8697035  
H   -4.5324246    0.0012261    5.2533954  
H   -2.9677772    0.0012974    1.1752040  
H    2.1134392    0.0000545    2.0405121  
