62

C    0.4824867   -0.3789092   -9.7085017  
C   -0.0354712    0.8369219   -9.3264774  
C    0.3700946    1.7891841  -10.3079630  
C    1.1396534    1.0902623  -11.2729561  
N    1.1897939   -0.2234469  -10.8776452  
C    1.7036364    1.7166157  -12.3884805  
C    1.4865493    3.0731816  -12.5326327  
O    2.0140643    3.7345166  -13.6037900  
C    0.7218124    3.7879986  -11.5802513  
O    0.5963200    5.1322745  -11.8640094  
C    0.1653563    3.1707865  -10.4793744  
H    1.6581807   -0.9609016  -11.3723732  
H    2.2912806    1.1895923  -13.1274829  
H    1.7469042    4.6584326  -13.5128553  
H    0.0662879    5.5408376  -11.1728188  
H   -0.4155096    3.7444608   -9.7666531  
H    0.4045455   -1.3444232   -9.2387499  
C    0.2278664   -0.7147031   -5.1416512  
C    0.4566972   -0.4621231   -6.4744326  
C   -0.5487152    0.4543751   -6.9031252  
C   -1.3694346    0.7276158   -5.7789872  
N   -0.8712826    0.0001710   -4.7267111  
C   -2.4650420    1.5943700   -5.8352954  
C   -2.7369115    2.1964888   -7.0484392  
O   -3.7946896    3.0519731   -7.1591910  
C   -1.9298750    1.9362321   -8.1814774  
O   -2.3299487    2.6118028   -9.3158885  
C   -0.8490363    1.0810615   -8.1267245  
H    1.2499573   -0.8871153   -7.0652905  
H   -3.0945512    1.8066988   -4.9821620  
H   -3.8053476    3.3557178   -8.0761917  
H   -1.7329154    2.3806103  -10.0340143  
H    0.7608759   -1.3493368   -4.4545558  
C    1.0965514    0.0001359   -0.8010305  
C    0.0000000    0.0000000    0.0000000  
C   -1.1546563    0.0001470   -0.8669513  
C   -0.6372014    0.0003519   -2.2486282  
N    0.7342871    0.0007337   -2.1395014  
C   -1.4147739    0.0001352   -3.3608717  
C   -2.8576049   -0.0001048   -3.1854462  
O   -3.6427779   -0.0002494   -4.1244907  
C   -3.4275840   -0.0000725   -1.7311666  
O   -4.6406831    0.0000333   -1.5710060  
C   -2.4891867   -0.0001091   -0.6116744  
H   -2.8919122   -0.0002918    0.3920866  
H    2.1388272    0.0000663   -0.5261648  
H    1.3735872   -0.0006099   -2.9130262  
C    2.3971438    2.0127888    3.1728260  
C    1.9431056    1.6308205    1.9564670  
C    0.8496017    0.7127664    2.2356185  
C    0.7794028    0.6545384    3.7115134  
N    1.6840587    1.4146091    4.2663826  
C   -0.1885723   -0.1578550    4.3957118  
C   -1.0476298   -0.8789867    3.6398520  
O   -2.0015663   -1.6796266    4.1448486  
C   -1.0022026   -0.8410666    2.1483229  
O   -1.8147390   -1.5232959    1.5241687  
C    0.0000000    0.0000000    1.4700000  
H    2.3054237    1.9346118    0.9892483  
H   -0.2170646   -0.1815267    5.4753125  
H   -2.4487139   -2.0549881    3.3649027  
H    3.2048689    2.6911772    3.3971983  
