62

C    0.0000000    0.0000000    0.0000000  
C    0.6154222    0.8534110   -0.8862352  
C    0.2881311    0.3984604   -2.1979138  
C   -0.5367946   -0.7456160   -2.0478679  
N   -0.6902839   -0.9611196   -0.7007910  
C   -1.0492055   -1.4566438   -3.1372086  
C   -0.7231641   -1.0043178   -4.4010419  
O   -1.1969255   -1.6611201   -5.4997570  
C    0.0988352    0.1350595   -4.5711967  
O    0.3330068    0.4593429   -5.8915556  
C    0.6049157    0.8368351   -3.4969899  
H    1.2261283    1.6990943   -0.6200576  
H   -1.2340958   -1.6978872   -0.2891818  
H   -1.6783529   -2.3294470   -3.0295501  
H   -0.8551944   -1.1876246   -6.2693586  
H    0.8956543    1.2392990   -5.9180054  
C    2.5643923    2.3803956   -3.0311638  
C    1.4555851    2.0155202   -3.7159937  
C    1.2818616    3.0480336   -4.7260616  
C    2.4051127    3.9829018   -4.5004217  
N    3.1603601    3.5967033   -3.5082311  
C    2.5914559    5.1572359   -5.3074540  
C    1.6965816    5.3869807   -6.2952554  
O    1.7485447    6.4433936   -7.1243100  
C    0.5526151    4.4620250   -6.5481547  
O   -0.2232893    4.7335594   -7.4643762  
C    0.3830368    3.2641332   -5.7065944  
H    0.9821310    6.3325693   -7.7154788  
H   -0.4583351    2.6192539   -5.9221265  
H    3.0277584    1.8741916   -2.1992847  
C    3.7204570    6.0634757   -5.0525320  
C    4.6806396    5.9526950   -4.1052429  
C    5.5374716    7.1117876   -4.3023286  
C    4.9311600    7.8341226   -5.4412769  
N    3.8657097    7.2244091   -5.8851846  
C    5.4913197    9.0543979   -5.9533667  
C    6.6062715    9.5315833   -5.3546080  
O    7.2350432   10.6589298   -5.7284759  
C    7.2415146    8.8257154   -4.2029233  
O    8.2550837    9.3174116   -3.7068052  
C    6.6479688    7.5756592   -3.6959866  
H    4.7934760    5.1799135   -3.3641944  
H    5.0274907    9.5611597   -6.7870116  
H    7.9905439   10.7355307   -5.1181451  
H    7.1381851    7.0948850   -2.8600594  
C    1.1243417   -0.0099156    2.2619005  
C    0.7474090   -0.0234034    3.5848544  
C   -0.6787367   -0.0234952    3.6114698  
C   -1.1201739   -0.0099357    2.2635546  
N    0.0000000    0.0000000    1.4700000  
C   -2.4730812   -0.0065396    1.9108239  
C   -3.3971947   -0.0173298    2.9375057  
O   -4.7313508   -0.0149487    2.6493466  
C   -2.9763630   -0.0305536    4.2886322  
O   -4.0166453   -0.0397858    5.1947621  
C   -1.6418541   -0.0336380    4.6373480  
H    1.4178735   -0.0310004    4.4271209  
H   -2.8160170    0.0039190    0.8854031  
H   -5.1938803   -0.0234410    3.4974381  
H   -3.6464643   -0.0484781    6.0827341  
H   -1.3497443   -0.0436789    5.6809233  
H    2.1062470   -0.0051382    1.8205408  
