64

C   -0.1496414   -0.0015607   -4.3176960  
C    0.8570959   -0.0030492   -5.2552167  
C    0.2320387   -0.0039076   -6.5373647  
C   -1.1692057   -0.0025861   -6.3172802  
N   -1.3663825   -0.0031293   -4.9587013  
C   -2.0987838   -0.0026541   -7.3616343  
C   -1.6048135   -0.0037752   -8.6516614  
O   -2.4683514   -0.0035423   -9.7086939  
C   -0.2100859   -0.0054778   -8.8915536  
O    0.1236734   -0.0068611  -10.2301901  
C    0.7075439   -0.0056849   -7.8617574  
H    1.9121943   -0.0045702   -5.0413049  
H   -2.2604161    0.0081046   -4.5020195  
H   -3.1680123   -0.0017952   -7.2005417  
H   -1.9234601   -0.0047516  -10.5064140  
H    1.0828823   -0.0079358  -10.3044898  
H    1.7698140   -0.0071880   -8.0763687  
C    3.3003545    0.0005278   -1.4738987  
C    2.5232815    0.0003501   -2.6090748  
C    1.1623200   -0.0001315   -2.1820103  
C    1.1711882    0.0000584   -0.7636141  
N    2.4852301   -0.0014918   -0.3662361  
C    0.0000000    0.0000000    0.0000000  
C   -1.2020383    0.0000521   -0.6806477  
O   -2.3759251    0.0003495    0.0157743  
C   -1.2314654   -0.0005110   -2.0955510  
O   -2.5054386   -0.0008035   -2.6250179  
C   -0.0764515   -0.0007269   -2.8495195  
H    2.8919955   -0.0005615   -3.6205303  
H    2.8036266    0.0088181    0.5858663  
H   -3.0835640    0.0000348   -0.6418818  
H   -2.4360048   -0.0011523   -3.5845921  
C    6.4260934    0.0030639   -4.5098908  
C    7.5522586    0.0028897   -3.7593374  
C    7.0848226    0.0018032   -2.3816574  
C    5.6099763    0.0015414   -2.4884889  
N    5.2179708    0.0021968   -3.7336078  
C    4.7630504    0.0004759   -1.3275403  
C    5.3622558   -0.0006824   -0.1149868  
O    4.6953713   -0.0017512    1.0517627  
C    6.8483159   -0.0008249    0.0256761  
O    7.3251004   -0.0017841    1.1605311  
C    7.6953852    0.0003261   -1.1803076  
H    8.5739846    0.0033413   -4.0986768  
H    5.3903106   -0.0024423    1.7345598  
H    8.7674557    0.0000667   -1.0357556  
H    6.3446827    0.0037703   -5.5852255  
C    2.5311839    2.1237619    3.0120429  
C    1.9795631    1.6616747    1.8395852  
C    0.9223175    0.7739173    2.1983588  
C    0.8753926    0.7337535    3.6154372  
N    1.8668922    1.5631002    4.0777464  
C   -0.0496243   -0.0427881    4.3197917  
C   -0.9437528   -0.7922060    3.5801400  
O   -1.8685244   -1.5680278    4.2172520  
C   -0.9124520   -0.7656372    2.1655264  
O   -1.8671164   -1.5663939    1.5732860  
C    0.0000000    0.0000000    1.4700000  
H    2.3005065    1.9304404    0.8477417  
H    2.0679347    1.7444845    5.0445261  
H   -0.0904770   -0.0778569    5.3997470  
H   -2.3849669   -2.0011402    3.5251786  
H   -1.7775064   -1.4909735    0.6183591  
H    3.3468514    2.8078103    3.1724291  
