62

C    3.0504593   -5.6393924   -8.7285926  
C    2.6372478   -4.6537691   -7.8624113  
C    2.5418843   -3.4480762   -8.6185932  
C    2.9119618   -3.7622839   -9.9513505  
N    3.2165590   -5.1005067   -9.9829316  
C    2.9325774   -2.8101607  -10.9749846  
C    2.5727604   -1.5173601  -10.6473019  
O    2.5751510   -0.5482573  -11.6084726  
C    2.2008219   -1.1842244   -9.3231050  
O    1.8697183    0.1446524   -9.1563709  
C    2.1805174   -2.1229467   -8.3127016  
H    2.4311010   -4.7871332   -6.8142177  
H    3.5027634   -5.6114716  -10.7983953  
H    3.2138117   -3.0432163  -11.9927245  
H    2.2968238    0.2682693  -11.1736357  
H    1.6310311    0.2853427   -8.2350472  
H    3.2412211   -6.6838456   -8.5505858  
C    2.3338136   -2.1434182   -5.7798768  
C    1.7883284   -1.7365454   -6.9496968  
C    0.7199250   -0.8256235   -6.5685995  
C    0.7626763   -0.7985191   -5.0907557  
N    1.7067550   -1.5690024   -4.6227165  
C   -0.1496415   -0.0015615   -4.3176961  
C   -1.0628929    0.7351418   -4.9904329  
O   -1.9748537    1.5241930   -4.3973341  
C   -1.1310328    0.7292321   -6.4815676  
O   -1.9880868    1.4240531   -7.0273726  
C   -0.1842258   -0.0965645   -7.2519836  
H   -2.4795475    1.9160028   -5.1328081  
H   -0.2663200   -0.0731951   -8.3303828  
H    3.1559294   -2.8255339   -5.6321686  
C    3.3003543    0.0005276   -1.4738987  
C    2.5232814    0.0003497   -2.6090747  
C    1.1623200   -0.0001320   -2.1820103  
C    1.1711883    0.0000582   -0.7636140  
N    2.4852300   -0.0014919   -0.3662360  
C    0.0000000    0.0000000    0.0000000  
C   -1.2020384    0.0000519   -0.6806477  
O   -2.3759249    0.0003493    0.0157743  
C   -1.2314656   -0.0005115   -2.0955510  
O   -2.5054392   -0.0008039   -2.6250180  
C   -0.0764516   -0.0007274   -2.8495195  
H    2.8919955   -0.0005620   -3.6205304  
H    2.8036267    0.0088183    0.5858662  
H   -3.0835638    0.0000347   -0.6418818  
H   -2.4360047   -0.0011529   -3.5845921  
H    4.3715549    0.0004895   -1.3667136  
C    0.8175213    0.6860729    2.3021913  
C    0.0000000    0.0000000    1.4700000  
C   -0.8887526   -0.7456559    2.3478473  
C   -0.4549825   -0.3816753    3.7138435  
N    0.5448156    0.4573574    3.6934124  
C   -1.0945674   -0.9182058    4.8835240  
C   -2.1210866   -1.7789155    4.6970523  
O   -2.8083856   -2.3554314    5.6976972  
C   -2.5824069   -2.1655116    3.3310774  
O   -3.5227682   -2.9541547    3.2362962  
C   -1.9100805   -1.6015804    2.1470656  
H   -0.7567140   -0.6349833    5.8697035  
H   -3.4728268   -2.9124471    5.2533954  
H   -2.2742832   -1.9066565    1.1752040  
H    1.6189533    1.3585343    2.0405121  
