64

C    1.6934339   -2.3689416   -7.7807254  
C    1.2606618   -1.0658930   -7.6956373  
C    1.6105599   -0.4299389   -8.9235349  
C    2.2599206   -1.4028316   -9.7258673  
N    2.2952291   -2.5682399   -9.0011639  
C    2.7423812   -1.1256383  -11.0085143  
C    2.5658337    0.1569690  -11.4901022  
O    3.0174686    0.4817038  -12.7365331  
C    1.9207244    1.1415826  -10.7044905  
O    1.8219371    2.3702281  -11.3241807  
C    1.4447551    0.8689043   -9.4389370  
H    2.6868753   -3.4368185   -9.3176550  
H    3.2383041   -1.8626680  -11.6249974  
H    2.7959887    1.4120136  -12.8734076  
H    1.3743114    2.9770927  -10.7267270  
H    0.9549631    1.6435920   -8.8606292  
H    1.6217248   -3.1715605   -7.0668490  
C    0.8693957   -0.7179708   -5.2245448  
C    0.0139741    0.0003876   -4.4216236  
C   -0.8554509    0.7289888   -5.2864016  
C   -0.4799916    0.4124310   -6.6170959  
N    0.5715136   -0.4670795   -6.5435098  
C   -1.1253130    0.9522976   -7.7337394  
C   -2.1688623    1.8274387   -7.5028483  
O   -2.8338459    2.3833974   -8.5572304  
C   -2.5579902    2.1559321   -6.1824361  
O   -3.6138140    3.0416245   -6.1181834  
C   -1.9216393    1.6239279   -5.0803672  
H   -0.8438659    0.7151677   -8.7504785  
H   -3.5148435    2.9552085   -8.1796864  
H   -3.8133103    3.2103963   -5.1922676  
H   -2.2418655    1.8943540   -4.0809657  
H    1.6693716   -1.3883483   -4.9607419  
C    3.2798085    0.0005853   -1.4499648  
C    2.5571144    0.0005562   -2.5996554  
C    1.1637436    0.0001546   -2.2210360  
C    1.1336965   -0.0000201   -0.7459470  
N    2.4483513   -0.0001430   -0.3402717  
C    0.0000000    0.0000000    0.0000000  
C   -1.2757367   -0.0000188   -0.6964414  
O   -2.3524597   -0.0000640   -0.1142313  
C   -1.2676494   -0.0000875   -2.2584081  
O   -2.3355762   -0.0004102   -2.8557294  
C    0.0181562    0.0001757   -2.9516296  
H    2.9547357    0.0006072   -3.5989105  
H    4.3498550    0.0008609   -1.3200021  
H    2.7563627    0.0012824    0.6148063  
C    0.8676693    0.7151171    2.2619005  
C    0.5875920    0.4624972    3.5848544  
C   -0.5048400   -0.4542819    3.6114698  
C   -0.8517165   -0.7276451    2.2635546  
N    0.0000000    0.0000000    1.4700000  
C   -1.8902865   -1.5946756    1.9108239  
C   -2.5912627   -2.1969500    2.9375057  
O   -3.6148162   -3.0527051    2.6493466  
C   -2.2603868   -1.9365747    4.2886322  
O   -3.0513550   -2.6123276    5.1947621  
C   -1.2361111   -1.0811317    4.6373480  
H    1.1060808    0.8876438    4.4271209  
H   -2.1597133   -1.8070987    0.8854031  
H   -3.9636755   -3.3565188    3.4974381  
H   -2.7621927   -2.3810384    6.0827341  
H   -1.0058879   -0.9010589    5.6809233  
H    1.6167816    1.3499334    1.8205408  
