62

C    8.0976622    0.7174212   -4.2877606  
C    8.7228721    0.4693581   -5.4877798  
C    9.7897032   -0.4392327   -5.2214438  
C    9.7660048   -0.7125286   -3.8297995  
N    8.7277208    0.0072894   -3.2927289  
C   10.6792225   -1.5724808   -3.2122991  
C   11.6335606   -2.1676154   -4.0143153  
O   12.5494685   -3.0162831   -3.4630539  
C   11.6736349   -1.9071823   -5.4047778  
O   12.6830533   -2.5753505   -6.0665692  
C   10.7732085   -1.0587188   -6.0145879  
H    8.4449690    0.8922149   -6.4380191  
H   10.6665688   -1.7848110   -2.1521308  
H   13.1145075   -3.3159143   -4.1870824  
H   12.6398294   -2.3445574   -6.9995597  
H   10.8287362   -0.8784129   -7.0817737  
H    7.2530390    1.3458323   -4.0626619  
C    4.7390840    0.0009613   -1.2727298  
C    5.7457108    0.0027336   -2.2103686  
C    6.9802492    0.0028847   -1.4958645  
C    6.6612413    0.0008588   -0.1137803  
N    5.2920917    0.0016812   -0.0135513  
C    7.6369656    0.0001205    0.8875936  
C    8.9588063    0.0011446    0.4864540  
O    9.9518660    0.0001378    1.4228541  
C    9.2971112    0.0035421   -0.8877229  
O   10.6560640    0.0047270   -1.1256049  
C    8.3350584    0.0045450   -1.8761454  
H    5.6072444    0.0048931   -3.2779900  
H    4.7730888   -0.0099119    0.8457991  
H    7.4003711   -0.0012777    1.9426874  
H   10.7862574    0.0014178    0.9359716  
H   10.7982731    0.0063054   -2.0771183  
C    3.2798077    0.0005856   -1.4499661  
C    2.5571132    0.0005565   -2.5996564  
C    1.1637425    0.0001547   -2.2210366  
C    1.1336959   -0.0000200   -0.7459475  
N    2.4483509   -0.0001429   -0.3402730  
C    0.0000000    0.0000000    0.0000000  
C   -1.2757370   -0.0000187   -0.6964411  
O   -2.3524597   -0.0000640   -0.1142306  
C   -1.2676502   -0.0000874   -2.2584078  
O   -2.3355774   -0.0004102   -2.8557287  
C    0.0181551    0.0001758   -2.9516297  
H    2.9547342    0.0006074   -3.5989118  
H    0.0150776    0.0003317   -4.0331632  
H    2.7563626    0.0012823    0.6148051  
C    0.0000000    0.0000000    1.4700000  
C    1.0541688    0.0001722    2.3260392  
C    0.5103138    0.0000454    3.6635956  
C   -0.9576371   -0.0002459    3.5155732  
N   -1.2018458    0.0001392    2.1615969  
C   -1.8348311   -0.0008317    4.5510609  
C   -1.2972847   -0.0009736    5.9014604  
O   -2.0050672   -0.0014265    6.9001319  
C    0.2542623   -0.0004184    6.0817573  
O    0.7184670   -0.0002256    7.2139121  
C    1.0974552   -0.0000873    4.8889129  
H    2.0940752    0.0005483    2.0517982  
H   -2.9081052   -0.0011668    4.4207061  
H    2.1707277    0.0000911    5.0223670  
H   -2.1128194   -0.0014912    1.7406791  
