64

C    6.5186803   -3.2973172   -4.9498955  
C    7.6113655   -3.2641576   -5.7850043  
C    7.7383280   -1.9221832   -6.2514630  
C    6.6862867   -1.1753812   -5.6620383  
N    5.9635203   -2.0410721   -4.8792196  
C    6.5027385    0.1901136   -5.8997851  
C    7.3977008    0.8131300   -6.7477649  
O    7.2649466    2.1451918   -7.0142245  
C    8.4536335    0.0849488   -7.3457419  
O    9.2599805    0.8471965   -8.1655747  
C    8.6351512   -1.2622253   -7.1118628  
H    8.2389937   -4.1041400   -6.0289427  
H    5.7028438    0.7649366   -5.4537474  
H    7.9816933    2.3752860   -7.6196947  
H    9.9470148    0.2801186   -8.5289063  
H    9.4530620   -1.7935530   -7.5842928  
H    6.0905524   -4.1179897   -4.4002026  
C    4.5036373   -2.1326439   -2.8248684  
C    4.7893585   -1.6787026   -4.0724159  
C    3.7238699   -0.7792921   -4.4474232  
C    2.7872825   -0.7461954   -3.3079060  
N    3.3172247   -1.5879875   -2.3574129  
C    1.6478437   -0.0100096   -3.2702997  
C    1.3220730    0.8039029   -4.4295905  
O    0.3184858    1.5018527   -4.4926723  
C    2.2995670    0.7839241   -5.6477499  
O    2.0356283    1.4648846   -6.6295287  
C    3.4968677   -0.0493772   -5.5707357  
H    4.1686398   -0.0574745   -6.4183091  
H    5.0598611   -2.8194093   -2.2077322  
H    2.9065386   -1.7759907   -1.4612885  
C    1.1188642    0.0008224   -0.8003808  
C    0.0000000    0.0000000    0.0000000  
C   -1.1323861    0.0008899   -0.8673529  
C   -0.6382661    0.0019681   -2.1969282  
N    0.7324017    0.0038483   -2.1202240  
C   -1.4770912    0.0027320   -3.3154810  
C   -2.8395474    0.0020946   -3.0876860  
O   -3.7039199    0.0024426   -4.1440353  
C   -3.3517867    0.0013927   -1.7684331  
O   -4.7300496    0.0012363   -1.7073125  
C   -2.5248543    0.0009121   -0.6644818  
H   -1.1067568    0.0036992   -4.3313814  
H   -4.5940031    0.0021828   -3.7685133  
H   -4.9934602    0.0007260   -0.7819919  
H   -2.9462579    0.0005600    0.3339656  
H    2.1619896    0.0009357   -0.5342065  
C    0.8576279    0.7185626    2.2703808  
C    0.0000000    0.0000000    1.4700000  
C   -0.8668858   -0.7285659    2.3373528  
C   -0.4876752   -0.4117774    3.6669281  
N    0.5635254    0.4678311    3.5902241  
C   -1.1297612   -0.9515493    4.7854808  
C   -2.1738724   -1.8268314    4.5576857  
O   -2.8357962   -2.3827064    5.6140350  
C   -2.5667212   -2.1555554    3.2384331  
O   -3.6226318   -3.0413663    3.1773122  
C   -1.9335634   -1.6236449    2.1344818  
H    1.0363952    0.8769718    4.3757045  
H   -0.8454472   -0.7142436    5.8013813  
H   -3.5178062   -2.9546422    5.2385129  
H   -3.8247440   -3.2102924    2.2519915  
H   -2.2566033   -1.8942483    1.1360343  
H    1.6567807    1.3889844    2.0042067  
