62

C    0.6274379    0.0907194   -8.7776038  
C    1.6904371   -0.5566179   -9.3636533  
C    1.7198824   -0.1544175  -10.7318516  
C    0.6416909    0.7469766  -10.9239911  
N   -0.0021999    0.8720816   -9.7180176  
C    0.3667605    1.3452863  -12.1573712  
C    1.1955362    1.0280970  -13.2160020  
O    0.9724915    1.5842049  -14.4423820  
C    2.2761984    0.1306173  -13.0441996  
O    3.0087778   -0.0837630  -14.1934226  
C    2.5478515   -0.4602118  -11.8277904  
H    2.3613597   -1.2360816   -8.8664761  
H   -0.8010580    1.4548770   -9.5443593  
H   -0.4535156    2.0329925  -12.3103755  
H    1.6551153    1.2337849  -15.0293194  
H    3.7184602   -0.7010017  -13.9910097  
H    3.3826121   -1.1438916  -11.7266220  
C    2.0510680   -2.1230737   -5.2235531  
C    1.1049648   -1.6611195   -4.3381412  
C    0.2551153   -0.7735538   -5.0624222  
C    0.7354332   -0.7333646   -6.3964410  
N    1.8277567   -1.5625121   -6.4593732  
C    0.1362323    0.0430191   -7.3929224  
C   -0.9681445    0.7922492   -7.0362952  
O   -1.5919782    1.5679116   -7.9702089  
C   -1.4620705    0.7656521   -5.7103442  
O   -2.5682021    1.5662134   -5.5130671  
C   -0.8712826    0.0001710   -4.7267111  
H    1.0365101   -1.9298485   -3.2979049  
H    2.3720273   -1.7438347   -7.2833107  
H   -2.3277818    2.0009090   -7.5181344  
H   -2.8379856    1.4907871   -4.5926694  
H    2.8683641   -2.8069637   -5.0709719  
C    1.0965514    0.0001359   -0.8010305  
C    0.0000000    0.0000000    0.0000000  
C   -1.1546563    0.0001470   -0.8669513  
C   -0.6372014    0.0003519   -2.2486282  
N    0.7342871    0.0007337   -2.1395014  
C   -1.4147739    0.0001352   -3.3608717  
C   -2.8576049   -0.0001048   -3.1854462  
O   -3.6427779   -0.0002494   -4.1244907  
C   -3.4275840   -0.0000725   -1.7311666  
O   -4.6406831    0.0000333   -1.5710060  
C   -2.4891867   -0.0001091   -0.6116744  
H   -2.8919122   -0.0002918    0.3920866  
H    2.1388272    0.0000663   -0.5261648  
H    1.3735872   -0.0006099   -2.9130262  
C    0.0000000    0.0000000    1.4700000  
C    1.0541688    0.0001722    2.3260392  
C    0.5103138    0.0000454    3.6635956  
C   -0.9576371   -0.0002459    3.5155732  
N   -1.2018458    0.0001392    2.1615969  
C   -1.8348311   -0.0008317    4.5510609  
C   -1.2972847   -0.0009736    5.9014604  
O   -2.0050672   -0.0014265    6.9001319  
C    0.2542623   -0.0004184    6.0817573  
O    0.7184670   -0.0002256    7.2139121  
C    1.0974552   -0.0000873    4.8889129  
H    2.0940752    0.0005483    2.0517982  
H   -2.9081052   -0.0011668    4.4207061  
H    2.1707277    0.0000911    5.0223670  
H   -2.1128194   -0.0014912    1.7406791  
