64

C    2.2350878    0.0040169   -8.0410747  
C    3.2896690    0.0032135   -7.1577146  
C    4.4848913    0.0031471   -7.9362030  
C    4.0935846    0.0042235   -9.2995820  
N    2.7210581    0.0027788   -9.3276123  
C    5.0152538    0.0047702  -10.3509224  
C    6.3563751    0.0045273  -10.0199071  
O    7.2987745    0.0053880  -11.0072759  
C    6.7665348    0.0030823   -8.6654394  
O    8.1361259    0.0025973   -8.4994089  
C    5.8578377    0.0022691   -7.6277520  
H    3.2075843    0.0016292   -6.0842838  
H    2.1575414    0.0136498  -10.1584633  
H    4.7234566    0.0054465  -11.3921018  
H    8.1576352    0.0047390  -10.5649810  
H    8.3282174    0.0016405   -7.5566981  
H    6.2018860    0.0009831   -6.6000816  
C   -0.1387078    0.0017019   -4.3179684  
C    0.8715321    0.0021968   -5.2254318  
C    0.2617562    0.0029744   -6.5342510  
C   -1.1970041    0.0029206   -6.3133249  
N   -1.3734971    0.0017348   -4.9488690  
C   -2.1246662    0.0039287   -7.3038532  
C   -1.6550217    0.0049219   -8.6793415  
O   -2.4116490    0.0058068   -9.6415342  
C   -0.1143756    0.0047448   -8.9366641  
O    0.2928846    0.0052681  -10.0905276  
C    0.7871621    0.0038973   -7.7872817  
H    1.9238030    0.0018531   -5.0033071  
H   -3.1901194    0.0039992   -7.1202226  
H   -2.2623840    0.0029669   -4.4831162  
C    3.3041272    0.0001178   -1.5420428  
C    2.5845372   -0.0004779   -0.3695851  
C    1.2040007   -0.0000007   -0.7283589  
C    1.1422375    0.0006038   -2.1454371  
N    2.4348641    0.0026111   -2.6077464  
C   -0.0655179    0.0008799   -2.8497918  
C   -1.2321766    0.0002325   -2.1101402  
O   -2.4392816    0.0001148   -2.7472523  
C   -1.1911209   -0.0000007   -0.6955266  
O   -2.4371527   -0.0002320   -0.1032863  
C    0.0000000    0.0000000    0.0000000  
H    3.0031533   -0.0000660    0.6222584  
H    2.7054632   -0.0071097   -3.5745261  
H   -3.1132986   -0.0000648   -2.0551788  
H   -2.3200284   -0.0004071    0.8516409  
H    4.3686626    0.0004072   -1.7024289  
C    2.5311839    2.1237619    3.0120429  
C    1.9795631    1.6616747    1.8395852  
C    0.9223175    0.7739173    2.1983588  
C    0.8753926    0.7337535    3.6154372  
N    1.8668922    1.5631002    4.0777464  
C   -0.0496243   -0.0427881    4.3197917  
C   -0.9437528   -0.7922060    3.5801400  
O   -1.8685244   -1.5680278    4.2172520  
C   -0.9124520   -0.7656372    2.1655264  
O   -1.8671164   -1.5663939    1.5732860  
C    0.0000000    0.0000000    1.4700000  
H    2.3005065    1.9304404    0.8477417  
H    2.0679347    1.7444845    5.0445261  
H   -0.0904770   -0.0778569    5.3997470  
H   -2.3849669   -2.0011402    3.5251786  
H   -1.7775064   -1.4909735    0.6183591  
H    3.3468514    2.8078103    3.1724291  
