62

C   -4.5956502    0.7925444   -7.3897252  
C   -3.7154149    0.0821295   -8.1726455  
C   -4.4940693   -0.6366813   -9.1274277  
C   -5.8543080   -0.3226112   -8.8763536  
N   -5.8805177    0.5460520   -7.8136428  
C   -6.9048952   -0.8547265   -9.6299495  
C   -6.5763272   -1.7194123  -10.6558820  
O   -7.5630730   -2.2674819  -11.4233241  
C   -5.2250318   -2.0452676  -10.9216589  
O   -5.0611938   -2.9202089  -11.9756872  
C   -4.1881047   -1.5209080  -10.1784527  
H   -6.7083896    0.9510114   -7.4153758  
H   -7.9436949   -0.6194413   -9.4435650  
H   -7.1228068   -2.8327016  -12.0713640  
H   -4.1205618   -3.0878826  -12.0883875  
H   -3.1628976   -1.7890740  -10.4054218  
H   -4.4087046    1.4544566   -6.5615449  
C   -1.2456296    0.0472577   -4.5828766  
C    0.0058402    0.0519621   -5.0980280  
C   -0.1823955    0.0659876   -6.5405499  
C   -1.6495603    0.0680021   -6.7249608  
N   -2.2780921    0.0571385   -5.5809246  
C   -2.2524144    0.0807974   -8.0293722  
C   -1.4270896    0.0915001   -9.1008474  
O   -1.8522597    0.1040210  -10.3756474  
C    0.0577049    0.0901661   -8.9474072  
O    0.7477507    0.1002117   -9.9666995  
C    0.6518697    0.0768899   -7.5988094  
H    0.9411977    0.0466697   -4.5649672  
H   -1.0369312    0.1094343  -10.9089041  
H    1.7314733    0.0764621   -7.5303513  
C    1.1243418    0.0099155   -0.7919003  
C    0.7474093    0.0234033   -2.1148542  
C   -0.6787365    0.0234953   -2.1414700  
C   -1.1201738    0.0099357   -0.7935546  
N    0.0000000    0.0000000    0.0000000  
C   -2.4730811    0.0065398   -0.4408241  
C   -3.3971945    0.0173300   -1.4675058  
O   -4.7313507    0.0149490   -1.1793472  
C   -2.9763626    0.0305537   -2.8186325  
O   -4.0166449    0.0397860   -3.7247623  
C   -1.6418538    0.0336381   -3.1673481  
H    1.4178738    0.0310004   -2.9571209  
H   -2.8160170   -0.0039189    0.5845965  
H   -5.1938800    0.0234412   -2.0274384  
H   -3.6464643    0.0484782   -4.6127344  
H    2.1062469    0.0051381   -0.3505407  
C    2.5128556    2.1077716    2.9199648  
C    1.9592212    1.6432552    4.0696553  
C    0.8915788    0.7479214    3.6910360  
C    0.8684491    0.7287414    2.2159470  
N    1.8754542    1.5738793    1.8102719  
C    0.0000000    0.0000000    1.4700000  
C   -0.9772830   -0.8200135    2.1664417  
O   -1.8021297   -1.5120829    1.5842315  
C   -0.9711318   -0.8147624    3.7284083  
O   -1.7894187   -1.5009653    4.3257297  
C    0.0140216    0.0115358    4.4216297  
H    2.2638494    1.8988021    5.0689105  
H    0.0117648    0.0094386    5.5031631  
H    3.3327358    2.7953732    2.7900019  
H    2.1123206    1.7707734    0.8551938  
