62

C    6.9363823    0.5639632   -5.3576554  
C    7.5695048   -0.2759659   -4.4710087  
C    8.9585244   -0.2523999   -4.7945346  
C    9.1143731    0.6271413   -5.8963717  
N    7.8669104    1.1039714   -6.2143104  
C   10.3557078    0.8928351   -6.4822757  
C   11.4598681    0.2593278   -5.9459220  
O   12.6961108    0.4832333   -6.4793867  
C   11.3246104   -0.6219681   -4.8469043  
O   12.5170666   -1.1748800   -4.4277624  
C   10.1002785   -0.8847593   -4.2685643  
H    7.0891308   -0.8375203   -3.6881354  
H    7.6653567    1.7573424   -6.9494728  
H   10.4811526    1.5620376   -7.3222968  
H   13.3162730   -0.0490056   -5.9642305  
H   12.3373565   -1.7567535   -3.6829594  
H   10.0277333   -1.5646381   -3.4277431  
C    3.4106845   -0.7032175   -3.0670122  
C    2.4521483    0.0014840   -3.7217481  
C    3.1158562    0.7444931   -4.7668627  
C    4.5499140    0.4124939   -4.6666318  
N    4.6621248   -0.4692177   -3.6164494  
C    5.5136831    0.9128419   -5.4805764  
C    5.1117789    1.8404160   -6.5249012  
O    5.9049350    2.3456317   -7.3084581  
C    3.5983556    2.2063417   -6.6492179  
O    3.2480953    2.9864548   -7.5244332  
C    2.6531317    1.6023762   -5.7134676  
H    1.6070344    1.8607780   -5.8063812  
H    3.3081788   -1.3736416   -2.2292093  
H    5.5205794   -0.8810217   -3.2994003  
C    0.0000000    0.0000000    0.0000000  
C    1.0662923   -0.0000101   -0.8334270  
C    0.4961873    0.0000065   -2.1718887  
C   -0.9663854   -0.0000848   -1.9540250  
N   -1.2632773   -0.0000083   -0.6828660  
C   -1.8985359   -0.0000514   -3.0477261  
C   -1.3925770    0.0004566   -4.3020547  
O   -2.1456378    0.0005414   -5.4151314  
C    0.0786240    0.0009326   -4.5545000  
O    0.4683767    0.0012591   -5.7221100  
C    1.0143171    0.0008444   -3.4159031  
H    2.1107200    0.0000633   -0.5721865  
H   -2.9622181   -0.0003268   -2.8593381  
H   -1.5042265    0.0009697   -6.1484419  
C    1.1188642   -0.0008217    2.2703808  
C    0.0000000    0.0000000    1.4700000  
C   -1.1323862   -0.0008904    2.3373528  
C   -0.6382662   -0.0019682    3.6669281  
N    0.7324016   -0.0038477    3.5902241  
C   -1.4770914   -0.0027325    4.7854808  
C   -2.8395474   -0.0020958    4.5576857  
O   -3.7039201   -0.0024443    5.6140350  
C   -3.3517868   -0.0013946    3.2384331  
O   -4.7300496   -0.0012389    3.1773122  
C   -2.5248543   -0.0009135    2.1344818  
H    1.3576314    0.0056174    4.3757045  
H   -1.1067570   -0.0036993    5.8013813  
H   -4.5940033   -0.0021850    5.2385129  
H   -4.9934601   -0.0007286    2.2519915  
H   -2.9462578   -0.0005617    1.1360343  
H    2.1619896   -0.0009344    2.0042067  
