62

C    3.3041271    0.0001182   -1.5420442  
C    2.5845371   -0.0004779   -0.3695863  
C    1.2040003   -0.0000007   -0.7283596  
C    1.1422369    0.0006038   -2.1454378  
N    2.4348636    0.0026114   -2.6077473  
C   -0.0655186    0.0008799   -2.8497919  
C   -1.2321772    0.0002325   -2.1101399  
O   -2.4392823    0.0001149   -2.7472518  
C   -1.1911211   -0.0000006   -0.6955264  
O   -2.4371523   -0.0002321   -0.1032858  
C    0.0000000    0.0000000    0.0000000  
H    3.0031536   -0.0000657    0.6222570  
H    2.7054624   -0.0071095   -3.5745269  
H   -3.1132991   -0.0000650   -2.0551783  
H   -2.3200275   -0.0004074    0.8516409  
H    4.3686617    0.0004077   -1.7024309  
C    2.2991546   -2.1048093   -5.8924441  
C    1.6888945   -1.6397490   -7.0128799  
C    0.6412926   -0.7448179   -6.5810650  
C    0.6916325   -0.7264669   -5.1066432  
N    1.7177143   -1.5716515   -4.7520888  
C   -0.1387090    0.0017019   -4.3179688  
C   -1.1495790    0.8219302   -4.9644229  
O   -1.9445189    1.5135262   -4.3414740  
C   -1.2212040    0.8175535   -6.5247614  
O   -2.0683196    1.5039441   -7.0802108  
C   -0.2716628   -0.0081808   -7.2666419  
H    1.9434313   -1.8946825   -8.0262075  
H   -0.3277661   -0.0054791   -8.3467199  
H    2.0018693   -1.7690373   -3.8101010  
C    4.0859040   -3.6412628   -6.8332948  
C    5.0780182   -4.4564610   -6.3914391  
C    5.0674306   -4.3888868   -4.9491644  
C    3.9800072   -3.4608653   -4.5843661  
N    3.4248458   -3.0424254   -5.7716290  
C    3.6466009   -3.1296005   -3.3112562  
C    4.4098375   -3.7267663   -2.2280212  
O    4.1868055   -3.4918330   -1.0476127  
C    5.5660637   -4.7121771   -2.5912168  
O    6.2157897   -5.2208806   -1.6877029  
C    5.8307551   -4.9915996   -4.0003702  
H    5.7416564   -5.0385404   -7.0057539  
H    2.8452314   -2.4467926   -3.0653092  
H    6.6328963   -5.6751418   -4.2434023  
H    3.7822102   -3.4274227   -7.8451906  
C    2.5311839    2.1237619    3.0120429  
C    1.9795631    1.6616747    1.8395852  
C    0.9223175    0.7739173    2.1983588  
C    0.8753926    0.7337535    3.6154372  
N    1.8668922    1.5631002    4.0777464  
C   -0.0496243   -0.0427881    4.3197917  
C   -0.9437528   -0.7922060    3.5801400  
O   -1.8685244   -1.5680278    4.2172520  
C   -0.9124520   -0.7656372    2.1655264  
O   -1.8671164   -1.5663939    1.5732860  
C    0.0000000    0.0000000    1.4700000  
H    2.3005065    1.9304404    0.8477417  
H    2.0679347    1.7444845    5.0445261  
H   -0.0904770   -0.0778569    5.3997470  
H   -2.3849669   -2.0011402    3.5251786  
H   -1.7775064   -1.4909735    0.6183591  
H    3.3468514    2.8078103    3.1724291  
