62

C    4.0850725   -3.6397358   -6.8203375  
C    3.4248461   -3.0424250   -5.7716299  
C    4.0400537   -3.5091222   -4.5723327  
C    5.0786471   -4.3960520   -4.9552240  
N    5.0773106   -4.4541317   -6.3268082  
C    5.8988506   -5.0454854   -4.0277052  
C    5.6665620   -4.7947700   -2.6892876  
O    6.4383058   -5.4022415   -1.7414463  
C    4.6348575   -3.9133178   -2.2874869  
O    4.5292199   -3.7680646   -0.9196110  
C    3.8251451   -3.2724989   -3.2019502  
H    5.7116206   -4.9960379   -6.8853514  
H    6.6920177   -5.7227241   -4.3130760  
H    6.1128485   -5.0939717   -0.8856949  
H    3.8096957   -3.1571854   -0.7332895  
H    3.0427652   -2.6029306   -2.8642555  
H    3.9257729   -3.5503852   -7.8812800  
C    2.2991554   -2.1048091   -5.8924444  
C    1.6888952   -1.6397484   -7.0128804  
C    0.6412935   -0.7448174   -6.5810651  
C    0.6916333   -0.7264666   -5.1066432  
N    1.7177150   -1.5716515   -4.7520893  
C   -0.1387079    0.0017019   -4.3179684  
C   -1.1495778    0.8219302   -4.9644225  
O   -1.9445178    1.5135264   -4.3414732  
C   -1.2212029    0.8175541   -6.5247612  
O   -2.0683186    1.5039449   -7.0802097  
C   -0.2716619   -0.0081802   -7.2666415  
H    1.9434318   -1.8946819   -8.0262082  
H   -0.3277653   -0.0054782   -8.3467193  
H    2.0018702   -1.7690376   -3.8101009  
C    3.3041273    0.0001178   -1.5420428  
C    2.5845373   -0.0004780   -0.3695851  
C    1.2040007   -0.0000007   -0.7283589  
C    1.1422374    0.0006038   -2.1454372  
N    2.4348641    0.0026111   -2.6077464  
C   -0.0655179    0.0008799   -2.8497918  
C   -1.2321766    0.0002325   -2.1101402  
O   -2.4392814    0.0001148   -2.7472522  
C   -1.1911209   -0.0000007   -0.6955266  
O   -2.4371528   -0.0002320   -0.1032862  
C    0.0000000    0.0000000    0.0000000  
H    3.0031533   -0.0000660    0.6222584  
H    2.7054631   -0.0071097   -3.5745261  
H   -3.1132988   -0.0000648   -2.0551787  
H   -2.3200282   -0.0004072    0.8516409  
H    4.3686625    0.0004073   -1.7024290  
C    2.4951002    2.0940188    2.9809380  
C    1.9440701    1.6314916    1.8291961  
C    0.8759964    0.7350050    2.2038498  
C    0.8497377    0.7130254    3.6788474  
N    1.8560616    1.5571714    4.0882609  
C   -0.0205033   -0.0168748    4.4215661  
C   -0.9962600   -0.8356168    3.7214979  
O   -1.8224391   -1.5286685    4.3006425  
C   -0.9864710   -0.8277881    2.1595606  
O   -1.8030528   -1.5133726    1.5592035  
C    0.0000000    0.0000000    1.4700000  
H    2.2509283    1.8888011    0.8310761  
H   -0.0229599   -0.0187323    5.5027230  
H    3.3143982    2.7817323    3.1139444  
H    2.0889452    1.7545833    5.0442112  
