60

C   -9.1780709    3.2768368   -1.1395084  
C   -8.0220206    2.5949410   -1.4412252  
C   -8.3824360    1.2279564   -1.6311062  
C   -9.7836031    1.1352826   -1.4309388  
N  -10.2349506    2.3968917   -1.1321986  
C  -10.4849844   -0.0693475   -1.5391944  
C   -9.7587096   -1.2009863   -1.8555744  
O  -10.3936672   -2.4033995   -1.9740860  
C   -8.3600100   -1.1288151   -2.0586688  
O   -7.7797436   -2.3419583   -2.3667567  
C   -7.6673854    0.0591955   -1.9517685  
H   -7.0396158    3.0291507   -1.5142664  
H  -11.1910861    2.6432655   -0.9503066  
H  -11.5528203   -0.1466601   -1.3877012  
H   -9.7122969   -3.0512823   -2.1960039  
H   -6.8351875   -2.2052311   -2.4880929  
H   -9.3321343    4.3210068   -0.9275373  
C   -4.2186865    2.1401318   -0.0437260  
C   -5.4804250    1.7323141   -0.3144295  
C   -5.3466897    0.8217462   -1.4411418  
C   -3.8965666    0.7958597   -1.7293371  
N   -3.2302259    1.5666944   -0.9133753  
C   -3.3460097   -0.0004262   -2.7913647  
C   -4.2050302   -0.7376508   -3.5315799  
O   -3.8298203   -1.5261790   -4.5530896  
C   -5.6737596   -0.7329691   -3.2651708  
O   -6.3965398   -1.4282088   -3.9789289  
C   -6.2140638    0.0921566   -2.1701080  
H   -6.3895961    2.0144736    0.1884319  
H   -4.6590779   -1.9185769   -4.8809753  
H   -3.8917480    2.8223391    0.7248296  
C    0.0000000    0.0000000    0.0000000  
C    1.0662919   -0.0000103   -0.8334272  
C    0.4961868    0.0000066   -2.1718889  
C   -0.9663860   -0.0000849   -1.9540248  
N   -1.2632775   -0.0000084   -0.6828659  
C   -1.8985364   -0.0000515   -3.0477258  
C   -1.3925778    0.0004567   -4.3020543  
O   -2.1456385    0.0005412   -5.4151314  
C    0.0786229    0.0009326   -4.5544999  
O    0.4683756    0.0012594   -5.7221104  
C    1.0143162    0.0008443   -3.4159034  
H    2.1107195    0.0000631   -0.5721869  
H   -1.5042277    0.0009692   -6.1484420  
H    2.0724151    0.0013151   -3.6409746  
C    3.2573670    0.0002920    2.9809380  
C    2.5379467    0.0001709    1.8291961  
C    1.1435042   -0.0000331    2.2038498  
C    1.1092607    0.0000083    3.6788474  
N    2.4227561   -0.0001909    4.0882609  
C   -0.0265533    0.0002524    4.4215661  
C   -1.3003036    0.0002640    3.7214979  
O   -2.3786784    0.0004133    4.3006425  
C   -1.2877726   -0.0000311    2.1595606  
O   -2.3539958   -0.0003306    1.5592035  
C    0.0000000    0.0000000    1.4700000  
H    2.9384090    0.0000368    0.8310761  
H   -0.0296291    0.0004086    5.5027230  
H    4.3270393    0.0004765    3.1139444  
H    2.7280493    0.0013407    5.0442112  
