60

C    7.3999214   -0.7143073   -5.5358940  
C    6.7550130    0.0027404   -6.5169157  
C    7.7555974    0.7308242   -7.2263689  
C    9.0025084    0.4153160   -6.6283777  
N    8.7503322   -0.4630975   -5.6039681  
C   10.2129513    0.9550287   -7.0737180  
C   10.1637809    1.8289337   -8.1423848  
O   11.3162398    2.3846871   -8.6177706  
C    8.9293362    2.1563672   -8.7520981  
O    9.0464442    3.0408916   -9.8043551  
C    7.7347866    1.6245148   -8.3131112  
H    9.4451854   -0.8711875   -5.0051171  
H   11.1666022    0.7186947   -6.6221664  
H   11.0606301    2.9555811   -9.3539823  
H    8.1682736    3.2089996  -10.1595451  
H    6.8048441    1.8941115   -8.7999403  
H    7.0033153   -1.3839506   -4.7920931  
C    3.1006060    0.0006268   -3.9654947  
C    4.3994796    0.0008532   -4.3456353  
C    4.3646297    0.0008278   -5.8000368  
C    2.9251424    0.0004555   -6.1383559  
N    2.1793122    0.0004169   -5.0670359  
C    2.4634074    0.0003681   -7.4991967  
C    3.3972679    0.0010295   -8.4775822  
O    3.1090964    0.0010277   -9.7902125  
C    4.8575580    0.0017896   -8.1682052  
O    5.6513847    0.0022435   -9.1089813  
C    5.3059855    0.0018205   -6.7643397  
H    5.2733153    0.0011075   -3.7167578  
H    1.4054439   -0.0001129   -7.7174243  
H    3.9761797    0.0016090  -10.2344188  
C    3.2798085    0.0005859   -1.4499648  
C    2.5571146    0.0005569   -2.5996553  
C    1.1637437    0.0001551   -2.2210359  
C    1.1336966   -0.0000198   -0.7459471  
N    2.4483513   -0.0001427   -0.3402720  
C    0.0000000    0.0000000    0.0000000  
C   -1.2757366   -0.0000185   -0.6964416  
O   -2.3524595   -0.0000640   -0.1142313  
C   -1.2676493   -0.0000870   -2.2584084  
O   -2.3355759   -0.0004098   -2.8557296  
C    0.0181563    0.0001763   -2.9516295  
H    0.0150795    0.0003323   -4.0331630  
H    4.3498549    0.0008614   -1.3200020  
H    2.7563627    0.0012824    0.6148062  
C    0.8400945    0.7047457    2.2710304  
C    0.0000000    0.0000000    1.4700000  
C   -0.8844236   -0.7423113    2.3369512  
C   -0.4878984   -0.4098547    3.7186280  
N    0.5629682    0.4714286    3.6095011  
C   -1.0836927   -0.9095027    4.8308716  
C   -2.1891196   -1.8367527    4.6554461  
O   -2.7906899   -2.3413415    5.5944904  
C   -2.6257283   -2.2031529    3.2011665  
O   -3.5549479   -2.9829990    3.0410059  
C   -1.9068976   -1.5999348    2.0816745  
H   -0.7774656   -0.6525820    5.8354244  
H   -2.2155208   -1.8586617    1.0779135  
H    1.6384792    1.3747609    1.9961646  
H    1.0518368    0.8833920    4.3830260  
