62

C    6.1136883   -0.7190397    3.1847905  
C    7.1564525   -0.0000676    2.6479581  
C    7.7552269    0.7276455    3.7187066  
C    7.0291946    0.4099389    4.8950855  
N    6.0383165   -0.4693723    4.5350998  
C    7.3433975    0.9487197    6.1463971  
C    8.4101438    1.8239360    6.2113981  
O    8.7603314    2.3788625    7.4082441  
C    9.1464993    2.1535675    5.0486677  
O   10.1793386    3.0391840    5.2772925  
C    8.8369234    1.6226348    3.8138397  
H    5.3699019   -0.8789987    5.1623230  
H    6.7938803    0.7107109    7.0467218  
H    9.5186978    2.9509265    7.2324964  
H   10.6251427    3.2087630    4.4417654  
H    9.4189718    1.8939193    2.9408545  
H    5.4168425   -1.3890783    2.7110680  
C    4.7795901    0.0008674   -1.0815733  
C    5.8357360    0.0020821   -1.9630614  
C    7.0295755    0.0025551   -1.1824546  
C    6.6358520    0.0012913    0.1802289  
N    5.2632773    0.0022383    0.2058247  
C    7.5556548    0.0010429    1.2332016  
C    8.8973612    0.0017825    0.9045662  
O    9.8380075    0.0012297    1.8936044  
C    9.3099220    0.0034215   -0.4491724  
O   10.6798046    0.0044076   -0.6127731  
C    8.4030669    0.0039404   -1.4884692  
H    5.7555553    0.0036728   -3.0366358  
H    4.6982915   -0.0088645    1.0356738  
H   10.6976506    0.0022045    1.4528345  
H   10.8735673    0.0054653   -1.5551419  
H    8.7489369    0.0053853   -2.5155283  
C    3.3321168    0.0004716   -1.3379341  
C    2.6974177    0.0000118   -2.5332316  
C    1.2800432   -0.0002116   -2.2052842  
C    1.2395033    0.0000644   -0.7271298  
N    2.4394059    0.0005460   -0.2131041  
C    0.0000000    0.0000000    0.0000000  
C   -1.1468704    0.0000635   -0.7169542  
O   -2.3742206    0.0000074   -0.1695488  
C   -1.1388774    0.0001608   -2.2096352  
O   -2.2206238    0.0000906   -2.7970409  
C    0.1454514    0.0001818   -2.9324241  
H    3.1367978   -0.0000649   -3.5160956  
H   -2.9844350    0.0001027   -0.9290164  
H    0.1083567    0.0003684   -4.0135594  
C    0.8175213    0.6860729    2.3021913  
C    0.0000000    0.0000000    1.4700000  
C   -0.8887526   -0.7456559    2.3478473  
C   -0.4549825   -0.3816753    3.7138435  
N    0.5448156    0.4573574    3.6934124  
C   -1.0945674   -0.9182058    4.8835240  
C   -2.1210866   -1.7789155    4.6970523  
O   -2.8083856   -2.3554314    5.6976972  
C   -2.5824069   -2.1655116    3.3310774  
O   -3.5227682   -2.9541547    3.2362962  
C   -1.9100805   -1.6015804    2.1470656  
H   -0.7567140   -0.6349833    5.8697035  
H   -3.4728268   -2.9124471    5.2533954  
H   -2.2742832   -1.9066565    1.1752040  
H    1.6189533    1.3585343    2.0405121  
