64

C   -0.4278899    0.6814518   -7.0646782  
C   -1.6834144    0.4309595   -7.5680459  
C   -1.5236702   -0.4884038   -8.6468656  
C   -0.1368322   -0.7654627   -8.7557064  
N    0.4998945   -0.0374411   -7.7814466  
C    0.3874251   -1.6357514   -9.7161956  
C   -0.5046030   -2.2375440  -10.5824000  
O   -0.0465107   -3.0963837  -11.5392483  
C   -1.8918793   -1.9735044  -10.4898476  
O   -2.6498342   -2.6492484  -11.4237735  
C   -2.4097474   -1.1148465   -9.5427237  
H   -2.6013637    0.8591450   -7.2033263  
H    1.4433998   -1.8509997   -9.8044460  
H   -0.8225534   -3.3992429  -12.0284300  
H   -3.5737711   -2.4153779  -11.2924347  
H   -3.4769294   -0.9320050   -9.4961535  
H   -0.1206390    1.3171431   -6.2519958  
C    2.8310661   -0.0116222   -4.0232753  
C    4.0831506   -0.0216308   -4.5930574  
C    3.8969788   -0.0342099   -6.0071940  
C    2.4982804   -0.0309282   -6.2429000  
N    1.8804232   -0.0190814   -5.0170414  
C    1.9478975   -0.0405574   -7.5281138  
C    2.8254807   -0.0534329   -8.5948183  
O    2.3417508   -0.0628745   -9.8711139  
C    4.2242797   -0.0572768   -8.3799611  
O    4.9653388   -0.0708632   -9.5435735  
C    4.7679476   -0.0480557   -7.1123394  
H    5.0159350   -0.0211639   -4.0555573  
H    0.8877442   -0.0037115   -4.8675955  
H    3.1114966   -0.0713444  -10.4547962  
H    5.8985885   -0.0725828   -9.3098092  
H    5.8434351   -0.0514805   -6.9789481  
C    3.3041271    0.0001176   -1.5420434  
C    2.5845372   -0.0004781   -0.3695856  
C    1.2040006   -0.0000008   -0.7283592  
C    1.1422371    0.0006035   -2.1454375  
N    2.4348636    0.0026108   -2.6077467  
C   -0.0655183    0.0008796   -2.8497920  
C   -1.2321770    0.0002323   -2.1101400  
O   -2.4392820    0.0001145   -2.7472520  
C   -1.1911210   -0.0000008   -0.6955263  
O   -2.4371529   -0.0002320   -0.1032859  
C    0.0000000    0.0000000    0.0000000  
H    3.0031536   -0.0000660    0.6222577  
H   -0.1193552    0.0014842   -3.9297471  
H   -3.1132988   -0.0000649   -2.0551784  
H   -2.3200282   -0.0004071    0.8516410  
H    4.3686623    0.0004070   -1.7024295  
C    0.8681109    0.7263879    2.2709268  
C    0.6127770    0.5096195    3.5869401  
C   -0.4920590   -0.4175482    3.6542670  
C   -0.8620974   -0.7254003    2.2596025  
N    0.0000000    0.0000000    1.4700000  
C   -1.8641242   -1.5660088    1.8976294  
C   -2.6293522   -2.2103885    2.9520183  
O   -3.5512764   -2.9839180    2.7283916  
C   -2.2549728   -1.8987399    4.4361073  
O   -2.8923672   -2.4351063    5.3323774  
C   -1.1543735   -0.9755647    4.7012123  
H    1.1382914    0.9492124    4.4159191  
H   -2.1192137   -1.7782617    0.8686553  
H   -0.9013378   -0.7652422    5.7314848  
H    1.6172880    1.3558399    1.8188057  
