62

C    6.9165240    0.0053560   -5.8517420  
C    6.0868867    0.0078691   -6.9490851  
C    6.9240451    0.0091177   -8.1039723  
C    8.2662005    0.0069671   -7.6451243  
N    8.2257090    0.0066628   -6.2729086  
C    9.3622205    0.0071404   -8.5131858  
C    9.0985384    0.0092213   -9.8691522  
O   10.1317008    0.0091339  -10.7611090  
C    7.7662244    0.0117605  -10.3463841  
O    7.6687424    0.0140494  -11.7225510  
C    6.6844880    0.0118643   -9.4905969  
H    5.0106984    0.0098055   -6.9206638  
H    9.0274009   -0.0052743   -5.6686504  
H   10.3875428    0.0056526   -8.1697986  
H    9.7328143    0.0110578  -11.6409675  
H    6.7367915    0.0156497  -11.9614416  
H    5.6752658    0.0140222   -9.8854948  
C    6.5907972    0.0037509   -4.4182844  
C    5.3731494    0.0029998   -3.8171113  
C    5.6071058    0.0014825   -2.3922963  
C    7.0713654    0.0014398   -2.2113661  
N    7.6095208    0.0024507   -3.4775716  
C    7.6973068    0.0005987   -1.0072486  
C    6.8738981   -0.0005525    0.1904707  
O    7.3427974   -0.0014291    1.3211488  
C    5.3209694   -0.0007806    0.0224890  
O    4.6174378   -0.0020529    1.0236397  
C    4.7630507    0.0004755   -1.3275395  
H    4.4198609    0.0032743   -4.3149605  
H    8.7727861    0.0007137   -0.8965432  
H    8.5911177    0.0042330   -3.6861682  
C    3.3003548    0.0005276   -1.4738982  
C    2.5232817    0.0003497   -2.6090743  
C    1.1623204   -0.0001319   -2.1820101  
C    1.1711886    0.0000583   -0.7636140  
N    2.4852302   -0.0014919   -0.3662356  
C    0.0000000    0.0000000    0.0000000  
C   -1.2020379    0.0000520   -0.6806479  
O   -2.3759249    0.0003495    0.0157742  
C   -1.2314652   -0.0005112   -2.0955511  
O   -2.5054384   -0.0008036   -2.6250184  
C   -0.0764510   -0.0007271   -2.8495195  
H    2.8919962   -0.0005619   -3.6205297  
H    2.8036267    0.0088181    0.5858667  
H   -3.0835636    0.0000348   -0.6418823  
H   -2.4360038   -0.0011526   -3.5845925  
H   -0.1304090   -0.0013420   -3.9319089  
C    2.4951002    2.0940188    2.9809380  
C    1.9440701    1.6314916    1.8291961  
C    0.8759964    0.7350050    2.2038498  
C    0.8497377    0.7130254    3.6788474  
N    1.8560616    1.5571714    4.0882609  
C   -0.0205033   -0.0168748    4.4215661  
C   -0.9962600   -0.8356168    3.7214979  
O   -1.8224391   -1.5286685    4.3006425  
C   -0.9864710   -0.8277881    2.1595606  
O   -1.8030528   -1.5133726    1.5592035  
C    0.0000000    0.0000000    1.4700000  
H    2.2509283    1.8888011    0.8310761  
H   -0.0229599   -0.0187323    5.5027230  
H    3.3143982    2.7817323    3.1139444  
H    2.0889452    1.7545833    5.0442112  
