62

C   10.8874451    2.1261917   -2.8450369  
C   11.9054132    1.6276534   -2.0655071  
C   11.3081470    0.7527014   -1.1103469  
C    9.9115292    0.7571148   -1.3580703  
N    9.6900299    1.6027940   -2.4165514  
C    9.0072401    0.0035745   -0.6035994  
C    9.5222416   -0.7687207    0.4193913  
O    8.6838579   -1.5242139    1.1870861  
C   10.9127124   -0.7860687    0.6822777  
O   11.2693710   -1.6044695    1.7341130  
C   11.8053707   -0.0427248   -0.0614475  
H   12.9498518    1.8662168   -2.1714809  
H    8.7941510    1.7988308   -2.8251505  
H    9.2402263   -1.9783920    1.8331817  
H   12.2239626   -1.5587893    1.8448975  
H   12.8649729   -0.0760722    0.1635136  
H   10.9206203    2.8148206   -3.6718666  
C    6.6001506    0.0019434   -4.3713014  
C    7.6333543    0.0021445   -3.4630303  
C    7.0453162    0.0020497   -2.1634877  
C    5.6383364    0.0015001   -2.3433062  
N    5.4022893    0.0033999   -3.6956728  
C    4.7390840    0.0009613   -1.2727298  
C    5.2698382    0.0006706    0.0026046  
O    4.4369625   -0.0002077    1.0839605  
C    6.6708713    0.0015853    0.2024108  
O    7.0428744    0.0015759    1.5309279  
C    7.5585984    0.0023904   -0.8532721  
H    8.6818863    0.0034411   -3.7071040  
H    4.4955245   -0.0070443   -4.1265437  
H    5.0045013    0.0000322    1.8657303  
H    8.0038195    0.0021938    1.5776951  
H    6.6229005    0.0023217   -5.4476109  
C    3.2798077    0.0005856   -1.4499661  
C    2.5571132    0.0005565   -2.5996564  
C    1.1637425    0.0001547   -2.2210366  
C    1.1336959   -0.0000200   -0.7459475  
N    2.4483509   -0.0001429   -0.3402730  
C    0.0000000    0.0000000    0.0000000  
C   -1.2757370   -0.0000187   -0.6964411  
O   -2.3524597   -0.0000640   -0.1142306  
C   -1.2676502   -0.0000874   -2.2584078  
O   -2.3355774   -0.0004102   -2.8557287  
C    0.0181551    0.0001758   -2.9516297  
H    2.9547342    0.0006074   -3.5989118  
H    0.0150776    0.0003317   -4.0331632  
H    2.7563626    0.0012823    0.6148051  
C    0.8681109    0.7263879    2.2709268  
C    0.6127770    0.5096195    3.5869401  
C   -0.4920590   -0.4175482    3.6542670  
C   -0.8620974   -0.7254003    2.2596025  
N    0.0000000    0.0000000    1.4700000  
C   -1.8641242   -1.5660088    1.8976294  
C   -2.6293522   -2.2103885    2.9520183  
O   -3.5512764   -2.9839180    2.7283916  
C   -2.2549728   -1.8987399    4.4361073  
O   -2.8923672   -2.4351063    5.3323774  
C   -1.1543735   -0.9755647    4.7012123  
H    1.1382914    0.9492124    4.4159191  
H   -2.1192137   -1.7782617    0.8686553  
H   -0.9013378   -0.7652422    5.7314848  
H    1.6172880    1.3558399    1.8188057  
