62

C   -0.1496414   -0.0015607   -4.3176960  
C    0.8570959   -0.0030492   -5.2552167  
C    0.2320387   -0.0039076   -6.5373647  
C   -1.1692057   -0.0025861   -6.3172802  
N   -1.3663825   -0.0031293   -4.9587013  
C   -2.0987838   -0.0026541   -7.3616343  
C   -1.6048135   -0.0037752   -8.6516614  
O   -2.4683514   -0.0035423   -9.7086939  
C   -0.2100859   -0.0054778   -8.8915536  
O    0.1236734   -0.0068611  -10.2301901  
C    0.7075439   -0.0056849   -7.8617574  
H    1.9121943   -0.0045702   -5.0413049  
H   -2.2604161    0.0081046   -4.5020195  
H   -3.1680123   -0.0017952   -7.2005417  
H   -1.9234601   -0.0047516  -10.5064140  
H    1.0828823   -0.0079358  -10.3044898  
H    1.7698140   -0.0071880   -8.0763687  
C    3.3003545    0.0005278   -1.4738987  
C    2.5232815    0.0003501   -2.6090748  
C    1.1623200   -0.0001315   -2.1820103  
C    1.1711882    0.0000584   -0.7636141  
N    2.4852301   -0.0014918   -0.3662361  
C    0.0000000    0.0000000    0.0000000  
C   -1.2020383    0.0000521   -0.6806477  
O   -2.3759251    0.0003495    0.0157743  
C   -1.2314654   -0.0005110   -2.0955510  
O   -2.5054386   -0.0008035   -2.6250179  
C   -0.0764515   -0.0007269   -2.8495195  
H    2.8919955   -0.0005615   -3.6205303  
H    2.8036266    0.0088181    0.5858663  
H   -3.0835640    0.0000348   -0.6418818  
H   -2.4360048   -0.0011523   -3.5845921  
C    6.5323597    0.0028970   -4.4466876  
C    7.6043838    0.0022116   -3.6131176  
C    7.0889169    0.0013276   -2.2643670  
C    5.6181657    0.0015265   -2.3813340  
N    5.3453981    0.0028895   -3.7298464  
C    4.7630504    0.0004759   -1.3275403  
C    5.3290148   -0.0007197    0.0111972  
O    4.6424953   -0.0016576    1.0246028  
C    6.8840258   -0.0006987    0.1586649  
O    7.3720528   -0.0013929    1.2807567  
C    7.7018217    0.0002124   -1.0517319  
H    8.6382624    0.0024959   -3.9092736  
H    8.7776749    0.0000153   -0.9409891  
H    6.5095801    0.0036238   -5.5243565  
H    4.4257323    0.0017852   -4.1314196  
C    0.8400945    0.7047457    2.2710304  
C    0.0000000    0.0000000    1.4700000  
C   -0.8844236   -0.7423113    2.3369512  
C   -0.4878984   -0.4098547    3.7186280  
N    0.5629682    0.4714286    3.6095011  
C   -1.0836927   -0.9095027    4.8308716  
C   -2.1891196   -1.8367527    4.6554461  
O   -2.7906899   -2.3413415    5.5944904  
C   -2.6257283   -2.2031529    3.2011665  
O   -3.5549479   -2.9829990    3.0410059  
C   -1.9068976   -1.5999348    2.0816745  
H   -0.7774656   -0.6525820    5.8354244  
H   -2.2155208   -1.8586617    1.0779135  
H    1.6384792    1.3747609    1.9961646  
H    1.0518368    0.8833920    4.3830260  
