62

C   -4.5792676    3.0356929    0.7720045  
C   -3.5716512    3.6847089    1.4472482  
C   -4.1913577    4.4776587    2.4580865  
C   -5.5903773    4.2700089    2.3506031  
N   -5.7915663    3.3906562    1.3157704  
C   -6.5147011    4.8957229    3.1925638  
C   -6.0176487    5.7463221    4.1608600  
O   -6.8760065    6.3830207    5.0098878  
C   -4.6250935    5.9666513    4.2835892  
O   -4.2877864    6.8410963    5.2959685  
C   -3.7126637    5.3499166    3.4531456  
H   -2.5194860    3.5982123    1.2363928  
H   -6.6845380    3.0475561    1.0110329  
H   -7.5822193    4.7417732    3.1157055  
H   -6.3297293    6.9206172    5.5979672  
H   -3.3303575    6.9344442    5.3108150  
H   -2.6519589    5.5383269    3.5709805  
C   -4.5109066    2.0977186   -0.3577882  
C   -3.4201852    1.6341426   -1.0207354  
C   -3.9001608    0.7380703   -2.0461684  
C   -5.3704640    0.7174766   -1.9254402  
N   -5.6768568    1.5619478   -0.8833837  
C   -6.1968217   -0.0116751   -2.7173833  
C   -5.5981514   -0.8310170   -3.7579637  
O   -6.2573266   -1.5234764   -4.5223515  
C   -4.0429937   -0.8246547   -3.9037356  
O   -3.5275661   -1.5107550   -4.7760093  
C   -3.2578655    0.0024282   -2.9908505  
H   -2.3962315    1.8904974   -0.8147870  
H   -7.2728523   -0.0125179   -2.6121841  
H   -6.6046845    1.7602432   -0.5564866  
C    0.0000000    0.0000000    0.0000000  
C    1.0521666   -0.0011982   -0.8862343  
C    0.4917215   -0.0011996   -2.1979132  
C   -0.9187429    0.0003215   -2.0478682  
N   -1.1833171   -0.0009323   -0.7007913  
C   -1.7951703    0.0010483   -3.1372089  
C   -1.2375841    0.0005313   -4.4010422  
O   -2.0474218    0.0015510   -5.4997578  
C    0.1673576   -0.0013585   -4.5711963  
O    0.5673520   -0.0020735   -5.8915554  
C    1.0325768   -0.0023493   -3.4969892  
H    2.0953056   -0.0030808   -0.6200564  
H   -2.0989778    0.0102529   -0.2891822  
H   -1.4634888    0.0006601   -6.2693595  
H    1.5290707   -0.0033271   -5.9180047  
H    2.1042146   -0.0039770   -3.6584456  
C    3.1301144    0.0010313    3.1728260  
C    2.5367765    0.0002768    1.9564670  
C    1.1089900   -0.0001027    2.2356185  
C    1.0177864    0.0004150    3.7115134  
N    2.1993570    0.0011613    4.2663826  
C   -0.2459220    0.0002880    4.3957118  
C   -1.3675327    0.0000606    3.6398520  
O   -2.6129319   -0.0000866    4.1448486  
C   -1.3083589   -0.0000910    2.1483229  
O   -2.3693264   -0.0004206    1.5241687  
C    0.0000000    0.0000000    1.4700000  
H    3.0096015    0.0001008    0.9892483  
H   -0.2829642    0.0004689    5.4753125  
H   -3.1967446   -0.0002093    3.3649027  
H    4.1849273    0.0015113    3.3971983  
