60

C    5.9347405   -0.0064461   -4.4192921  
C    6.1172116   -0.0057491   -3.0557778  
C    7.5246568   -0.0075127   -2.8240552  
C    8.1556184   -0.0089701   -4.0944138  
N    7.1614108   -0.0102262   -5.0410745  
C    9.5452224   -0.0105933   -4.2486462  
C   10.3118392   -0.0104409   -3.0995267  
O   11.6735869   -0.0116315   -3.1925542  
C    9.7008047   -0.0093723   -1.8230260  
O   10.5997414   -0.0097821   -0.7764807  
C    8.3299866   -0.0080441   -1.6701193  
H    5.3324331   -0.0052696   -2.3188135  
H    7.3060024   -0.0008420   -6.0345463  
H   10.0322650   -0.0118533   -5.2140428  
H   12.0091526   -0.0115877   -2.2866509  
H   10.1055339   -0.0089729    0.0489659  
H    7.8906259   -0.0074288   -0.6794427  
C    1.6707638   -0.0012342   -3.2725973  
C    3.0286798   -0.0026500   -3.2608754  
C    3.4615715   -0.0042636   -4.6383503  
C    2.2357554   -0.0036381   -5.4594255  
N    1.1849520   -0.0021879   -4.5713376  
C    2.2192692   -0.0043574   -6.8164192  
C    3.4939019   -0.0060732   -7.5148762  
O    3.5845471   -0.0068918   -8.7355668  
C    4.8047158   -0.0070135   -6.6654227  
O    5.8837815   -0.0087649   -7.2423772  
C    4.6947482   -0.0058257   -5.2087973  
H    3.6555464   -0.0027554   -2.3870037  
H    1.3089303   -0.0037484   -7.3996804  
H    0.2146125    0.0000903   -4.8272347  
C    1.0965515    0.0001359   -0.8010305  
C    0.0000000    0.0000000    0.0000000  
C   -1.1546564    0.0001470   -0.8669509  
C   -0.6372018    0.0003521   -2.2486279  
N    0.7342868    0.0007339   -2.1395011  
C   -1.4147743    0.0001355   -3.3608714  
C   -2.8576049   -0.0001046   -3.1854455  
O   -3.6427782   -0.0002491   -4.1244898  
C   -3.4275842   -0.0000725   -1.7311664  
O   -4.6406831    0.0000334   -1.5710053  
C   -2.4891868   -0.0001091   -0.6116742  
H   -1.0150456    0.0001619   -4.3654242  
H   -2.8919123   -0.0002920    0.3920869  
H    2.1388270    0.0000663   -0.5261648  
C    0.8175213    0.6860729    2.3021913  
C    0.0000000    0.0000000    1.4700000  
C   -0.8887526   -0.7456559    2.3478473  
C   -0.4549825   -0.3816753    3.7138435  
N    0.5448156    0.4573574    3.6934124  
C   -1.0945674   -0.9182058    4.8835240  
C   -2.1210866   -1.7789155    4.6970523  
O   -2.8083856   -2.3554314    5.6976972  
C   -2.5824069   -2.1655116    3.3310774  
O   -3.5227682   -2.9541547    3.2362962  
C   -1.9100805   -1.6015804    2.1470656  
H   -0.7567140   -0.6349833    5.8697035  
H   -3.4728268   -2.9124471    5.2533954  
H   -2.2742832   -1.9066565    1.1752040  
H    1.6189533    1.3585343    2.0405121  
