60

C   10.9669927    2.1212961   -3.1080760  
C   11.9965102    1.6223767   -2.3441122  
C   11.4133943    0.7485310   -1.3792447  
C   10.0131062    0.7539809   -1.6052779  
N    9.7759275    1.5991873   -2.6607352  
C    9.1199938    0.0016837   -0.8363906  
C    9.6501511   -0.7704114    0.1789813  
O    8.8231385   -1.5247096    0.9600695  
C   11.0445172   -0.7887810    0.4202791  
O   11.4167584   -1.6068286    1.4669774  
C   11.9261569   -0.0466634   -0.3376771  
H   13.0393791    1.8599831   -2.4664260  
H    8.8739844    1.7957328   -3.0555137  
H    9.3890803   -1.9789583    1.5977472  
H   12.3729904   -1.5618934    1.5629123  
H   12.9890935   -0.0807740   -0.1291576  
H   10.9879184    2.8093798   -3.9357601  
C    6.4690067    0.0019752   -4.4192259  
C    7.5790592    0.0025229   -3.6450414  
C    7.0826137    0.0021760   -2.2775470  
C    5.6103549    0.0015082   -2.4155218  
N    5.2447492    0.0013071   -3.6686472  
C    4.7390840    0.0009613   -1.2727298  
C    5.3125318    0.0006873   -0.0477839  
O    4.6211392    0.0001823    1.1046125  
C    6.7952873    0.0009744    0.1242520  
O    7.2479830    0.0008235    1.2689297  
C    7.6676529    0.0015791   -1.0635623  
H    8.6077291    0.0030015   -3.9627138  
H    5.3014942    0.0000718    1.8019434  
H    6.4103389    0.0020014   -5.4960416  
C    3.2798077    0.0005856   -1.4499661  
C    2.5571132    0.0005565   -2.5996564  
C    1.1637425    0.0001547   -2.2210366  
C    1.1336959   -0.0000200   -0.7459475  
N    2.4483509   -0.0001429   -0.3402730  
C    0.0000000    0.0000000    0.0000000  
C   -1.2757370   -0.0000187   -0.6964411  
O   -2.3524597   -0.0000640   -0.1142306  
C   -1.2676502   -0.0000874   -2.2584078  
O   -2.3355774   -0.0004102   -2.8557287  
C    0.0181551    0.0001758   -2.9516297  
H    2.9547342    0.0006074   -3.5989118  
H    0.0150776    0.0003317   -4.0331632  
H    2.7563626    0.0012823    0.6148051  
C    0.0000000    0.0000000    1.4700000  
C    1.0662921    0.0000102    2.3034270  
C    0.4961870   -0.0000064    3.6418889  
C   -0.9663858    0.0000850    3.4240247  
N   -1.2632773    0.0000084    2.1528658  
C   -1.8985362    0.0000517    4.5177257  
C   -1.3925775   -0.0004564    5.7720543  
O   -2.1456383   -0.0005410    6.8851312  
C    0.0786232   -0.0009323    6.0245000  
O    0.4683759   -0.0012588    7.1921102  
C    1.0143166   -0.0008442    4.8859032  
H    2.1107198   -0.0000632    2.0421868  
H   -2.9622183    0.0003270    4.3293377  
H   -1.5042274   -0.0009692    7.6184419  
H    2.0724152   -0.0013148    5.1109744  
