60

C   10.2265985    0.0009333    3.6051029  
C    9.4059477    0.0008310    2.5010198  
C    8.0626327    0.0007274    2.9807113  
C    8.1266793    0.0010598    4.3976887  
N    9.4551862   -0.0007730    4.7436417  
C    6.9860874    0.0013671    5.2062912  
C    5.7584774    0.0016453    4.5729264  
O    4.6125752    0.0023022    5.3144934  
C    5.6740231    0.0009453    3.1602394  
O    4.3804149    0.0009121    2.6807392  
C    6.7988284    0.0003686    2.3619039  
H    9.7350300   -0.0002743    1.4759852  
H    9.8103869    0.0095556    5.6826334  
H    7.0281569    0.0014772    6.2867686  
H    3.8798847    0.0020946    4.6848666  
H    4.4124626    0.0004483    1.7191901  
H   11.3011581    0.0006428    3.6705308  
C    6.6685718   -0.0005968    0.8976869  
C    7.6427403   -0.0013906   -0.0483945  
C    6.9825048   -0.0021117   -1.3324984  
C    5.5334439   -0.0016404   -1.0549837  
N    5.4101714   -0.0011225    0.3153058  
C    4.5679461   -0.0016854   -2.0086701  
C    4.9837195   -0.0024606   -3.4013895  
O    4.1902291   -0.0026238   -4.3334162  
C    6.5131871   -0.0032216   -3.7184587  
O    6.8752458   -0.0041842   -4.8872932  
C    7.4587610   -0.0028168   -2.6050218  
H    8.7028574   -0.0016452    0.1326221  
H    8.5159864   -0.0031433   -2.8330534  
H    4.5400786    0.0008355    0.8152880  
C    3.1301149   -0.0010311   -1.7028252  
C    2.5367768   -0.0002767   -0.4864665  
C    1.1089904    0.0001028   -0.7656183  
C    1.0177872   -0.0004148   -2.2415132  
N    2.1993578   -0.0011611   -2.7963820  
C   -0.2459209   -0.0002877   -2.9257118  
C   -1.3675319   -0.0000605   -2.1698524  
O   -2.6129313    0.0000867   -2.6748490  
C   -1.3083584    0.0000910   -0.6783232  
O   -2.3693261    0.0004206   -0.0541692  
C    0.0000000    0.0000000    0.0000000  
H    3.0096017   -0.0001007    0.4807525  
H   -0.2829630   -0.0004687   -4.0053125  
H   -3.1967441    0.0002094   -1.8949034  
C    2.4951002    2.0940188    2.9809380  
C    1.9440701    1.6314916    1.8291961  
C    0.8759964    0.7350050    2.2038498  
C    0.8497377    0.7130254    3.6788474  
N    1.8560616    1.5571714    4.0882609  
C   -0.0205033   -0.0168748    4.4215661  
C   -0.9962600   -0.8356168    3.7214979  
O   -1.8224391   -1.5286685    4.3006425  
C   -0.9864710   -0.8277881    2.1595606  
O   -1.8030528   -1.5133726    1.5592035  
C    0.0000000    0.0000000    1.4700000  
H    2.2509283    1.8888011    0.8310761  
H   -0.0229599   -0.0187323    5.5027230  
H    3.3143982    2.7817323    3.1139444  
H    2.0889452    1.7545833    5.0442112  
