62

C   -5.8152784   -0.7182027   -6.5951616  
C   -6.6559387    0.0007478   -5.7773183  
C   -7.5411008    0.7285723   -6.6266465  
C   -7.1900123    0.4109528   -7.9637265  
N   -6.1372559   -0.4684159   -7.9086639  
C   -7.8556974    0.9498540   -9.0688221  
C   -8.8949302    1.8251032   -8.8196009  
O   -9.5791371    2.3801459   -9.8620987  
C   -9.2598752    2.1546489   -7.4925614  
O  -10.3144287    3.0403122   -7.4097351  
C   -8.6034258    1.6235976   -6.4018803  
H   -5.6810130   -0.8780030   -8.7036862  
H   -7.5928705    0.7119120  -10.0903445  
H  -10.2531686    2.9522135   -9.4726321  
H  -10.4969734    3.2098275   -6.4804631  
H   -8.9053450    1.8948184   -5.3970112  
H   -5.0105499   -1.3883015   -6.3454855  
C   -3.2941076    0.0012874   -2.9038237  
C   -4.0470173    0.0024498   -1.7524799  
C   -5.4166997    0.0030232   -2.1506880  
C   -5.4378086    0.0018718   -3.5689539  
N   -4.1324580    0.0027861   -3.9940142  
C   -6.6248729    0.0017414   -4.3076470  
C   -7.8122581    0.0024856   -3.6017488  
O   -9.0006005    0.0020455   -4.2732075  
C   -7.8117775    0.0040135   -2.1865404  
O   -9.0742767    0.0050198   -1.6302690  
C   -6.6410879    0.0044160   -1.4571493  
H   -3.6570100    0.0039420   -0.7490430  
H   -3.8342559   -0.0082564   -4.9526251  
H   -9.6941833    0.0030026   -3.6007439  
H   -8.9845788    0.0059977   -0.6723769  
H   -6.6721590    0.0057775   -0.3738621  
C    0.0000000    0.0000000    0.0000000  
C    1.0541688   -0.0001722   -0.8560393  
C    0.5103135   -0.0000454   -2.1935957  
C   -0.9576374    0.0002459   -2.0455730  
N   -1.2018460   -0.0001391   -0.6915968  
C   -1.8348314    0.0008317   -3.0810607  
C   -1.2972851    0.0009737   -4.4314604  
O   -2.0050676    0.0014265   -5.4301315  
C    0.2542619    0.0004184   -4.6117571  
O    0.7184666    0.0002257   -5.7439121  
C    1.0974550    0.0000874   -3.4189130  
H    2.0940752   -0.0005483   -0.5817984  
H    2.1707276   -0.0000911   -3.5523671  
H   -2.1128194    0.0014912   -0.2706789  
C    1.1319247   -0.0015655    2.2709268  
C    0.7969915   -0.0034943    3.5869401  
C   -0.6453339   -0.0035710    3.6542670  
C   -1.1266833   -0.0015433    2.2596025  
N    0.0000000    0.0000000    1.4700000  
C   -2.4346130   -0.0013964    1.8976294  
C   -3.4350110   -0.0031408    2.9520183  
O   -4.6384611   -0.0030974    2.7283916  
C   -2.9478959   -0.0050506    4.4361073  
O   -3.7809380   -0.0062218    5.3323774  
C   -1.5113823   -0.0053090    4.7012123  
H    1.4821238   -0.0045407    4.4159191  
H   -2.7664565   -0.0000232    0.8686553  
H   -1.1823530   -0.0068408    5.7314848  
H    2.1104316   -0.0009391    1.8188057  
