64

C    1.8089421   -1.8321960   -8.4425652  
C    2.7370769   -2.6391139   -9.0589395  
C    2.5135700   -2.5329738  -10.4637089  
C    1.4271815   -1.6394012  -10.6459570  
N    1.0218256   -1.2340034   -9.3985778  
C    0.9318395   -1.2985859  -11.9082059  
C    1.5445545   -1.8700047  -13.0064953  
O    1.1010830   -1.5715103  -14.2623800  
C    2.6295978   -2.7641158  -12.8450521  
O    3.1318412   -3.2492568  -14.0348980  
C    3.1186134   -3.1010008  -11.6001034  
H    3.4826970   -3.2322251   -8.5576769  
H    0.2752748   -0.5891385   -9.2120520  
H    0.1040675   -0.6182992  -12.0538284  
H    1.6582791   -2.0698327  -14.8743216  
H    3.8609149   -3.8449575  -13.8369183  
H    3.9509417   -3.7888769  -11.5077232  
C    2.3020058   -2.1258166   -5.9826638  
C    1.8093620   -1.6631474   -4.7844546  
C    0.7354061   -0.7757531   -5.0906404  
C    0.6179774   -0.7364006   -6.5036468  
N    1.5853775   -1.5658600   -7.0142844  
C   -0.3411002    0.0396019   -7.1615064  
C   -1.1974270    0.7893046   -6.3786729  
O   -2.1529119    1.5646258   -6.9693855  
C   -1.0957283    0.7635435   -4.9673579  
O   -2.0198651    1.5644925   -4.3287681  
C   -0.1496415   -0.0015615   -4.3176961  
H    2.1793383   -1.9313018   -3.8096706  
H   -0.4356785    0.0740519   -8.2381070  
H   -2.6343336    1.9980531   -6.2526991  
H   -1.8828074    1.4896273   -3.3794451  
H    3.1087987   -2.8098334   -6.1830798  
C    3.3003543    0.0005276   -1.4738987  
C    2.5232814    0.0003497   -2.6090747  
C    1.1623200   -0.0001320   -2.1820103  
C    1.1711883    0.0000582   -0.7636140  
N    2.4852300   -0.0014919   -0.3662360  
C    0.0000000    0.0000000    0.0000000  
C   -1.2020384    0.0000519   -0.6806477  
O   -2.3759249    0.0003493    0.0157743  
C   -1.2314656   -0.0005115   -2.0955510  
O   -2.5054392   -0.0008039   -2.6250180  
C   -0.0764516   -0.0007274   -2.8495195  
H    2.8919955   -0.0005620   -3.6205304  
H    2.8036267    0.0088183    0.5858662  
H   -3.0835638    0.0000347   -0.6418818  
H   -2.4360047   -0.0011529   -3.5845921  
H    4.3715549    0.0004895   -1.3667136  
C    0.8175213    0.6860729    2.3021913  
C    0.0000000    0.0000000    1.4700000  
C   -0.8887526   -0.7456559    2.3478473  
C   -0.4549825   -0.3816753    3.7138435  
N    0.5448156    0.4573574    3.6934124  
C   -1.0945674   -0.9182058    4.8835240  
C   -2.1210866   -1.7789155    4.6970523  
O   -2.8083856   -2.3554314    5.6976972  
C   -2.5824069   -2.1655116    3.3310774  
O   -3.5227682   -2.9541547    3.2362962  
C   -1.9100805   -1.6015804    2.1470656  
H   -0.7567140   -0.6349833    5.8697035  
H   -3.4728268   -2.9124471    5.2533954  
H   -2.2742832   -1.9066565    1.1752040  
H    1.6189533    1.3585343    2.0405121  
