60

C    5.5788119   -2.9625615   -8.4078827  
C    6.3376328   -2.5283008   -9.4699915  
C    6.0768715   -1.1346207   -9.6257427  
C    5.1433265   -0.7710956   -8.6216176  
N    4.8606435   -1.9048809   -7.9010345  
C    4.6584901    0.5321634   -8.4758813  
C    5.1247840    1.4858831   -9.3597180  
O    4.6844810    2.7741434   -9.2620872  
C    6.0560621    1.1425585  -10.3685132  
O    6.4236863    2.2035903  -11.1700162  
C    6.5345892   -0.1429957  -10.5130422  
H    6.9970582   -3.1409240  -10.0606221  
H    4.2369148   -1.9529990   -7.1157782  
H    5.1278518    3.2681619   -9.9639642  
H    7.0539363    1.8865639  -11.8241431  
H    7.2473484   -0.3760568  -11.2954322  
H    5.4919559   -3.9433827   -7.9726780  
C    4.3834955   -0.6859722   -4.3011933  
C    3.2973506   -0.0000934   -3.8752374  
C    2.8440573    0.7452243   -5.0395080  
C    3.7976377    0.3812809   -6.1094678  
N    4.7022577   -0.4574405   -5.6826203  
C    3.6909720    0.9175298   -7.4384316  
C    2.6775117    1.7779344   -7.6873016  
O    2.4582900    2.3541659   -8.8814286  
C    1.6987829    2.1644848   -6.6286089  
O    0.8014172    2.9528433   -6.9260092  
C    1.8294973    1.6008465   -5.2731940  
H    1.6702335    2.9110075   -8.7470890  
H    1.1002949    1.9058792   -4.5346484  
H    5.0085212   -1.3581665   -3.7350919  
C    3.3321174    0.0004714   -1.3379332  
C    2.6974186    0.0000115   -2.5332308  
C    1.2800441   -0.0002119   -2.2052838  
C    1.2395035    0.0000643   -0.7271293  
N    2.4394063    0.0005458   -0.2131034  
C    0.0000000    0.0000000    0.0000000  
C   -1.1468701    0.0000634   -0.7169542  
O   -2.3742201    0.0000072   -0.1695492  
C   -1.1388767    0.0001606   -2.2096354  
O   -2.2206229    0.0000903   -2.7970413  
C    0.1454526    0.0001815   -2.9324239  
H   -2.9844344    0.0001023   -0.9290168  
H    0.1083580    0.0003680   -4.0135594  
H    4.3940040    0.0007617   -1.1498630  
C    0.0000000    0.0000000    1.4700000  
C    1.0662921    0.0000102    2.3034270  
C    0.4961870   -0.0000064    3.6418889  
C   -0.9663858    0.0000850    3.4240247  
N   -1.2632773    0.0000084    2.1528658  
C   -1.8985362    0.0000517    4.5177257  
C   -1.3925775   -0.0004564    5.7720543  
O   -2.1456383   -0.0005410    6.8851312  
C    0.0786232   -0.0009323    6.0245000  
O    0.4683759   -0.0012588    7.1921102  
C    1.0143166   -0.0008442    4.8859032  
H    2.1107198   -0.0000632    2.0421868  
H   -2.9622183    0.0003270    4.3293377  
H   -1.5042274   -0.0009692    7.6184419  
H    2.0724152   -0.0013148    5.1109744  
