60

C    3.9864932   -3.7035920   -4.9933787  
C    2.9316273   -3.0707055   -4.3776028  
C    2.9309174   -3.4926042   -3.0150310  
C    4.0177922   -4.3901286   -2.8566658  
N    4.6364552   -4.4973325   -4.0774774  
C    4.3202870   -5.0038819   -1.6374069  
C    3.5110259   -4.7059310   -0.5582869  
O    3.7617045   -5.2771405    0.6557532  
C    2.4216598   -3.8131856   -0.6965037  
O    1.7105154   -3.6192611    0.4696910  
C    2.1224906   -3.2075476   -1.8990951  
H    5.4471804   -5.0573457   -4.2700654  
H    5.1471411   -5.6889593   -1.5101940  
H    3.0885934   -4.9391999    1.2607176  
H    0.9932147   -3.0038691    0.2897568  
H    1.2814691   -2.5282336   -1.9745483  
H    4.3258063   -3.6527155   -6.0137885  
C    1.9957411   -2.1407949   -5.0258948  
C    1.9855627   -1.7332335   -6.3163870  
C    0.8551746   -0.8225476   -6.4132070  
C    0.2799735   -0.7963194   -5.0512088  
N    0.9444052   -1.5670713   -4.2336140  
C   -0.8712826    0.0001710   -4.7267111  
C   -1.4226087    0.7372646   -5.7177042  
O   -2.4987601    1.5259556   -5.5567519  
C   -0.8649837    0.7322389   -7.1023303  
O   -1.4179258    1.4273754   -7.9545395  
C    0.3165522   -0.0930917   -7.4101078  
H    2.6616908   -2.0156327   -7.1051695  
H   -2.6523130    1.9181970   -6.4352286  
H    0.6899760   -0.0690838   -8.4250993  
C    1.0965514    0.0001359   -0.8010305  
C    0.0000000    0.0000000    0.0000000  
C   -1.1546563    0.0001470   -0.8669513  
C   -0.6372014    0.0003519   -2.2486282  
N    0.7342871    0.0007337   -2.1395014  
C   -1.4147739    0.0001352   -3.3608717  
C   -2.8576049   -0.0001048   -3.1854462  
O   -3.6427779   -0.0002494   -4.1244907  
C   -3.4275840   -0.0000725   -1.7311666  
O   -4.6406831    0.0000333   -1.5710060  
C   -2.4891867   -0.0001091   -0.6116744  
H   -2.8919122   -0.0002918    0.3920866  
H    2.1388272    0.0000663   -0.5261648  
H    1.3735872   -0.0006099   -2.9130262  
C    2.4951002    2.0940188    2.9809380  
C    1.9440701    1.6314916    1.8291961  
C    0.8759964    0.7350050    2.2038498  
C    0.8497377    0.7130254    3.6788474  
N    1.8560616    1.5571714    4.0882609  
C   -0.0205033   -0.0168748    4.4215661  
C   -0.9962600   -0.8356168    3.7214979  
O   -1.8224391   -1.5286685    4.3006425  
C   -0.9864710   -0.8277881    2.1595606  
O   -1.8030528   -1.5133726    1.5592035  
C    0.0000000    0.0000000    1.4700000  
H    2.2509283    1.8888011    0.8310761  
H   -0.0229599   -0.0187323    5.5027230  
H    3.3143982    2.7817323    3.1139444  
H    2.0889452    1.7545833    5.0442112  
