66

C    4.4474101   -0.6204744   -8.9450210  
C    5.1936192   -0.5496017  -10.0985440  
C    5.1430952    0.8043166  -10.5445856  
C    4.3449056    1.5192003   -9.6151985  
N    3.9370004    0.6238504   -8.6578170  
C    4.0791178    2.8860970   -9.7406581  
C    4.6293670    3.5433580  -10.8238984  
O    4.4020057    4.8783670  -10.9943991  
C    5.4281579    2.8473441  -11.7621509  
O    5.9032015    3.6415894  -12.7853075  
C    5.6905576    1.4988099  -11.6391569  
H    5.7098521   -1.3727445  -10.5621528  
H    3.4714528    3.4366946   -9.0358260  
H    4.8700607    5.1343803  -11.7997846  
H    6.4324900    3.0949139  -13.3740392  
H    6.3058632    0.9925882  -12.3737440  
H    4.2376987   -1.4604767   -8.3051956  
C    4.1066125   -0.7198881   -4.4477716  
C    3.0267438   -0.0008951   -3.9901699  
C    2.5093612    0.7266862   -5.1026182  
C    3.3209992    0.4088812   -6.2216218  
N    4.2823370   -0.4703592   -5.7887437  
C    3.1008508    0.9475206   -7.4929167  
C    2.0418856    1.8226944   -7.6372800  
O    1.7817952    2.3774839   -8.8569421  
C    1.2209698    2.1524224   -6.5326562  
O    0.2080032    3.0379804   -6.8376640  
C    1.4377309    1.6216292   -5.2781444  
H    4.9956202   -0.8800287   -6.3643988  
H    1.0124304    2.9495408   -8.7382247  
H   -0.2987966    3.2076316   -6.0376790  
H    0.7922739    1.8929849   -4.4509628  
H    4.7662583   -1.3898538   -3.9233935  
C    3.3003547    0.0005277   -1.4738986  
C    2.5232816    0.0003497   -2.6090746  
C    1.1623203   -0.0001319   -2.1820102  
C    1.1711884    0.0000584   -0.7636141  
N    2.4852301   -0.0014919   -0.3662359  
C    0.0000000    0.0000000    0.0000000  
C   -1.2020383    0.0000520   -0.6806479  
O   -2.3759248    0.0003493    0.0157745  
C   -1.2314655   -0.0005115   -2.0955511  
O   -2.5054388   -0.0008040   -2.6250184  
C   -0.0764513   -0.0007274   -2.8495195  
H    2.8036266    0.0088183    0.5858662  
H   -3.0835639    0.0000346   -0.6418822  
H   -2.4360043   -0.0011529   -3.5845924  
H   -0.1304091   -0.0013423   -3.9319089  
H    4.3715553    0.0004897   -1.3667133  
C    0.8676693    0.7151171    2.2619005  
C    0.5875920    0.4624972    3.5848544  
C   -0.5048400   -0.4542819    3.6114698  
C   -0.8517165   -0.7276451    2.2635546  
N    0.0000000    0.0000000    1.4700000  
C   -1.8902865   -1.5946756    1.9108239  
C   -2.5912627   -2.1969500    2.9375057  
O   -3.6148162   -3.0527051    2.6493466  
C   -2.2603868   -1.9365747    4.2886322  
O   -3.0513550   -2.6123276    5.1947621  
C   -1.2361111   -1.0811317    4.6373480  
H    1.1060808    0.8876438    4.4271209  
H   -2.1597133   -1.8070987    0.8854031  
H   -3.9636755   -3.3565188    3.4974381  
H   -2.7621927   -2.3810384    6.0827341  
H   -1.0058879   -0.9010589    5.6809233  
H    1.6167816    1.3499334    1.8205408  
