60

C   10.0247467   -2.1258480   -1.0092839  
C    8.9937750   -1.6641175   -1.7943769  
C    9.5660401   -0.7772306   -2.7538276  
C   10.9615775   -0.7372060   -2.5032297  
N   11.2059910   -1.5657937   -1.4363078  
C   11.8440788    0.0385459   -3.2609829  
C   11.3080690    0.7873024   -4.2906599  
O   12.1247635    1.5623397   -5.0622424  
C    9.9182135    0.7608601   -4.5560304  
O    9.5390306    1.5608962   -5.6140972  
C    9.0469772   -0.0039980   -3.8087253  
H    7.9566693   -1.9325554   -1.6878695  
H   12.1092597   -1.7470866   -1.0372848  
H   12.9086832    0.0735047   -3.0749843  
H   11.5561756    1.9950889   -5.7123963  
H    8.5864744    1.4856164   -5.7262261  
H   10.0107477   -2.8092561   -0.1775890  
C    5.6039770   -0.0017519   -1.1379123  
C    4.5679461   -0.0016854   -2.0086701  
C    5.1852103   -0.0025558   -3.3260478  
C    6.6391264   -0.0029687   -3.0563960  
N    6.8907016   -0.0025811   -1.7754982  
C    7.6095177   -0.0038924   -4.1163136  
C    7.1484101   -0.0047705   -5.3878139  
O    7.9405118   -0.0056803   -6.4734530  
C    5.6870989   -0.0047545   -5.6923313  
O    5.3390449   -0.0054589   -6.8730425  
C    4.7115728   -0.0037536   -4.5876722  
H    7.3255396   -0.0061817   -7.2290731  
H    3.6621313   -0.0038906   -4.8501667  
H    5.5656908   -0.0012541   -0.0601800  
C    3.1301149   -0.0010311   -1.7028252  
C    2.5367768   -0.0002767   -0.4864665  
C    1.1089904    0.0001028   -0.7656183  
C    1.0177872   -0.0004148   -2.2415132  
N    2.1993578   -0.0011611   -2.7963820  
C   -0.2459209   -0.0002877   -2.9257118  
C   -1.3675319   -0.0000605   -2.1698524  
O   -2.6129313    0.0000867   -2.6748490  
C   -1.3083584    0.0000910   -0.6783232  
O   -2.3693261    0.0004206   -0.0541692  
C    0.0000000    0.0000000    0.0000000  
H    3.0096017   -0.0001007    0.4807525  
H   -0.2829630   -0.0004687   -4.0053125  
H   -3.1967441    0.0002094   -1.8949034  
C    2.3971438    2.0127888    3.1728260  
C    1.9431056    1.6308205    1.9564670  
C    0.8496017    0.7127664    2.2356185  
C    0.7794028    0.6545384    3.7115134  
N    1.6840587    1.4146091    4.2663826  
C   -0.1885723   -0.1578550    4.3957118  
C   -1.0476298   -0.8789867    3.6398520  
O   -2.0015663   -1.6796266    4.1448486  
C   -1.0022026   -0.8410666    2.1483229  
O   -1.8147390   -1.5232959    1.5241687  
C    0.0000000    0.0000000    1.4700000  
H    2.3054237    1.9346118    0.9892483  
H   -0.2170646   -0.1815267    5.4753125  
H   -2.4487139   -2.0549881    3.3649027  
H    3.2048689    2.6911772    3.3971983  
