62

C    1.2728640   -3.2162341  -10.1575468  
C    0.7986539   -2.5113066   -9.0755719  
C    0.6782105   -1.1504395   -9.4856147  
C    1.0965611   -1.0850612  -10.8393626  
N    1.4527526   -2.3563422  -11.2156469  
C    1.1090072    0.1066865  -11.5703694  
C    0.6912376    1.2532702  -10.9230736  
O    0.6831112    2.4440981  -11.5900643  
C    0.2705414    1.2083583   -9.5725872  
O   -0.1154920    2.4336487   -9.0696111  
C    0.2582589    0.0330691   -8.8507340  
H    0.5689648   -2.9266314   -8.1092692  
H    1.7805887   -2.6215006  -12.1267964  
H    1.4268434    0.1632010  -12.6023522  
H    0.3619638    3.1057208  -10.9636578  
H   -0.3846492    2.3152705   -8.1535632  
H    1.4983667   -4.2641175  -10.2577880  
C    1.7720688   -2.0859335   -5.3149821  
C    0.8968264   -1.6247192   -4.3847633  
C   -0.0065336   -0.7270828   -5.0652227  
C    0.4171842   -0.7029982   -6.4782596  
N    1.5002594   -1.5471470   -6.5634086  
C   -0.1857664    0.0284587   -7.4494065  
C   -1.3281506    0.8467739   -7.0781196  
O   -1.9388951    1.5411249   -7.8800982  
C   -1.7940047    0.8367265   -5.5872531  
O   -2.7544404    1.5219333   -5.2627298  
C   -1.0641734    0.0073898   -4.6315339  
H    0.8854566   -1.8836209   -3.3409939  
H    2.5929126   -2.7739333   -5.1934844  
H    2.0129033   -1.7433394   -7.4034991  
C    1.1319248    0.0015675   -0.8009270  
C    0.7969916    0.0034959   -2.1169404  
C   -0.6453336    0.0035703   -2.1842672  
C   -1.1266831    0.0015415   -0.7896027  
N    0.0000000    0.0000000    0.0000000  
C   -2.4346129    0.0013924   -0.4276297  
C   -3.4350110    0.0031352   -1.4820184  
O   -4.6384610    0.0030897   -1.2583919  
C   -2.9478958    0.0050460   -2.9661075  
O   -3.7809377    0.0062160   -3.8623775  
C   -1.5113821    0.0053068   -3.2312125  
H    1.4821240    0.0045436   -2.9459192  
H   -2.7664565    0.0000185    0.6013447  
H    2.1104318    0.0009428   -0.3488058  
C    2.5285572    2.1210227    2.9438989  
C    1.9331703    1.6216660    4.0790748  
C    0.8903039    0.7472258    3.6520102  
C    0.8972198    0.7527806    2.2336141  
N    1.9028376    1.5986179    1.8362361  
C    0.0000000    0.0000000    1.4700000  
C   -0.9207814   -0.7726952    2.1506477  
O   -1.8198395   -1.5274828    1.4542253  
C   -0.9436862   -0.7911793    3.5655508  
O   -1.9197945   -1.6098497    4.0950179  
C   -0.0590329   -0.0485852    4.3195194  
H    2.2150357    1.8593692    5.0905303  
H    2.1533708    1.7953814    0.8841339  
H   -2.3621246   -1.9821033    2.1118817  
H   -1.8668290   -1.5649508    5.0545920  
H   -0.1007624   -0.0827977    5.4019087  
H    3.3491200    2.8096064    2.8367138  
