60

C   -8.4434545    1.1091469   -1.6613952  
C   -9.7553424    0.7331537   -1.4880520  
C   -9.8232466   -0.6692438   -1.7395874  
C   -8.5107135   -1.0978820   -2.0643245  
N   -7.6979663    0.0071290   -2.0094656  
C   -8.2033996   -2.4267979   -2.3714570  
C   -9.2399078   -3.3396904   -2.3500883  
O   -8.9954787   -4.6504937   -2.6417404  
C  -10.5562634   -2.9312593   -2.0288246  
O  -11.4776851   -3.9578322   -2.0506110  
C  -10.8602132   -1.6203695   -1.7259917  
H  -10.5641079    1.3891879   -1.2150876  
H   -7.2051290   -2.7598516   -2.6199159  
H   -9.8429603   -5.1087034   -2.5704508  
H  -12.3400674   -3.5973653   -1.8226561  
H  -11.8779245   -1.3372562   -1.4839394  
H   -7.9807984    2.0764873   -1.5656839  
C   -4.3359695    2.1064014   -0.0635822  
C   -5.5644951    1.6417184   -0.4083570  
C   -5.3776807    0.7467251   -1.5259089  
C   -3.9292260    0.7279265   -1.8059379  
N   -3.3543288    1.5729377   -0.8848850  
C   -3.3460097   -0.0004262   -2.7913647  
C   -4.2020391   -0.8203941   -3.6324363  
O   -3.7724542   -1.5121265   -4.5463637  
C   -5.7389978   -0.8155427   -3.3539785  
O   -6.4697263   -1.5017111   -4.0557404  
C   -6.2499650    0.0103536   -2.2628044  
H   -6.4953656    1.8969410    0.0659373  
H   -4.0651605    2.7938489    0.7212545  
H   -2.3726197    1.7700214   -0.8181561  
C    0.0000000    0.0000000    0.0000000  
C    1.0662919   -0.0000103   -0.8334272  
C    0.4961868    0.0000066   -2.1718889  
C   -0.9663860   -0.0000849   -1.9540248  
N   -1.2632775   -0.0000084   -0.6828659  
C   -1.8985364   -0.0000515   -3.0477258  
C   -1.3925778    0.0004567   -4.3020543  
O   -2.1456385    0.0005412   -5.4151314  
C    0.0786229    0.0009326   -4.5544999  
O    0.4683756    0.0012594   -5.7221104  
C    1.0143162    0.0008443   -3.4159034  
H    2.1107195    0.0000631   -0.5721869  
H   -1.5042277    0.0009692   -6.1484420  
H    2.0724151    0.0013151   -3.6409746  
C    3.3321173   -0.0004715    2.8079335  
C    2.6974184   -0.0000116    4.0032312  
C    1.2800439    0.0002118    3.6752840  
C    1.2395035   -0.0000644    2.1971295  
N    2.4394063   -0.0005460    1.6831036  
C    0.0000000    0.0000000    1.4700000  
C   -1.1468701   -0.0000635    2.1869543  
O   -2.3742202   -0.0000073    1.6395491  
C   -1.1388768   -0.0001607    3.6796354  
O   -2.2206231   -0.0000905    4.2670412  
C    0.1454524   -0.0001816    4.4024240  
H    3.1367986    0.0000651    4.9860947  
H   -2.9844344   -0.0001026    2.3990168  
H    0.1083576   -0.0003682    5.4835595  
H    4.3940039   -0.0007619    2.6198634  
