60

C    3.8532605    2.1186812   -6.4086631  
C    4.0480115    1.6192301   -7.6755841  
C    5.1728633    0.7445861   -7.6099650  
C    5.6265509    0.7501193   -6.2660665  
N    4.8044344    1.5961403   -5.5639337  
C    6.7228594   -0.0028431   -5.8348544  
C    7.3728298   -0.7757012   -6.7774076  
O    8.4490753   -1.5306697   -6.4103480  
C    6.9353968   -0.7941666   -8.1231893  
O    7.6867463   -1.6130125   -8.9406909  
C    5.8541031   -0.0513933   -8.5493552  
H    3.4532520    1.8570033   -8.5408692  
H    4.8764215    1.7929356   -4.5820627  
H    8.7485466   -1.9853820   -7.2083571  
H    7.3253013   -1.5680882   -9.8311641  
H    5.5423653   -0.0855963   -9.5867199  
H    3.1119994    2.8074176   -6.0410600  
C    4.5679461   -0.0016854   -2.0086701  
C    5.6245801   -0.0018696   -1.1556757  
C    6.8197131   -0.0025284   -1.9659186  
C    6.3695110   -0.0026849   -3.3709484  
N    4.9943549   -0.0025528   -3.3281076  
C    7.1998311   -0.0028670   -4.4443876  
C    8.6325203   -0.0031378   -4.1995661  
O    9.4620769   -0.0033772   -5.0996411  
C    9.1316831   -0.0032304   -2.7194844  
O   10.3356443   -0.0037644   -2.5009918  
C    8.1403753   -0.0027354   -1.6465625  
H    5.5727016   -0.0017596   -0.0814682  
H    8.4942119   -0.0025976   -0.6245433  
H    4.3931135   -0.0010540   -4.1315711  
C    3.1301149   -0.0010311   -1.7028252  
C    2.5367768   -0.0002767   -0.4864665  
C    1.1089904    0.0001028   -0.7656183  
C    1.0177872   -0.0004148   -2.2415132  
N    2.1993578   -0.0011611   -2.7963820  
C   -0.2459209   -0.0002877   -2.9257118  
C   -1.3675319   -0.0000605   -2.1698524  
O   -2.6129313    0.0000867   -2.6748490  
C   -1.3083584    0.0000910   -0.6783232  
O   -2.3693261    0.0004206   -0.0541692  
C    0.0000000    0.0000000    0.0000000  
H    3.0096017   -0.0001007    0.4807525  
H   -0.2829630   -0.0004687   -4.0053125  
H   -3.1967441    0.0002094   -1.8949034  
C    2.4951002    2.0940188    2.9809380  
C    1.9440701    1.6314916    1.8291961  
C    0.8759964    0.7350050    2.2038498  
C    0.8497377    0.7130254    3.6788474  
N    1.8560616    1.5571714    4.0882609  
C   -0.0205033   -0.0168748    4.4215661  
C   -0.9962600   -0.8356168    3.7214979  
O   -1.8224391   -1.5286685    4.3006425  
C   -0.9864710   -0.8277881    2.1595606  
O   -1.8030528   -1.5133726    1.5592035  
C    0.0000000    0.0000000    1.4700000  
H    2.2509283    1.8888011    0.8310761  
H   -0.0229599   -0.0187323    5.5027230  
H    3.3143982    2.7817323    3.1139444  
H    2.0889452    1.7545833    5.0442112  
