60

C    2.5206406   -2.1081503   -7.5578941  
C    3.6005470   -2.9585922   -7.6128328  
C    4.0514340   -2.9721335   -8.9660201  
C    3.2010651   -2.1033508   -9.6967839  
N    2.2815977   -1.5969606   -8.8120440  
C    3.3530777   -1.8726554  -11.0673534  
C    4.3824699   -2.5307490  -11.7119038  
O    4.5761700   -2.3413887  -13.0496754  
C    5.2411894   -3.4018238  -11.0001130  
O    6.2175202   -3.9822783  -11.7831808  
C    5.0916459   -3.6300928   -9.6480571  
H    4.0119523   -3.5031604   -6.7802552  
H    1.5549734   -0.9430507   -9.0409547  
H    2.7082280   -1.2118230  -11.6300898  
H    5.3352031   -2.8861125  -13.2954609  
H    6.7535533   -4.5550001  -11.2261686  
H    5.7647563   -4.3029336   -9.1297084  
C    1.7744465   -2.1336763   -5.1326801  
C    1.6746904   -1.7240763   -6.4187031  
C    0.5405884   -0.8130125   -6.4352715  
C    0.0614875   -0.7888185   -5.0365362  
N    0.7809199   -1.5609931   -4.2683222  
C   -1.0641734    0.0073898   -4.6315339  
C   -1.6828409    0.7461570   -5.5806428  
O   -2.7449525    1.5348085   -5.3440242  
C   -1.2228399    0.7432047   -7.0006959  
O   -1.8334828    1.4397963   -7.8113105  
C   -0.0658190   -0.0818760   -7.3911693  
H   -2.9590927    1.9284666   -6.2090847  
H    0.2361356   -0.0563407   -8.4296297  
H    2.4922207   -2.8167590   -4.7070382  
C    1.1319248    0.0015675   -0.8009270  
C    0.7969916    0.0034959   -2.1169404  
C   -0.6453336    0.0035703   -2.1842672  
C   -1.1266831    0.0015415   -0.7896027  
N    0.0000000    0.0000000    0.0000000  
C   -2.4346129    0.0013924   -0.4276297  
C   -3.4350110    0.0031352   -1.4820184  
O   -4.6384610    0.0030897   -1.2583919  
C   -2.9478958    0.0050460   -2.9661075  
O   -3.7809377    0.0062160   -3.8623775  
C   -1.5113821    0.0053068   -3.2312125  
H    1.4821240    0.0045436   -2.9459192  
H   -2.7664565    0.0000185    0.6013447  
H    2.1104318    0.0009428   -0.3488058  
C    0.0000000    0.0000000    1.4700000  
C    1.0662921    0.0000102    2.3034270  
C    0.4961870   -0.0000064    3.6418889  
C   -0.9663858    0.0000850    3.4240247  
N   -1.2632773    0.0000084    2.1528658  
C   -1.8985362    0.0000517    4.5177257  
C   -1.3925775   -0.0004564    5.7720543  
O   -2.1456383   -0.0005410    6.8851312  
C    0.0786232   -0.0009323    6.0245000  
O    0.4683759   -0.0012588    7.1921102  
C    1.0143166   -0.0008442    4.8859032  
H    2.1107198   -0.0000632    2.0421868  
H   -2.9622183    0.0003270    4.3293377  
H   -1.5042274   -0.0009692    7.6184419  
H    2.0724152   -0.0013148    5.1109744  
