60

C    5.2104360   -4.5819047   -4.0747427  
C    4.3967642   -3.4735729   -4.0299581  
C    5.0964125   -2.4167053   -4.6842696  
C    6.3419764   -2.9439925   -5.1114258  
N    6.3795840   -4.2603568   -4.7236268  
C    7.2923652   -2.1796181   -5.7950068  
C    6.9795394   -0.8589721   -6.0523249  
O    7.8713156   -0.0676862   -6.7168675  
C    5.7420929   -0.3145387   -5.6338367  
O    5.5795150    1.0149656   -5.9644874  
C    4.8041502   -1.0679545   -4.9591845  
H    3.4196545   -3.4316511   -3.5799662  
H    7.1371507   -4.8955200   -4.8986690  
H    8.2435736   -2.5755242   -6.1231263  
H    7.4612525    0.8039525   -6.7900756  
H    4.7190105    1.3045068   -5.6462087  
H    5.0499096   -5.5759629   -3.6939035  
C    2.8912669   -0.6998116   -3.3332350  
C    1.7334695    0.0049281   -3.2500363  
C    1.6041098    0.7488997   -4.4807302  
C    2.7899379    0.4174237   -5.2935811  
N    3.5303610   -0.4649347   -4.5411804  
C    3.0393018    0.9187047   -6.5298007  
C    2.0755503    1.8468030   -7.0975613  
O    2.2101243    2.3528611   -8.2039495  
C    0.8125763    2.2121887   -6.2542377  
O   -0.0056409    2.9927353   -6.7217077  
C    0.6534232    1.6072170   -4.9341878  
H    3.9152830    0.6624806   -7.1093831  
H   -0.2239005    1.8652503   -4.3567400  
H    3.3315067   -1.3708305   -2.6136436  
C    1.1319246    0.0015678   -0.8009268  
C    0.7969914    0.0034958   -2.1169401  
C   -0.6453340    0.0035696   -2.1842669  
C   -1.1266832    0.0015410   -0.7896025  
N    0.0000000    0.0000000    0.0000000  
C   -2.4346129    0.0013913   -0.4276292  
C   -3.4350111    0.0031335   -1.4820181  
O   -4.6384614    0.0030875   -1.2583914  
C   -2.9478961    0.0050442   -2.9661074  
O   -3.7809382    0.0062135   -3.8623773  
C   -1.5113825    0.0053055   -3.2312122  
H   -2.7664565    0.0000174    0.6013448  
H   -1.1823533    0.0068381   -4.2614848  
H    2.1104316    0.0009435   -0.3488059  
C    2.5528530    2.1414826    2.8079335  
C    2.0663498    1.7338582    4.0032312  
C    0.9804344    0.8229586    3.6752840  
C    0.9495562    0.7966882    2.1971295  
N    1.8690446    1.5676019    1.6831036  
C    0.0000000    0.0000000    1.4700000  
C   -0.8785127   -0.7372425    2.1869543  
O   -1.8187535   -1.5261249    1.6395491  
C   -0.8723269   -0.7321790    3.6796354  
O   -1.7010379   -1.4274584    4.2670412  
C    0.1115397    0.0933559    4.4024240  
H    2.4028853    2.0163452    4.9860947  
H   -2.2861435   -1.9184361    2.3990168  
H    0.0832434    0.0693689    5.4835595  
H    3.3664920    2.8238276    2.6198634  
