64

C    0.1177590   -0.7041724   -5.1422752  
C    0.3059614   -0.4523679   -6.4815445  
C   -0.7176654    0.4566402   -6.8821589  
C   -1.5071137    0.7263232   -5.7350018  
N   -0.9736293    0.0040457   -4.6965764  
C   -2.6097128    1.5856279   -5.7606859  
C   -2.9208571    2.1838185   -6.9663120  
O   -3.9871537    3.0320123   -7.0475013  
C   -2.1454322    1.9270120   -8.1219868  
O   -2.5829252    2.5979312   -9.2452903  
C   -1.0577190    1.0791894   -8.0974447  
H   -3.2155199    1.7952116   -4.8898962  
H   -4.0265659    3.3340956   -7.9642669  
H   -2.0055193    2.3694991   -9.9801547  
H   -0.4827518    0.9016924   -8.9987689  
H    0.6748217   -1.3340379   -4.4700335  
C    1.1188645    0.0008222   -0.8003808  
C    0.0000000    0.0000000    0.0000000  
C   -1.1323859    0.0008892   -0.8673528  
C   -0.6382659    0.0019674   -2.1969282  
N    0.7324018    0.0038481   -2.1202241  
C   -1.4770911    0.0027311   -3.3154809  
C   -2.8395469    0.0020931   -3.0876860  
O   -3.7039197    0.0024412   -4.1440353  
C   -3.3517867    0.0013916   -1.7684331  
O   -4.7300493    0.0012348   -1.7073125  
C   -2.5248542    0.0009113   -0.6644820  
H    1.3576317   -0.0056164   -2.9057045  
H   -4.5940029    0.0021811   -3.7685135  
H   -4.9934598    0.0007244   -0.7819913  
H   -2.9462578    0.0005591    0.3339662  
H    2.1619896    0.0009361   -0.5342067  
C    2.0554341   -4.5109031   -6.6443841  
C    2.9656994   -4.2697899   -7.6472541  
C    2.8131731   -2.9037518   -8.0284040  
C    1.7865164   -2.3572435   -7.2164738  
N    1.3468337   -3.3603059   -6.3887280  
C    1.3690461   -1.0268058   -7.3186654  
C    1.9996736   -0.2335341   -8.2573913  
O    1.6313484    1.0731192   -8.3988416  
C    3.0259166   -0.7606600   -9.0770137  
O    3.5552573    0.1549872   -9.9628653  
C    3.4380860   -2.0731485   -8.9769323  
H    3.6541105   -4.9901943   -8.0548088  
H    0.6286590   -3.2660775   -5.6935105  
H    2.1881932    1.4396125   -9.0980351  
H    4.2409789   -0.2812680  -10.4777152  
H    4.2266474   -2.4487338   -9.6184805  
H    1.8545968   -5.4129710   -6.0922098  
C    0.8400945    0.7047457    2.2710304  
C    0.0000000    0.0000000    1.4700000  
C   -0.8844236   -0.7423113    2.3369512  
C   -0.4878984   -0.4098547    3.7186280  
N    0.5629682    0.4714286    3.6095011  
C   -1.0836927   -0.9095027    4.8308716  
C   -2.1891196   -1.8367527    4.6554461  
O   -2.7906899   -2.3413415    5.5944904  
C   -2.6257283   -2.2031529    3.2011665  
O   -3.5549479   -2.9829990    3.0410059  
C   -1.9068976   -1.5999348    2.0816745  
H   -0.7774656   -0.6525820    5.8354244  
H   -2.2155208   -1.8586617    1.0779135  
H    1.6384792    1.3747609    1.9961646  
H    1.0518368    0.8833920    4.3830260  
