64

C    3.3248309    1.0019794   -2.9707419  
C    4.3171847    1.8273395   -3.4466429  
C    3.7620853    2.5596925   -4.5375709  
C    2.4162880    2.1354709   -4.6817650  
N    2.1840425    1.1878619   -3.7159923  
C    1.5624041    2.6490165   -5.6625516  
C    2.0763695    3.6085065   -6.5130785  
O    1.2858803    4.1438477   -7.4885534  
C    3.4166974    4.0444021   -6.3852803  
O    3.7793073    5.0044027   -7.3073733  
C    4.2597240    3.5380182   -5.4181153  
H    5.3183677    1.8926410   -3.0563057  
H    0.5357515    2.3297783   -5.7777591  
H    1.8325269    4.7843146   -7.9620979  
H    4.6981326    5.2436398   -7.1520342  
H    3.3409473    0.2943667   -2.1595802  
C    0.0000000    0.0000000    0.0000000  
C    0.9239538    0.5033534   -0.8862337  
C    0.4321091    0.2346765   -2.1979126  
C   -0.8064419   -0.4401612   -2.0478675  
N   -1.0380301   -0.5680971   -0.7007906  
C   -1.5759412   -0.8596801   -3.1372081  
C   -1.0863568   -0.5928286   -4.4010418  
O   -1.7975576   -0.9801676   -5.4997571  
C    0.1475237    0.0790377   -4.5711959  
O    0.4989009    0.2701658   -5.8915548  
C    0.9073132    0.4929513   -3.4969889  
H    1.8403134    1.0017791   -0.6200562  
H   -1.8469743   -0.9972457   -0.2891814  
H   -2.5206556   -1.3745833   -3.0295503  
H   -1.2846727   -0.7010140   -6.2693586  
H    1.3435042    0.7301105   -5.9180046  
C    8.1209324    1.4376670   -4.6000350  
C    6.7930618    1.7266939   -4.8137876  
C    6.7047458    3.1313851   -5.0453984  
C    8.0218560    3.6508866   -4.9601697  
N    8.8569626    2.5961519   -4.6867643  
C    8.3128265    5.0070022   -5.1364490  
C    7.2549489    5.8540693   -5.4039341  
O    7.4827610    7.1876046   -5.5850391  
C    5.9337176    5.3547431   -5.4924781  
O    4.9902673    6.3239480   -5.7643001  
C    5.6458973    4.0170626   -5.3184183  
H    5.9870749    1.0130693   -4.8029009  
H    9.8534274    2.6573059   -4.5804660  
H    9.3144884    5.4092487   -5.0726115  
H    6.6219106    7.5907347   -5.7573390  
H    4.1260069    5.9034805   -5.8074821  
H    8.6010670    0.4970297   -4.3911543  
C    3.3321173   -0.0004715    2.8079335  
C    2.6974184   -0.0000116    4.0032312  
C    1.2800439    0.0002118    3.6752840  
C    1.2395035   -0.0000644    2.1971295  
N    2.4394063   -0.0005460    1.6831036  
C    0.0000000    0.0000000    1.4700000  
C   -1.1468701   -0.0000635    2.1869543  
O   -2.3742202   -0.0000073    1.6395491  
C   -1.1388768   -0.0001607    3.6796354  
O   -2.2206231   -0.0000905    4.2670412  
C    0.1454524   -0.0001816    4.4024240  
H    3.1367986    0.0000651    4.9860947  
H   -2.9844344   -0.0001026    2.3990168  
H    0.1083576   -0.0003682    5.4835595  
H    4.3940039   -0.0007619    2.6198634  
