62

C    5.0574960   -0.6157222   -8.7353340  
C    4.5354156    0.6282781   -8.4663312  
C    5.0542917    1.5195500   -9.4517261  
C    5.8940501    0.7561033  -10.3025373  
N    5.8751006   -0.5356837   -9.8382696  
C    6.5753298    1.3118725  -11.3896297  
C    6.4055488    2.6628876  -11.6222464  
O    7.0472065    3.2566216  -12.6704688  
C    5.5721590    3.4414473  -10.7843204  
O    5.5063652    4.7710772  -11.1463971  
C    4.8999676    2.8938889   -9.7115367  
H    6.3699796   -1.3070427  -10.2482464  
H    7.2169388    0.7354551  -12.0417651  
H    6.7950544    4.1890115  -12.6522328  
H    4.9237299    5.2255950  -10.5303177  
H    4.2686998    3.5153694   -9.0872448  
H    4.9124751   -1.5534777   -8.2268646  
C    4.4071362   -0.7184468   -4.2557783  
C    3.2973506   -0.0000934   -3.8752374  
C    2.8597412    0.7281416   -5.0210001  
C    3.7486366    0.4113760   -6.0799855  
N    4.6772282   -0.4679008   -5.5807786  
C    3.6188206    0.9508687   -7.3632956  
C    2.5724309    1.8258429   -7.5816216  
O    2.3991140    2.3814369   -8.8162436  
C    1.6752946    2.1545390   -6.5376283  
O    0.6861525    3.0400265   -6.9129342  
C    1.8029169    1.6229037   -5.2712938  
H    5.4295972   -0.8769507   -6.1048022  
H    1.6230841    2.9531877   -8.7518675  
H    0.1239561    3.2089557   -6.1506995  
H    1.1004520    1.8934780   -4.4916716  
H    5.0282469   -1.3886014   -3.6865038  
C    3.3321174    0.0004714   -1.3379332  
C    2.6974186    0.0000115   -2.5332308  
C    1.2800441   -0.0002119   -2.2052838  
C    1.2395035    0.0000643   -0.7271293  
N    2.4394063    0.0005458   -0.2131034  
C    0.0000000    0.0000000    0.0000000  
C   -1.1468701    0.0000634   -0.7169542  
O   -2.3742201    0.0000072   -0.1695492  
C   -1.1388767    0.0001606   -2.2096354  
O   -2.2206229    0.0000903   -2.7970413  
C    0.1454526    0.0001815   -2.9324239  
H   -2.9844344    0.0001023   -0.9290168  
H    0.1083580    0.0003680   -4.0135594  
H    4.3940040    0.0007617   -1.1498630  
C    0.8400945    0.7047457    2.2710304  
C    0.0000000    0.0000000    1.4700000  
C   -0.8844236   -0.7423113    2.3369512  
C   -0.4878984   -0.4098547    3.7186280  
N    0.5629682    0.4714286    3.6095011  
C   -1.0836927   -0.9095027    4.8308716  
C   -2.1891196   -1.8367527    4.6554461  
O   -2.7906899   -2.3413415    5.5944904  
C   -2.6257283   -2.2031529    3.2011665  
O   -3.5549479   -2.9829990    3.0410059  
C   -1.9068976   -1.5999348    2.0816745  
H   -0.7774656   -0.6525820    5.8354244  
H   -2.2155208   -1.8586617    1.0779135  
H    1.6384792    1.3747609    1.9961646  
H    1.0518368    0.8833920    4.3830260  
