64

C    1.3903762   -1.1035529   -7.2951099  
C    2.3848557   -1.9880601   -6.9470809  
C    3.1447587   -2.2452984   -8.1264774  
C    2.5622461   -1.4832199   -9.1713889  
N    1.4981947   -0.8032344   -8.6328441  
C    3.0553988   -1.4924230  -10.4796346  
C    4.1568406   -2.2851500  -10.7376802  
O    4.6793703   -2.3309864  -11.9977898  
C    4.7518138   -3.0529769   -9.7084742  
O    5.8409524   -3.7907457  -10.1241868  
C    4.2656730   -3.0445921   -8.4176904  
H    2.5424545   -2.3983504   -5.9643207  
H    0.8989509   -0.1724688   -9.1338655  
H    2.6158787   -0.9139838  -11.2805292  
H    5.4320276   -2.9353890  -11.9594534  
H    6.1831446   -4.2795765   -9.3694990  
H    4.7422876   -3.6433284   -7.6503369  
C    0.1164981   -0.7216418   -5.1523584  
C    0.3272668   -0.5036918   -6.4760461  
C   -0.6879583    0.4235573   -6.9169126  
C   -1.5133657    0.7301692   -5.7330703  
N   -0.9736297    0.0040464   -4.6965763  
C   -2.5790057    1.5704732   -5.7354628  
C   -2.9370203    2.2158103   -6.9876211  
O   -3.8800007    2.9891574   -7.0926146  
C   -2.0769064    1.9054818   -8.2539957  
O   -2.3689420    2.4426617   -9.3139079  
C   -0.9518081    0.9825226   -8.1269035  
H   -3.1711432    1.7818108   -4.8559063  
H   -0.3611563    0.7731166   -9.0083810  
H    0.6656998   -1.3515123   -4.4715281  
C    1.1188642    0.0008222   -0.8003808  
C    0.0000000    0.0000000    0.0000000  
C   -1.1323862    0.0008899   -0.8673528  
C   -0.6382663    0.0019679   -2.1969280  
N    0.7324016    0.0038481   -2.1202242  
C   -1.4770914    0.0027318   -3.3154808  
C   -2.8395473    0.0020945   -3.0876857  
O   -3.7039201    0.0024425   -4.1440349  
C   -3.3517868    0.0013931   -1.7684331  
O   -4.7300497    0.0012366   -1.7073121  
C   -2.5248543    0.0009123   -0.6644817  
H    1.3576314   -0.0056167   -2.9057046  
H   -4.5940032    0.0021826   -3.7685128  
H   -4.9934602    0.0007259   -0.7819913  
H   -2.9462577    0.0005603    0.3339659  
H    2.1619895    0.0009355   -0.5342068  
C    2.5285572    2.1210227    2.9438989  
C    1.9331703    1.6216660    4.0790748  
C    0.8903039    0.7472258    3.6520102  
C    0.8972198    0.7527806    2.2336141  
N    1.9028376    1.5986179    1.8362361  
C    0.0000000    0.0000000    1.4700000  
C   -0.9207814   -0.7726952    2.1506477  
O   -1.8198395   -1.5274828    1.4542253  
C   -0.9436862   -0.7911793    3.5655508  
O   -1.9197945   -1.6098497    4.0950179  
C   -0.0590329   -0.0485852    4.3195194  
H    2.2150357    1.8593692    5.0905303  
H    2.1533708    1.7953814    0.8841339  
H   -2.3621246   -1.9821033    2.1118817  
H   -1.8668290   -1.5649508    5.0545920  
H   -0.1007624   -0.0827977    5.4019087  
H    3.3491200    2.8096064    2.8367138  
