62

C    4.7405458   -1.0806248   -4.9792602  
C    5.5590639   -1.9666655   -4.3178776  
C    6.6677952   -2.2293782   -5.1759541  
C    6.4695821   -1.4689051   -6.3567669  
N    5.2892032   -0.7845672   -6.2050968  
C    7.3706324   -1.4832769   -7.4257337  
C    8.4923621   -2.2796177   -7.3002688  
O    9.4049356   -2.3305556   -8.3139886  
C    8.7075395   -3.0459180   -6.1300982  
O    9.8704219   -3.7877386   -6.1574873  
C    7.8189185   -3.0324350   -5.0752542  
H    5.3786025   -2.3744373   -3.3380054  
H    4.8934421   -0.1537449   -6.8784594  
H    7.2252493   -0.9060862   -8.3284616  
H   10.0996740   -2.9367890   -8.0257438  
H    9.9397587   -4.2752066   -5.3309460  
H    8.0103871   -3.6301186   -4.1917429  
C    2.8279729   -0.7071295   -3.3541666  
C    1.6707636   -0.0012343   -3.2725974  
C    1.5420221    0.7399978   -4.5050081  
C    2.7275721    0.4056552   -5.3170902  
N    3.4672606   -0.4755786   -4.5626515  
C    2.9773518    0.9038688   -6.5544653  
C    2.0143736    1.8314552   -7.1243701  
O    2.1493672    2.3348422   -8.2319256  
C    0.7517059    2.1998425   -6.2818939  
O   -0.0658610    2.9799880   -6.7511667  
C    0.5920508    1.5980569   -4.9604489  
H    3.8531180    0.6455753   -7.1334536  
H   -0.2850565    1.8581559   -4.3835990  
H    3.2676542   -1.3768498   -2.6330257  
C    1.0965514    0.0001358   -0.8010306  
C    0.0000000    0.0000000    0.0000000  
C   -1.1546565    0.0001470   -0.8669508  
C   -0.6372019    0.0003520   -2.2486278  
N    0.7342867    0.0007338   -2.1395012  
C   -1.4147744    0.0001354   -3.3608712  
C   -2.8576052   -0.0001047   -3.1854454  
O   -3.6427785   -0.0002490   -4.1244896  
C   -3.4275841   -0.0000727   -1.7311660  
O   -4.6406832    0.0000333   -1.5710049  
C   -2.4891868   -0.0001090   -0.6116739  
H   -1.0150456    0.0001617   -4.3654239  
H   -2.8919122   -0.0002919    0.3920871  
H    2.1388270    0.0000663   -0.5261650  
C    0.0000000    0.0000000    1.4700000  
C    1.0521667    0.0011902    2.3562342  
C    0.4917218    0.0011957    3.6679131  
C   -0.9187428   -0.0003148    3.5178682  
N   -1.1833171    0.0009411    2.1707914  
C   -1.7951701   -0.0010350    4.6072090  
C   -1.2375837   -0.0005224    5.8710424  
O   -2.0474215   -0.0015360    6.9697579  
C    0.1673580    0.0013566    6.0411963  
O    0.5673524    0.0020687    7.3615553  
C    1.0325770    0.0023412    4.9669890  
H    2.0953057    0.0030649    2.0900562  
H   -2.0989778   -0.0102372    1.7591824  
H   -2.8710934   -0.0020419    4.4995513  
H   -1.4634884   -0.0006497    7.7393593  
H    1.5290710    0.0033153    7.3880045  
H    2.1042148    0.0039609    5.1284455  
