62

C    7.6844310   -0.9854968   -4.1781229  
C    6.8282324    0.0896178   -4.2374497  
C    7.6166627    1.2321642   -4.5654222  
C    8.9577922    0.7889935   -4.6954130  
N    8.9639040   -0.5620476   -4.4519631  
C   10.0114566    1.6507279   -5.0147739  
C    9.7056439    2.9840772   -5.2067002  
O   10.6963647    3.8688728   -5.5207419  
C    8.3736783    3.4454780   -5.0810336  
O    8.2314165    4.7998460   -5.3019249  
C    7.3337524    2.5959685   -4.7657333  
H    9.7744833   -1.1536462   -4.4828257  
H   11.0357789    1.3192330   -5.1151642  
H   10.2729654    4.7326509   -5.6095359  
H    7.3028759    5.0291185   -5.1977623  
H    6.3237050    2.9783910   -4.6760927  
H    7.4838930   -2.0206222   -3.9607320  
C    4.3984119   -2.1246588   -1.2791004  
C    3.1669348   -1.6622720   -1.6817537  
C    3.3926768   -0.7743696   -2.7750378  
C    4.7931430   -0.7344303   -2.9964543  
N    5.3741074   -1.5640446   -2.0697194  
C    5.3781196    0.0421739   -4.0011813  
C    4.5339318    0.7918860   -4.7970809  
O    5.0522108    1.5677814   -5.7932673  
C    3.1339865    0.7655444   -4.5914709  
O    2.4286235    1.5665829   -5.4656243  
C    2.5562217   -0.0001543   -3.6003001  
H    2.2222228   -1.9309361   -1.2409228  
H    6.3582720   -1.7456270   -1.9895380  
H    4.3017817    2.0011078   -6.2202927  
H    1.4920370    1.4913025   -5.2588809  
H    4.6580916   -2.8088909   -0.4895741  
C    0.0000000    0.0000000    0.0000000  
C    1.0541688   -0.0001719   -0.8560391  
C    0.5103141   -0.0000449   -2.1935955  
C   -0.9576367    0.0002461   -2.0455733  
N   -1.2018459   -0.0001392   -0.6915970  
C   -1.8348306    0.0008319   -3.0810611  
C   -1.2972842    0.0009739   -4.4314605  
O   -2.0050664    0.0014267   -5.4301321  
C    0.2542628    0.0004190   -4.6117571  
O    0.7184677    0.0002263   -5.7439119  
C    1.0974556    0.0000880   -3.4189127  
H    2.0940752   -0.0005479   -0.5817978  
H   -2.9081050    0.0011669   -2.9507065  
H   -2.1128195    0.0014911   -0.2706793  
C    1.0672568    0.0000697    2.3021913  
C    0.0000000    0.0000000    1.4700000  
C   -1.1601224    0.0000736    2.3478473  
C   -0.5938729    0.0000769    3.7138435  
N    0.7113367    0.0001554    3.6934124  
C   -1.4286986    0.0001879    4.8835240  
C   -2.7683114    0.0006799    4.6970523  
O   -3.6653903    0.0008304    5.6976972  
C   -3.3702025    0.0010610    3.3310774  
O   -4.5974910    0.0013779    3.2362962  
C   -2.4926826    0.0008943    2.1470656  
H   -0.9878360   -0.0000190    5.8697035  
H   -4.5324246    0.0012261    5.2533954  
H   -2.9677772    0.0012974    1.1752040  
H    2.1134392    0.0000545    2.0405121  
