60

C   -0.3268396   -0.7292919   -9.5263583  
C   -0.7023856    0.5341389   -9.1324357  
C   -0.6090953    1.3735976  -10.2818730  
C   -0.1680539    0.5599723  -11.3567788  
N   -0.0044816   -0.7105468  -10.8631769  
C    0.0350322    1.0570699  -12.6476852  
C   -0.2118954    2.3999168  -12.8573693  
O   -0.0301156    2.9372917  -14.0988192  
C   -0.6520997    3.2279820  -11.7974894  
O   -0.8538105    4.5421368  -12.1658009  
C   -0.8524009    2.7383188  -10.5236627  
H    0.2910640   -1.5072856  -11.3978187  
H    0.3711938    0.4422193  -13.4711870  
H   -0.2550388    3.8740095  -14.0264835  
H   -1.1497614    5.0326348  -11.3928662  
H   -1.1899017    3.3968260   -9.7318672  
H   -0.2620473   -1.6420185   -8.9591805  
C    0.8834465   -0.6856113   -5.2614096  
C    0.0950446    0.0004351   -4.4015596  
C   -0.8231764    0.7463694   -5.2482896  
C   -0.4365567    0.3825625   -6.6284179  
N    0.5632291   -0.4566167   -6.6424233  
C   -1.1157948    0.9193863   -7.7753883  
C   -2.1351879    1.7802104   -7.5536826  
O   -2.8563098    2.3569973   -8.5300741  
C   -2.5493389    2.1666368   -6.1726267  
O   -3.4857795    2.9553980   -6.0455236  
C   -1.8368911    1.6024053   -5.0124607  
H   -3.5050417    2.9140315   -8.0631562  
H   -2.1675083    1.9073660   -4.0286305  
H    1.6932801   -1.3582325   -5.0274788  
C    3.3321173    0.0004713   -1.3379338  
C    2.6974181    0.0000116   -2.5332314  
C    1.2800438   -0.0002119   -2.2052841  
C    1.2395034    0.0000643   -0.7271299  
N    2.4394062    0.0005460   -0.2131038  
C    0.0000000    0.0000000    0.0000000  
C   -1.1468702    0.0000634   -0.7169543  
O   -2.3742203    0.0000074   -0.1695487  
C   -1.1388770    0.0001607   -2.2096355  
O   -2.2206234    0.0000905   -2.7970411  
C    0.1454522    0.0001815   -2.9324241  
H    3.1367984   -0.0000653   -3.5160950  
H   -2.9844346    0.0001026   -0.9290167  
H    4.3940038    0.0007618   -1.1498640  
C    0.0000000    0.0000000    1.4700000  
C    1.0541688    0.0001722    2.3260392  
C    0.5103138    0.0000454    3.6635956  
C   -0.9576371   -0.0002459    3.5155732  
N   -1.2018458    0.0001392    2.1615969  
C   -1.8348311   -0.0008317    4.5510609  
C   -1.2972847   -0.0009736    5.9014604  
O   -2.0050672   -0.0014265    6.9001319  
C    0.2542623   -0.0004184    6.0817573  
O    0.7184670   -0.0002256    7.2139121  
C    1.0974552   -0.0000873    4.8889129  
H    2.0940752    0.0005483    2.0517982  
H   -2.9081052   -0.0011668    4.4207061  
H    2.1707277    0.0000911    5.0223670  
H   -2.1128194   -0.0014912    1.7406791  
