62

C    3.4862011   -0.7130089   -6.0807876  
C    4.8366278   -0.4639767   -5.9983289  
C    5.1573420    0.4450207   -7.0497397  
C    3.9522069    0.7175543   -7.7463753  
N    2.9574919   -0.0030885   -7.1333220  
C    3.8928427    1.5776445   -8.8470605  
C    5.0714735    2.1737037   -9.2516848  
O    5.0702756    3.0225466  -10.3205532  
C    6.2840243    1.9140405   -8.5696928  
O    7.3707981    2.5830861   -9.0937567  
C    6.3433785    1.0654413   -7.4839290  
H    5.5081724   -0.8864646   -5.2706444  
H    2.9775373    1.7893969   -9.3823906  
H    5.9817095    3.3228594  -10.4317502  
H    8.1483287    2.3527735   -8.5760625  
H    7.2867645    0.8857392   -6.9817250  
H    2.8585759   -1.3419769   -5.4729684  
C   -0.8287671    0.0000935   -4.7555305  
C    0.4934746   -0.0006542   -5.1351926  
C    0.5171464   -0.0005536   -6.5613906  
C   -0.8317450    0.0005630   -7.0000446  
N   -1.6230471   -0.0010197   -5.8782354  
C   -1.1872830    0.0012650   -8.3522206  
C   -0.1624539    0.0011390   -9.2784518  
O   -0.4533747    0.0021534  -10.6120094  
C    1.1896019   -0.0003435   -8.8604089  
O    2.0936303   -0.0006992   -9.9025603  
C    1.5410844   -0.0013100   -7.5266236  
H    1.3371561   -0.0023098   -4.4664686  
H   -2.6269690    0.0098426   -5.8761615  
H   -2.2134625    0.0019725   -8.6930394  
H    0.3938023    0.0015662  -11.0762892  
H    2.9824063   -0.0016915   -9.5342131  
C    1.0672566   -0.0000698   -0.8321912  
C    0.0000000    0.0000000    0.0000000  
C   -1.1601226   -0.0000736   -0.8778472  
C   -0.5938732   -0.0000770   -2.2438435  
N    0.7113365   -0.0001555   -2.2234123  
C   -1.4286989   -0.0001880   -3.4135239  
C   -2.7683117   -0.0006800   -3.2270522  
O   -3.6653907   -0.0008306   -4.2276967  
C   -3.3702026   -0.0010611   -1.8610771  
O   -4.5974909   -0.0013781   -1.7662957  
C   -2.4926826   -0.0008944   -0.6770655  
H   -4.5324249   -0.0012263   -3.7833950  
H   -2.9677773   -0.0012975    0.2947963  
H    2.1134390   -0.0000546   -0.5705121  
C    2.4951002    2.0940188    2.9809380  
C    1.9440701    1.6314916    1.8291961  
C    0.8759964    0.7350050    2.2038498  
C    0.8497377    0.7130254    3.6788474  
N    1.8560616    1.5571714    4.0882609  
C   -0.0205033   -0.0168748    4.4215661  
C   -0.9962600   -0.8356168    3.7214979  
O   -1.8224391   -1.5286685    4.3006425  
C   -0.9864710   -0.8277881    2.1595606  
O   -1.8030528   -1.5133726    1.5592035  
C    0.0000000    0.0000000    1.4700000  
H    2.2509283    1.8888011    0.8310761  
H   -0.0229599   -0.0187323    5.5027230  
H    3.3143982    2.7817323    3.1139444  
H    2.0889452    1.7545833    5.0442112  
