60

C    3.4141167   -0.7052674   -7.4638277  
C    4.6477304   -0.4540757   -8.0184149  
C    4.4414272    0.4542304   -9.0987008  
C    3.0500833    0.7241359   -9.1556132  
N    2.4555246    0.0026601   -8.1503328  
C    2.4844257    1.5828975  -10.1028986  
C    3.3389252    2.1803058  -11.0090500  
O    2.8395784    3.0279443  -11.9551867  
C    4.7300068    1.9232652  -10.9685526  
O    5.4475311    2.5933849  -11.9378017  
C    5.2887005    1.0759782  -10.0344799  
H    5.5813056   -0.8747173   -7.6860109  
H    1.4247885    1.7926472  -10.1516442  
H    3.5943915    3.3295271  -12.4772693  
H    6.3770112    2.3648445  -11.8406431  
H    6.3577481    0.8982843  -10.0281246  
H    3.1420009   -1.3345124   -6.6337899  
C    0.0139742    0.0003878   -4.4216236  
C    1.0778911    0.0006074   -5.2580807  
C    0.5039807    0.0007581   -6.5949148  
C   -0.9579662    0.0004846   -6.3728913  
N   -1.2512406    0.0003476   -5.1008931  
C   -1.8932244    0.0005794   -7.4639363  
C   -1.3908360    0.0013206   -8.7196988  
O   -2.1470602    0.0014881   -9.8306290  
C    0.0796408    0.0019843   -8.9763293  
O    0.4660700    0.0025191  -10.1450435  
C    1.0185693    0.0018284   -7.8403984  
H    2.1230579    0.0007508   -4.9998126  
H   -2.9563663    0.0001675   -7.2725232  
H   -1.5077380    0.0020876  -10.5657615  
C    3.2798085    0.0005856   -1.4499646  
C    2.5571146    0.0005565   -2.5996553  
C    1.1637435    0.0001548   -2.2210360  
C    1.1336964   -0.0000200   -0.7459470  
N    2.4483515   -0.0001429   -0.3402716  
C    0.0000000    0.0000000    0.0000000  
C   -1.2757368   -0.0000187   -0.6964415  
O   -2.3524594   -0.0000640   -0.1142314  
C   -1.2676495   -0.0000873   -2.2584081  
O   -2.3355761   -0.0004101   -2.8557295  
C    0.0181563    0.0001759   -2.9516296  
H    2.9547358    0.0006075   -3.5989104  
H    4.3498547    0.0008611   -1.3200019  
H    2.7563628    0.0012823    0.6148064  
C    2.5128556    2.1077716    2.9199648  
C    1.9592212    1.6432552    4.0696553  
C    0.8915788    0.7479214    3.6910360  
C    0.8684491    0.7287414    2.2159470  
N    1.8754542    1.5738793    1.8102719  
C    0.0000000    0.0000000    1.4700000  
C   -0.9772830   -0.8200135    2.1664417  
O   -1.8021297   -1.5120829    1.5842315  
C   -0.9711318   -0.8147624    3.7284083  
O   -1.7894187   -1.5009653    4.3257297  
C    0.0140216    0.0115358    4.4216297  
H    2.2638494    1.8988021    5.0689105  
H    0.0117648    0.0094386    5.5031631  
H    3.3327358    2.7953732    2.7900019  
H    2.1123206    1.7707734    0.8551938  
