60

C    6.7550130    0.0027415   -6.5169157  
C    7.4515064    0.0028673   -5.3305921  
C    8.8388039    0.0032774   -5.6622646  
C    8.9283030    0.0036736   -7.0778627  
N    7.6449781    0.0013831   -7.5653953  
C   10.1496190    0.0044416   -7.7584315  
C   11.3015710    0.0051236   -6.9960774  
O   12.5209183    0.0062391   -7.6094314  
C   11.2328235    0.0043674   -5.5825393  
O   12.4670189    0.0047712   -4.9660142  
C   10.0283117    0.0033363   -4.9104694  
H    7.0135501    0.0015805   -4.3471362  
H    7.3933566    0.0116412   -8.5372812  
H   10.2245918    0.0046028   -8.8371268  
H   13.1812551    0.0062570   -6.9042923  
H   12.3312192    0.0042370   -4.0135639  
H   10.0070917    0.0025930   -3.8269444  
C    3.1006060    0.0006268   -3.9654947  
C    4.3994796    0.0008536   -4.3456353  
C    4.3646299    0.0008284   -5.8000373  
C    2.9251426    0.0004561   -6.1383563  
N    2.1793122    0.0004172   -5.0670359  
C    2.4634072    0.0003690   -7.4991968  
C    3.3972679    0.0010304   -8.4775822  
O    3.1090960    0.0010285   -9.7902116  
C    4.8575579    0.0017905   -8.1682053  
O    5.6513847    0.0022448   -9.1089813  
C    5.3059853    0.0018213   -6.7643398  
H    5.2733153    0.0011079   -3.7167578  
H    1.4054437   -0.0001122   -7.7174239  
H    3.9761796    0.0016104  -10.2344188  
C    3.2798085    0.0005859   -1.4499648  
C    2.5571146    0.0005569   -2.5996553  
C    1.1637437    0.0001551   -2.2210359  
C    1.1336966   -0.0000198   -0.7459471  
N    2.4483513   -0.0001427   -0.3402720  
C    0.0000000    0.0000000    0.0000000  
C   -1.2757366   -0.0000185   -0.6964416  
O   -2.3524595   -0.0000640   -0.1142313  
C   -1.2676493   -0.0000870   -2.2584084  
O   -2.3355759   -0.0004098   -2.8557296  
C    0.0181563    0.0001763   -2.9516295  
H    0.0150795    0.0003323   -4.0331630  
H    4.3498549    0.0008614   -1.3200020  
H    2.7563627    0.0012824    0.6148062  
C    0.0000000    0.0000000    1.4700000  
C    1.0662921    0.0000102    2.3034270  
C    0.4961870   -0.0000064    3.6418889  
C   -0.9663858    0.0000850    3.4240247  
N   -1.2632773    0.0000084    2.1528658  
C   -1.8985362    0.0000517    4.5177257  
C   -1.3925775   -0.0004564    5.7720543  
O   -2.1456383   -0.0005410    6.8851312  
C    0.0786232   -0.0009323    6.0245000  
O    0.4683759   -0.0012588    7.1921102  
C    1.0143166   -0.0008442    4.8859032  
H    2.1107198   -0.0000632    2.0421868  
H   -2.9622183    0.0003270    4.3293377  
H   -1.5042274   -0.0009692    7.6184419  
H    2.0724152   -0.0013148    5.1109744  
