60

C    3.4087101   -0.7064436   -3.0324172  
C    4.6439231   -0.4554585   -3.5835292  
C    4.4407869    0.4527126   -4.6645291  
C    3.0496381    0.7227526   -4.7254378  
N    2.4521480    0.0014830   -3.7217483  
C    2.4867659    1.5814353   -5.6744523  
C    3.3439020    2.1786251   -6.5782559  
O    2.8473359    3.0261783   -7.5259307  
C    4.7348360    1.9214476   -6.5337634  
O    5.4551834    2.5913534   -7.5010634  
C    5.2907831    1.0742382   -5.5979831  
H    5.5765049   -0.8761479   -3.2484102  
H    1.4272937    1.7912865   -5.7262423  
H    3.6036617    3.3276082   -8.0459079  
H    6.3843599    2.3627319   -7.4012289  
H    6.3597902    0.8964358   -5.5885603  
H    3.1341695   -1.3355410   -2.2030664  
C    0.0000000    0.0000000    0.0000000  
C    1.0662921   -0.0000106   -0.8334269  
C    0.4961870    0.0000059   -2.1718889  
C   -0.9663856   -0.0000854   -1.9540246  
N   -1.2632773   -0.0000087   -0.6828657  
C   -1.8985362   -0.0000522   -3.0477258  
C   -1.3925773    0.0004558   -4.3020541  
O   -2.1456384    0.0005402   -5.4151311  
C    0.0786236    0.0009315   -4.5544999  
O    0.4683762    0.0012578   -5.7221098  
C    1.0143167    0.0008435   -3.4159031  
H    2.1107198    0.0000631   -0.5721865  
H   -1.5042271    0.0009682   -6.1484419  
C   -3.9884050    0.7039230   -1.8242583  
C   -3.3460094   -0.0004268   -2.7913647  
C   -4.3537580   -0.7427571   -3.5112426  
C   -5.6451795   -0.4107432   -2.8797465  
N   -5.3546446    0.4703280   -1.8637777  
C   -6.8441771   -0.9105386   -3.2725752  
C   -6.8640253   -1.8374916   -4.3919051  
O   -7.8934842   -2.3421824   -4.8206280  
C   -5.5080965   -2.2034215   -5.0755414  
O   -5.5122771   -2.9830147   -6.0186622  
C   -4.2805269   -1.6000822   -4.5627976  
H   -7.7799855   -0.6539438   -2.7957823  
H   -3.3459154   -1.8584828   -5.0418124  
H   -3.5786579    1.3738258   -1.0858633  
H   -6.0311467    0.8819827   -1.2473908  
C    3.2798086   -0.0005857    2.9199648  
C    2.5571146   -0.0005566    4.0696553  
C    1.1637436   -0.0001548    3.6910360  
C    1.1336965    0.0000200    2.2159470  
N    2.4483514    0.0001428    1.8102719  
C    0.0000000    0.0000000    1.4700000  
C   -1.2757367    0.0000186    2.1664417  
O   -2.3524596    0.0000640    1.5842315  
C   -1.2676493    0.0000873    3.7284083  
O   -2.3355761    0.0004100    4.3257297  
C    0.0181563   -0.0001760    4.4216297  
H    2.9547357   -0.0006076    5.0689105  
H    0.0150794   -0.0003319    5.5031631  
H    4.3498549   -0.0008612    2.7900019  
H    2.7563627   -0.0012824    0.8551938  
