60

C    4.7720940   -4.2791947    1.0673293  
C    4.3953256   -3.4730221    0.0182350  
C    5.4062272   -3.5906598   -0.9811843  
C    6.3826295   -4.4901538   -0.4817108  
N    5.9676906   -4.8878730    0.7649904  
C    7.5263915   -4.8425349   -1.2045009  
C    7.6872615   -4.2768059   -2.4544007  
O    8.7857856   -4.5865999   -3.2029229  
C    6.7242646   -3.3769347   -2.9698483  
O    7.0276882   -2.8986345   -4.2278257  
C    5.5958116   -3.0286412   -2.2572396  
H    3.5023400   -2.8730187   -0.0213297  
H    6.4538563   -5.5344622    1.3595859  
H    8.2743647   -5.5273848   -0.8293754  
H    8.7029124   -4.0905434   -4.0277413  
H    6.3275969   -2.2983907   -4.5020222  
H    4.2832926   -4.4670671    2.0079335  
C    4.6190968   -2.0899184   -2.8279655  
C    3.4606682   -1.6280054   -2.2906065  
C    2.8761398   -0.7301691   -3.2586208  
C    3.7955627   -0.7067279   -4.4122682  
N    4.8319959   -1.5514027   -4.0878919  
C    3.5979907    0.0246981   -5.5381832  
C    2.3999524    0.8436574   -5.6190798  
O    2.1321338    1.5380351   -6.5908892  
C    1.4124494    0.8342976   -4.4088910  
O    0.4006151    1.5200499   -4.4654206  
C    1.7334695    0.0049281   -3.2500363  
H    3.0613138   -1.8865706   -1.3260995  
H    4.2848589    0.0276115   -6.3731168  
H    5.6204858   -1.7480977   -4.6766556  
C    1.1319246    0.0015678   -0.8009268  
C    0.7969914    0.0034958   -2.1169401  
C   -0.6453340    0.0035696   -2.1842669  
C   -1.1266832    0.0015410   -0.7896025  
N    0.0000000    0.0000000    0.0000000  
C   -2.4346129    0.0013913   -0.4276292  
C   -3.4350111    0.0031335   -1.4820181  
O   -4.6384614    0.0030875   -1.2583914  
C   -2.9478961    0.0050442   -2.9661074  
O   -3.7809382    0.0062135   -3.8623773  
C   -1.5113825    0.0053055   -3.2312122  
H   -2.7664565    0.0000174    0.6013448  
H   -1.1823533    0.0068381   -4.2614848  
H    2.1104316    0.0009435   -0.3488059  
C    2.5528530    2.1414826    2.8079335  
C    2.0663498    1.7338582    4.0032312  
C    0.9804344    0.8229586    3.6752840  
C    0.9495562    0.7966882    2.1971295  
N    1.8690446    1.5676019    1.6831036  
C    0.0000000    0.0000000    1.4700000  
C   -0.8785127   -0.7372425    2.1869543  
O   -1.8187535   -1.5261249    1.6395491  
C   -0.8723269   -0.7321790    3.6796354  
O   -1.7010379   -1.4274584    4.2670412  
C    0.1115397    0.0933559    4.4024240  
H    2.4028853    2.0163452    4.9860947  
H   -2.2861435   -1.9184361    2.3990168  
H    0.0832434    0.0693689    5.4835595  
H    3.3664920    2.8238276    2.6198634  
