64

C    0.1177593   -0.7041729   -5.1422752  
C    0.3059621   -0.4523686   -6.4815442  
C   -0.7176648    0.4566396   -6.8821590  
C   -1.5071132    0.7263226   -5.7350021  
N   -0.9736290    0.0040453   -4.6965765  
C   -2.6097123    1.5856274   -5.7606864  
C   -2.9208562    2.1838179   -6.9663129  
O   -3.9871529    3.0320119   -7.0475024  
C   -2.1454315    1.9270114   -8.1219873  
O   -2.5829240    2.5979303   -9.2452908  
C   -1.0577180    1.0791885   -8.0974451  
H    1.0845206   -0.8730629   -7.0946165  
H   -3.2155191    1.7952110   -4.8898970  
H   -4.0265647    3.3340946   -7.9642674  
H   -2.0055182    2.3694982   -9.9801553  
H    0.6748221   -1.3340384   -4.4700332  
C    1.1188645    0.0008220   -0.8003804  
C    0.0000000    0.0000000    0.0000000  
C   -1.1323860    0.0008895   -0.8673535  
C   -0.6382657    0.0019672   -2.1969285  
N    0.7324021    0.0038478   -2.1202242  
C   -1.4770910    0.0027308   -3.3154809  
C   -2.8395468    0.0020930   -3.0876863  
O   -3.7039195    0.0024408   -4.1440354  
C   -3.3517864    0.0013917   -1.7684338  
O   -4.7300494    0.0012352   -1.7073128  
C   -2.5248542    0.0009113   -0.6644820  
H    1.3576321   -0.0056170   -2.9057044  
H   -4.5940027    0.0021808   -3.7685137  
H   -4.9934599    0.0007245   -0.7819923  
H   -2.9462577    0.0005594    0.3339655  
H    2.1619897    0.0009359   -0.5342067  
C    0.7670842   -2.5950018   -9.7495048  
C    1.3073897   -2.0293667  -10.8811379  
C    0.9721644   -0.6431805  -10.8544707  
C    0.2205097   -0.4194120   -9.6725787  
N    0.1128866   -1.6255821   -9.0259033  
C   -0.2778197    0.8384275   -9.3200211  
C   -0.0122662    1.8895814  -10.1760205  
O   -0.4748616    3.1390947   -9.8798184  
C    0.7355857    1.6861972  -11.3601535  
O    0.9149190    2.8316215  -12.1079414  
C    1.2272793    0.4455283  -11.7087269  
H    1.8725666   -2.5518265  -11.6338690  
H   -0.3582205   -1.7755986   -8.1520987  
H   -0.1824936    3.7157556  -10.5976268  
H    1.4292423    2.6072342  -12.8894304  
H    1.7967229    0.3203207  -12.6222555  
H    0.7953826   -3.6135289   -9.4019976  
C    2.5128556    2.1077716    2.9199648  
C    1.9592212    1.6432552    4.0696553  
C    0.8915788    0.7479214    3.6910360  
C    0.8684491    0.7287414    2.2159470  
N    1.8754542    1.5738793    1.8102719  
C    0.0000000    0.0000000    1.4700000  
C   -0.9772830   -0.8200135    2.1664417  
O   -1.8021297   -1.5120829    1.5842315  
C   -0.9711318   -0.8147624    3.7284083  
O   -1.7894187   -1.5009653    4.3257297  
C    0.0140216    0.0115358    4.4216297  
H    2.2638494    1.8988021    5.0689105  
H    0.0117648    0.0094386    5.5031631  
H    3.3327358    2.7953732    2.7900019  
H    2.1123206    1.7707734    0.8551938  
