62

C    2.2112194   -4.6220306   -7.3043488  
C    1.6288502   -3.5153285   -6.7311780  
C    1.7176083   -2.4575878   -7.6840195  
C    2.3691772   -2.9826877   -8.8292941  
N    2.6569194   -4.2986423   -8.5645550  
C    2.6270511   -2.2169512   -9.9703191  
C    2.2194783   -0.8971676   -9.9550307  
O    2.4459833   -0.1046234  -11.0429574  
C    1.5682158   -0.3549121   -8.8216152  
O    1.2246472    0.9739750   -8.9607648  
C    1.3137322   -1.1096722   -7.6955144  
H    1.1945798   -3.4750242   -5.7469130  
H    3.1099984   -4.9324021   -9.1978390  
H    3.1233595   -2.6111881  -10.8463653  
H    2.0884080    0.7661117  -10.8256430  
H    0.7900112    1.2620248   -8.1522343  
H    2.3452106   -5.6160909   -6.9133901  
C    0.9350738   -0.7259371   -5.2319057  
C    0.6347946   -0.5089057   -6.5383532  
C   -0.4715643    0.4184294   -6.5675990  
C   -0.7935155    0.7260931   -5.1610139  
N    0.0950446    0.0004351   -4.4015596  
C   -1.7824171    1.5667801   -4.7647528  
C   -2.5832566    2.2114497   -5.7921729  
O   -3.4968565    2.9850705   -5.5369346  
C   -2.2600339    1.9000041   -7.2882794  
O   -2.9277087    2.4366153   -8.1620754  
C   -1.1693081    0.9767197   -7.5911235  
H   -2.0020411    1.7788917   -3.7276008  
H   -0.9517810    0.7665393   -8.6295016  
H    1.6992217   -1.3555725   -4.8058458  
C    3.3321173    0.0004713   -1.3379338  
C    2.6974181    0.0000116   -2.5332314  
C    1.2800438   -0.0002119   -2.2052841  
C    1.2395034    0.0000643   -0.7271299  
N    2.4394062    0.0005460   -0.2131038  
C    0.0000000    0.0000000    0.0000000  
C   -1.1468702    0.0000634   -0.7169543  
O   -2.3742203    0.0000074   -0.1695487  
C   -1.1388770    0.0001607   -2.2096355  
O   -2.2206234    0.0000905   -2.7970411  
C    0.1454522    0.0001815   -2.9324241  
H    3.1367984   -0.0000653   -3.5160950  
H   -2.9844346    0.0001026   -0.9290167  
H    4.3940038    0.0007618   -1.1498640  
C    0.8676693    0.7151171    2.2619005  
C    0.5875920    0.4624972    3.5848544  
C   -0.5048400   -0.4542819    3.6114698  
C   -0.8517165   -0.7276451    2.2635546  
N    0.0000000    0.0000000    1.4700000  
C   -1.8902865   -1.5946756    1.9108239  
C   -2.5912627   -2.1969500    2.9375057  
O   -3.6148162   -3.0527051    2.6493466  
C   -2.2603868   -1.9365747    4.2886322  
O   -3.0513550   -2.6123276    5.1947621  
C   -1.2361111   -1.0811317    4.6373480  
H    1.1060808    0.8876438    4.4271209  
H   -2.1597133   -1.8070987    0.8854031  
H   -3.9636755   -3.3565188    3.4974381  
H   -2.7621927   -2.3810384    6.0827341  
H   -1.0058879   -0.9010589    5.6809233  
H    1.6167816    1.3499334    1.8205408  
