62

C    6.7719812    0.0228172   -4.6650012  
C    7.8091142   -0.6527108   -4.0645971  
C    9.0004448   -0.2895330   -4.7598916  
C    8.6248932    0.6182050   -5.7830723  
N    7.2648030    0.7844584   -5.6986253  
C    9.5476380    1.1846304   -6.6676588  
C   10.8736956    0.8284418   -6.5164050  
O   11.8164583    1.3522966   -7.3529386  
C   11.2679603   -0.0759841   -5.5018183  
O   12.6236586   -0.3308749   -5.4805278  
C   10.3581549   -0.6353728   -4.6289692  
H    7.7180463   -1.3254401   -3.2290525  
H    6.7151861    1.3808870   -6.2903810  
H    9.2677898    1.8769701   -7.4496775  
H   12.6635653    0.9778167   -7.0782740  
H   12.8055366   -0.9501412   -4.7670621  
H   10.6898211   -1.3253101   -3.8618563  
C    4.4498803   -2.0927814   -1.5965442  
C    3.2085346   -1.6305559   -1.8956810  
C    3.3524547   -0.7335190   -3.0179322  
C    4.7897030   -0.7108880   -3.3504911  
N    5.3998262   -1.5552207   -2.4517466  
C    5.3348522    0.0196507   -4.3558917  
C    4.4468030    0.8384415   -5.1642761  
O    4.8411378    1.5320449   -6.0925628  
C    2.9210858    0.8299298   -4.8297316  
O    2.1637303    1.5155489   -5.5032295  
C    2.4521483    0.0014840   -3.7217481  
H    2.2961914   -1.8884108   -1.3879858  
H    4.7506785   -2.7807339   -0.8231546  
H    6.3833793   -1.7523009   -2.4229400  
C    0.0000000    0.0000000    0.0000000  
C    1.0662923   -0.0000101   -0.8334270  
C    0.4961873    0.0000065   -2.1718887  
C   -0.9663854   -0.0000848   -1.9540250  
N   -1.2632773   -0.0000083   -0.6828660  
C   -1.8985359   -0.0000514   -3.0477261  
C   -1.3925770    0.0004566   -4.3020547  
O   -2.1456378    0.0005414   -5.4151314  
C    0.0786240    0.0009326   -4.5545000  
O    0.4683767    0.0012591   -5.7221100  
C    1.0143171    0.0008444   -3.4159031  
H    2.1107200    0.0000633   -0.5721865  
H   -2.9622181   -0.0003268   -2.8593381  
H   -1.5042265    0.0009697   -6.1484419  
C    3.3041272   -0.0001177    3.0120429  
C    2.5845372    0.0004780    1.8395852  
C    1.2040006    0.0000008    2.1983588  
C    1.1422373   -0.0006037    3.6154372  
N    2.4348639   -0.0026109    4.0777464  
C   -0.0655181   -0.0008797    4.3197917  
C   -1.2321768   -0.0002324    3.5801400  
O   -2.4392816   -0.0001146    4.2172520  
C   -1.1911209    0.0000007    2.1655264  
O   -2.4371527    0.0002320    1.5732860  
C    0.0000000    0.0000000    1.4700000  
H    3.0031534    0.0000661    0.8477417  
H    2.7054629    0.0071099    5.0445261  
H   -0.1193549   -0.0014844    5.3997470  
H   -3.1132988    0.0000648    3.5251786  
H   -2.3200282    0.0004071    0.6183591  
H    4.3686625   -0.0004071    3.1724291  
