60

C    1.8195528   -3.2277076  -10.0085260  
C    2.1105020   -2.4605340  -11.1127268  
C    1.7320626   -1.1211483  -10.8005914  
C    1.2122619   -1.1323191   -9.4808915  
N    1.2781488   -2.4272905   -9.0299741  
C    0.7413083    0.0196743   -8.8437866  
C    0.7963697    1.2045825   -9.5516980  
O    0.3500040    2.3594117   -8.9771192  
C    1.3112065    1.2359279  -10.8695668  
O    1.2986958    2.4913508  -11.4414929  
C    1.7757368    0.0997976  -11.4988092  
H    2.5413630   -2.8220240  -12.0307017  
H    0.9892930   -2.7406981   -8.1209540  
H    0.4765633    3.0573536   -9.6329582  
H    1.6623995    2.4245860  -12.3296735  
H    2.1643073    0.1547115  -12.5089947  
H    1.9540670   -4.2827707   -9.8420745  
C    2.0060354   -2.0933382   -5.2079950  
C    1.0681400   -1.6309435   -4.3416125  
C    0.2140994   -0.7346501   -5.0846522  
C    0.7350366   -0.7126398   -6.4648448  
N    1.8215800   -1.5565851   -6.4731480  
C    0.2009231    0.0171137   -7.4767177  
C   -0.9646761    0.8356538   -7.1870525  
O   -1.5183198    1.5285630   -8.0306496  
C   -1.5330619    0.8277889   -5.7321707  
O   -2.5138749    1.5132042   -5.4762943  
C   -0.8712826    0.0001710   -4.7267111  
H    0.9842756   -1.8882192   -3.3007524  
H    2.8165825   -2.7808931   -5.0286319  
H    2.3914344   -1.7539297   -7.2752498  
C    1.0965514    0.0001359   -0.8010305  
C    0.0000000    0.0000000    0.0000000  
C   -1.1546563    0.0001470   -0.8669513  
C   -0.6372014    0.0003519   -2.2486282  
N    0.7342871    0.0007337   -2.1395014  
C   -1.4147739    0.0001352   -3.3608717  
C   -2.8576049   -0.0001048   -3.1854462  
O   -3.6427779   -0.0002494   -4.1244907  
C   -3.4275840   -0.0000725   -1.7311666  
O   -4.6406831    0.0000333   -1.5710060  
C   -2.4891867   -0.0001091   -0.6116744  
H   -2.8919122   -0.0002918    0.3920866  
H    2.1388272    0.0000663   -0.5261648  
H    1.3735872   -0.0006099   -2.9130262  
C    0.0000000    0.0000000    1.4700000  
C    1.0662921    0.0000102    2.3034270  
C    0.4961870   -0.0000064    3.6418889  
C   -0.9663858    0.0000850    3.4240247  
N   -1.2632773    0.0000084    2.1528658  
C   -1.8985362    0.0000517    4.5177257  
C   -1.3925775   -0.0004564    5.7720543  
O   -2.1456383   -0.0005410    6.8851312  
C    0.0786232   -0.0009323    6.0245000  
O    0.4683759   -0.0012588    7.1921102  
C    1.0143166   -0.0008442    4.8859032  
H    2.1107198   -0.0000632    2.0421868  
H   -2.9622183    0.0003270    4.3293377  
H   -1.5042274   -0.0009692    7.6184419  
H    2.0724152   -0.0013148    5.1109744  
