60

C    1.7876648   -4.2349811    1.5778940  
C    2.7891853   -4.8979242    2.2486636  
C    4.0212566   -4.5178081    1.6386528  
C    3.7060990   -3.6131835    0.5925867  
N    2.3413479   -3.4649965    0.5819494  
C    4.6807935   -3.0330185   -0.2248289  
C    5.9976503   -3.3720117    0.0183767  
O    6.9895201   -2.8342399   -0.7497446  
C    6.3320297   -4.2730624    1.0571807  
O    7.6861894   -4.5101344    1.1729072  
C    5.3709694   -4.8459989    1.8637979  
H    2.6488970   -5.5733508    3.0751699  
H    1.8265538   -2.8747479   -0.0462026  
H    7.8202587   -3.1980539   -0.4169132  
H    7.8259748   -5.1282838    1.8967549  
H    5.6573544   -5.5329427    2.6515617  
H    0.7220692   -4.2515688    1.7301735  
C    4.3630985   -2.0949034   -1.3110658  
C    3.1522516   -1.6320801   -1.7156888  
C    3.3924174   -0.7354490   -2.8216762  
C    4.8529073   -0.7137072   -3.0297350  
N    5.3832068   -1.5581148   -2.0817647  
C    5.4827044    0.0162383   -3.9848463  
C    4.6677385    0.8352842   -4.8666226  
O    5.1406420    1.5283997   -5.7578315  
C    3.1189441    0.8277105   -4.6641776  
O    2.4225428    1.5135518   -5.4003219  
C    2.5562217   -0.0001543   -3.6003001  
H    2.1995754   -1.8892845   -1.2880585  
H    6.5552965    0.0179184   -4.1206912  
H    6.3605512   -1.7557290   -1.9686522  
C    0.0000000    0.0000000    0.0000000  
C    1.0541688   -0.0001719   -0.8560391  
C    0.5103141   -0.0000449   -2.1935955  
C   -0.9576367    0.0002461   -2.0455733  
N   -1.2018459   -0.0001392   -0.6915970  
C   -1.8348306    0.0008319   -3.0810611  
C   -1.2972842    0.0009739   -4.4314605  
O   -2.0050664    0.0014267   -5.4301321  
C    0.2542628    0.0004190   -4.6117571  
O    0.7184677    0.0002263   -5.7439119  
C    1.0974556    0.0000880   -3.4189127  
H    2.0940752   -0.0005479   -0.5817978  
H   -2.9081050    0.0011669   -2.9507065  
H   -2.1128195    0.0014911   -0.2706793  
C    3.2798086   -0.0005857    2.9199648  
C    2.5571146   -0.0005566    4.0696553  
C    1.1637436   -0.0001548    3.6910360  
C    1.1336965    0.0000200    2.2159470  
N    2.4483514    0.0001428    1.8102719  
C    0.0000000    0.0000000    1.4700000  
C   -1.2757367    0.0000186    2.1664417  
O   -2.3524596    0.0000640    1.5842315  
C   -1.2676493    0.0000873    3.7284083  
O   -2.3355761    0.0004100    4.3257297  
C    0.0181563   -0.0001760    4.4216297  
H    2.9547357   -0.0006076    5.0689105  
H    0.0150794   -0.0003319    5.5031631  
H    4.3498549   -0.0008612    2.7900019  
H    2.7563627   -0.0012824    0.8551938  
