64

C    7.2165414    0.0063485   -5.6727943  
C    6.4840864    0.0086069   -6.8372561  
C    7.4172201    0.0104507   -7.9160786  
C    8.7150714    0.0089090   -7.3437974  
N    8.5570268    0.0083791   -5.9801125  
C    9.8815098    0.0097654   -8.1146481  
C    9.7351072    0.0119160   -9.4882334  
O   10.8409709    0.0124836  -10.2882841  
C    8.4486384    0.0138539  -10.0779871  
O    8.4695553    0.0162993  -11.4574433  
C    7.2974827    0.0132837   -9.3181414  
H    5.4094254    0.0099957   -6.9012494  
H    9.3039402   -0.0032434   -5.3093173  
H   10.8736007    0.0087440   -7.6845798  
H   10.5190233    0.0143376  -11.1991141  
H    7.5615296    0.0174648  -11.7753932  
H    6.3258512    0.0149911   -9.7981485  
C    6.7690605    0.0043645   -4.2725595  
C    5.4996708    0.0031000   -3.8032758  
C    5.6352800    0.0013795   -2.3547914  
C    7.0947609    0.0017598   -2.1170954  
N    7.7645141    0.0035881   -3.2375489  
C    7.6497402    0.0004304   -0.7915457  
C    6.7859648   -0.0008158    0.2492353  
O    7.1644558   -0.0021419    1.5387252  
C    5.3077385   -0.0008593    0.0418536  
O    4.5810519   -0.0021559    1.0354057  
C    4.7630507    0.0004755   -1.3275395  
H    4.5843340    0.0033991   -4.3700509  
H    8.7202891    0.0005386   -0.6471984  
H    6.3302588   -0.0027813    2.0419826  
C    3.3003548    0.0005276   -1.4738982  
C    2.5232817    0.0003497   -2.6090743  
C    1.1623204   -0.0001319   -2.1820101  
C    1.1711886    0.0000583   -0.7636140  
N    2.4852302   -0.0014919   -0.3662356  
C    0.0000000    0.0000000    0.0000000  
C   -1.2020379    0.0000520   -0.6806479  
O   -2.3759249    0.0003495    0.0157742  
C   -1.2314652   -0.0005112   -2.0955511  
O   -2.5054384   -0.0008036   -2.6250184  
C   -0.0764510   -0.0007271   -2.8495195  
H    2.8919962   -0.0005619   -3.6205297  
H    2.8036267    0.0088181    0.5858667  
H   -3.0835636    0.0000348   -0.6418823  
H   -2.4360038   -0.0011526   -3.5845925  
H   -0.1304090   -0.0013420   -3.9319089  
C    2.5285572    2.1210227    2.9438989  
C    1.9331703    1.6216660    4.0790748  
C    0.8903039    0.7472258    3.6520102  
C    0.8972198    0.7527806    2.2336141  
N    1.9028376    1.5986179    1.8362361  
C    0.0000000    0.0000000    1.4700000  
C   -0.9207814   -0.7726952    2.1506477  
O   -1.8198395   -1.5274828    1.4542253  
C   -0.9436862   -0.7911793    3.5655508  
O   -1.9197945   -1.6098497    4.0950179  
C   -0.0590329   -0.0485852    4.3195194  
H    2.2150357    1.8593692    5.0905303  
H    2.1533708    1.7953814    0.8841339  
H   -2.3621246   -1.9821033    2.1118817  
H   -1.8668290   -1.5649508    5.0545920  
H   -0.1007624   -0.0827977    5.4019087  
H    3.3491200    2.8096064    2.8367138  
