62

C    8.8722118    0.0058813   -2.8815952  
C    8.1579065    0.0078381   -4.0572783  
C    9.1076620    0.0098003   -5.1214973  
C   10.3964804    0.0086382   -4.5291537  
N   10.2173030    0.0082108   -3.1680839  
C   11.5747354    0.0097024   -5.2818184  
C   11.4496560    0.0116743   -6.6575110  
O   12.5677960    0.0124318   -7.4403110  
C   10.1724879    0.0132337   -7.2671471  
O   10.2147997    0.0155411   -8.6461137  
C    9.0096854    0.0124583   -6.5252488  
H    7.0843672    0.0089551   -4.1379337  
H   10.9537230   -0.0031579   -2.4857821  
H   12.5600346    0.0089704   -4.8364138  
H   12.2600152    0.0141119   -8.3560258  
H    9.3118149    0.0164495   -8.9781094  
H    8.0456161    0.0138761   -7.0202704  
C    4.7795901    0.0008674   -1.0815733  
C    5.8357361    0.0020740   -1.9630619  
C    7.0295755    0.0025511   -1.1824550  
C    6.6358520    0.0012980    0.1802288  
N    5.2632774    0.0022470    0.2058246  
C    7.5556553    0.0010562    1.2332013  
C    8.8973613    0.0017913    0.9045658  
O    9.8380085    0.0012446    1.8936039  
C    9.3099221    0.0034196   -0.4491731  
O   10.6798047    0.0044028   -0.6127738  
C    8.4030660    0.0039323   -1.4884696  
H    5.7555549    0.0036569   -3.0366361  
H    4.6982920   -0.0088487    1.0356739  
H    7.2620116    0.0002474    2.2738619  
H   10.6976507    0.0022149    1.4528339  
H   10.8735674    0.0054534   -1.5551424  
C    3.3321168    0.0004716   -1.3379341  
C    2.6974177    0.0000118   -2.5332316  
C    1.2800432   -0.0002116   -2.2052842  
C    1.2395033    0.0000644   -0.7271298  
N    2.4394059    0.0005460   -0.2131041  
C    0.0000000    0.0000000    0.0000000  
C   -1.1468704    0.0000635   -0.7169542  
O   -2.3742206    0.0000074   -0.1695488  
C   -1.1388774    0.0001608   -2.2096352  
O   -2.2206238    0.0000906   -2.7970409  
C    0.1454514    0.0001818   -2.9324241  
H    3.1367978   -0.0000649   -3.5160956  
H   -2.9844350    0.0001027   -0.9290164  
H    0.1083567    0.0003684   -4.0135594  
C    0.8175213    0.6860729    2.3021913  
C    0.0000000    0.0000000    1.4700000  
C   -0.8887526   -0.7456559    2.3478473  
C   -0.4549825   -0.3816753    3.7138435  
N    0.5448156    0.4573574    3.6934124  
C   -1.0945674   -0.9182058    4.8835240  
C   -2.1210866   -1.7789155    4.6970523  
O   -2.8083856   -2.3554314    5.6976972  
C   -2.5824069   -2.1655116    3.3310774  
O   -3.5227682   -2.9541547    3.2362962  
C   -1.9100805   -1.6015804    2.1470656  
H   -0.7567140   -0.6349833    5.8697035  
H   -3.4728268   -2.9124471    5.2533954  
H   -2.2742832   -1.9066565    1.1752040  
H    1.6189533    1.3585343    2.0405121  
