62

C   -0.3936037    0.0153267   -8.7325956  
C    0.3645411   -0.6606803   -9.6603341  
C   -0.1325599   -0.2990379  -10.9474643  
C   -1.2029686    0.6083008  -10.7403711  
N   -1.3360817    0.7758025   -9.3843325  
C   -1.9297969    1.1732912  -11.7926524  
C   -1.5692929    0.8160515  -13.0774067  
O   -2.2454713    1.3384876  -14.1417640  
C   -0.5043932   -0.0879975  -13.3043460  
O   -0.2675383   -0.3440577  -14.6391394  
C    0.2129017   -0.6459708  -12.2667137  
H    1.1753319   -1.3327361   -9.4368347  
H   -2.0080799    1.3722906   -8.9364469  
H   -2.7467680    1.8653194  -11.6414636  
H   -1.8393195    0.9634628  -14.9340161  
H    0.4661248   -0.9629756  -14.7045840  
H    1.0233996   -1.3356524  -12.4714342  
C    2.2675102   -2.0960612   -5.9498179  
C    1.7744249   -1.6329637   -4.7723279  
C    0.6888621   -0.7368506   -5.0938399  
C    0.5891935   -0.7157119   -6.5657132  
N    1.5740358   -1.5599385   -7.0242506  
C   -0.3170778    0.0136357   -7.2645898  
C   -1.2569150    0.8326277   -6.5172659  
O   -2.1110283    1.5252264   -7.0549449  
C   -1.1693695    0.8256867   -4.9577490  
O   -1.9551700    1.5114887   -4.3178627  
C   -0.1496415   -0.0015615   -4.3176961  
H    2.1306439   -1.8896606   -3.7905802  
H    3.0792928   -2.7837267   -6.1230671  
H    1.7590701   -1.7578576   -7.9904993  
C    3.3003543    0.0005276   -1.4738987  
C    2.5232814    0.0003497   -2.6090747  
C    1.1623200   -0.0001320   -2.1820103  
C    1.1711883    0.0000582   -0.7636140  
N    2.4852300   -0.0014919   -0.3662360  
C    0.0000000    0.0000000    0.0000000  
C   -1.2020384    0.0000519   -0.6806477  
O   -2.3759249    0.0003493    0.0157743  
C   -1.2314656   -0.0005115   -2.0955510  
O   -2.5054392   -0.0008039   -2.6250180  
C   -0.0764516   -0.0007274   -2.8495195  
H    2.8919955   -0.0005620   -3.6205304  
H    2.8036267    0.0088183    0.5858662  
H   -3.0835638    0.0000347   -0.6418818  
H   -2.4360047   -0.0011529   -3.5845921  
H    4.3715549    0.0004895   -1.3667136  
C    2.4951002    2.0940188    2.9809380  
C    1.9440701    1.6314916    1.8291961  
C    0.8759964    0.7350050    2.2038498  
C    0.8497377    0.7130254    3.6788474  
N    1.8560616    1.5571714    4.0882609  
C   -0.0205033   -0.0168748    4.4215661  
C   -0.9962600   -0.8356168    3.7214979  
O   -1.8224391   -1.5286685    4.3006425  
C   -0.9864710   -0.8277881    2.1595606  
O   -1.8030528   -1.5133726    1.5592035  
C    0.0000000    0.0000000    1.4700000  
H    2.2509283    1.8888011    0.8310761  
H   -0.0229599   -0.0187323    5.5027230  
H    3.3143982    2.7817323    3.1139444  
H    2.0889452    1.7545833    5.0442112  
