62

C   -2.7925202    0.0020307   -8.7101419  
C   -3.9342304    0.0038107   -7.9427032  
C   -5.0408614    0.0048224   -8.8426844  
C   -4.5082102    0.0032898  -10.1572969  
N   -3.1403585    0.0035651  -10.0406888  
C   -5.3140860    0.0034312  -11.2998174  
C   -6.6826011    0.0048441  -11.1118186  
O   -7.5158271    0.0046949  -12.1929054  
C   -7.2330616    0.0067606   -9.8080524  
O   -8.6125201    0.0084249   -9.7871187  
C   -6.4386477    0.0068956   -8.6804744  
H   -3.9655981    0.0054226   -6.8665960  
H   -2.4925205   -0.0078603  -10.8076029  
H   -4.9143090    0.0024123  -12.3044951  
H   -8.4164735    0.0061141  -11.8434790  
H   -8.9027808    0.0096306   -8.8698664  
H   -6.8889645    0.0085673   -7.6947310  
C   -0.8712823    0.0001712   -4.7267111  
C    0.4339910   -0.0007980   -5.1611397  
C    0.3982143   -0.0008778   -6.5870850  
C   -0.9677834    0.0003618   -6.9691514  
N   -1.7116543   -0.0009771   -5.8153445  
C   -1.3793560    0.0009425   -8.3053390  
C   -0.3940120    0.0005664   -9.2734680  
O   -0.7402469    0.0014532  -10.5937462  
C    0.9742892   -0.0010424   -8.9121277  
O    1.8341068   -0.0016466   -9.9910418  
C    1.3810432   -0.0018893   -7.5941455  
H    1.3048040   -0.0024816   -4.5281507  
H   -2.7146166    0.0100178   -5.7714415  
H    0.0868485    0.0006964  -11.0929221  
H    2.7374598   -0.0027102   -9.6600491  
H    2.4364416   -0.0033020   -7.3479530  
C    1.0965515    0.0001358   -0.8010304  
C    0.0000000    0.0000000    0.0000000  
C   -1.1546562    0.0001470   -0.8669514  
C   -0.6372012    0.0003520   -2.2486282  
N    0.7342873    0.0007338   -2.1395014  
C   -1.4147737    0.0001354   -3.3608717  
C   -2.8576047   -0.0001047   -3.1854463  
O   -3.6427778   -0.0002491   -4.1244908  
C   -3.4275837   -0.0000725   -1.7311667  
O   -4.6406828    0.0000333   -1.5710061  
C   -2.4891866   -0.0001090   -0.6116745  
H   -2.8919121   -0.0002919    0.3920865  
H    2.1388272    0.0000662   -0.5261647  
H    1.3735873   -0.0006098   -2.9130261  
C    2.4951002    2.0940188    2.9809380  
C    1.9440701    1.6314916    1.8291961  
C    0.8759964    0.7350050    2.2038498  
C    0.8497377    0.7130254    3.6788474  
N    1.8560616    1.5571714    4.0882609  
C   -0.0205033   -0.0168748    4.4215661  
C   -0.9962600   -0.8356168    3.7214979  
O   -1.8224391   -1.5286685    4.3006425  
C   -0.9864710   -0.8277881    2.1595606  
O   -1.8030528   -1.5133726    1.5592035  
C    0.0000000    0.0000000    1.4700000  
H    2.2509283    1.8888011    0.8310761  
H   -0.0229599   -0.0187323    5.5027230  
H    3.3143982    2.7817323    3.1139444  
H    2.0889452    1.7545833    5.0442112  
