66

C    6.4533193   -3.0008595   -5.3010196  
C    5.8586843   -1.7794896   -5.0839173  
C    6.5266066   -0.8366726   -5.9203238  
C    7.5279066   -1.5467987   -6.6309901  
N    7.4573696   -2.8578082   -6.2298717  
C    8.3827821   -0.9317137   -7.5505807  
C    8.2237574    0.4248960   -7.7567347  
O    9.0315730    1.0754840   -8.6439679  
C    7.2306934    1.1507983   -7.0569453  
O    7.1981972    2.4935985   -7.3718660  
C    6.3871654    0.5447052   -6.1494002  
H    8.0389606   -3.6013873   -6.5716684  
H    9.1480197   -1.4673083   -8.0953293  
H    8.7563302    2.0014623   -8.6356237  
H    6.5006895    2.9100775   -6.8564702  
H    5.6360417    1.1267194   -5.6282947  
H    6.2416184   -3.9624540   -4.8657286  
C    4.6027286   -2.0944966   -2.9150972  
C    3.4411565   -1.6373420   -2.3369735  
C    2.8377887   -0.7405118   -3.2676952  
C    3.6836209   -0.6899842   -4.4052107  
N    4.7469283   -1.5221607   -4.1572674  
C    3.3988815    0.0972714   -5.5250055  
C    2.2389987    0.8469468   -5.4960815  
O    1.9125740    1.6330029   -6.5631224  
C    1.3824833    0.8101281   -4.3700960  
O    0.2670644    1.6125635   -4.4937161  
C    1.6628945    0.0339172   -3.2649299  
H    3.0744459   -1.9151388   -1.3636571  
H    4.0395083    0.1402698   -6.3950343  
H    1.0776868    2.0643813   -6.3392002  
H   -0.2575672    1.5298016   -3.6915218  
H    5.3404960   -2.7824367   -2.5390700  
C    1.1243410    0.0100105   -0.7919003  
C    0.7474072    0.0234665   -2.1148542  
C   -0.6787384    0.0234379   -2.1414698  
C   -1.1201748    0.0098411   -0.7935547  
N    0.0000000    0.0000000    0.0000000  
C   -2.4730818    0.0063307   -0.4408240  
C   -3.3971962    0.0170429   -1.4675058  
O   -4.7313520    0.0145490   -1.1793468  
C   -2.9763654    0.0303020   -2.8186325  
O   -4.0166484    0.0394464   -3.7247625  
C   -1.6418567    0.0334992   -3.1673480  
H   -2.8160166   -0.0041569    0.5845966  
H   -5.1938823    0.0230023   -2.0274386  
H   -3.6464680    0.0481700   -4.6127343  
H   -1.3497475    0.0435647   -4.2109234  
H    2.1062466    0.0053162   -0.3505405  
C    2.5285572    2.1210227    2.9438989  
C    1.9331703    1.6216660    4.0790748  
C    0.8903039    0.7472258    3.6520102  
C    0.8972198    0.7527806    2.2336141  
N    1.9028376    1.5986179    1.8362361  
C    0.0000000    0.0000000    1.4700000  
C   -0.9207814   -0.7726952    2.1506477  
O   -1.8198395   -1.5274828    1.4542253  
C   -0.9436862   -0.7911793    3.5655508  
O   -1.9197945   -1.6098497    4.0950179  
C   -0.0590329   -0.0485852    4.3195194  
H    2.2150357    1.8593692    5.0905303  
H    2.1533708    1.7953814    0.8841339  
H   -2.3621246   -1.9821033    2.1118817  
H   -1.8668290   -1.5649508    5.0545920  
H   -0.1007624   -0.0827977    5.4019087  
H    3.3491200    2.8096064    2.8367138  
