62

C   -5.9351713    0.7114747    0.7028163  
C   -6.3607967    0.4609318    1.9867709  
C   -7.4574960   -0.4462205    1.8923051  
C   -7.6568620   -0.7161237    0.5141425  
N   -6.7169757    0.0042454   -0.1803357  
C   -8.6580029   -1.5738899    0.0485850  
C   -9.4725319   -2.1702871    0.9914686  
O  -10.4657284   -3.0169287    0.5917541  
C   -9.2895351   -1.9132312    2.3710529  
O  -10.1809329   -2.5822778    3.1841531  
C   -8.3022628   -1.0669257    2.8310378  
H   -5.9340993    0.8812551    2.8813390  
H   -8.8152163   -1.7836319   -1.0004593  
H  -10.9080997   -3.3179179    1.3961039  
H   -9.9888684   -2.3538027    4.0987645  
H   -8.1862864   -0.8891936    3.8937885  
H   -5.1366898    1.3398151    0.3470442  
C   -3.2578655    0.0024039   -2.9908504  
C   -3.9809871    0.0031291   -1.8468773  
C   -5.3695593    0.0043918   -2.2808874  
C   -5.2983972    0.0043646   -3.7578841  
N   -4.0631144    0.0031212   -4.1798622  
C   -6.4794714    0.0054037   -4.5765100  
C   -7.6771925    0.0060344   -3.9481800  
O   -8.8597160    0.0070297   -4.5866766  
C   -7.7819057    0.0057089   -2.4591546  
O   -8.9049089    0.0064474   -1.9550871  
C   -6.5558061    0.0046828   -1.6414735  
H   -3.6170577    0.0027522   -0.8336493  
H   -6.3979234    0.0055647   -5.6536639  
H   -9.5255220    0.0072479   -3.8754418  
C    0.0000000    0.0000000    0.0000000  
C    1.0521667   -0.0011902   -0.8862342  
C    0.4917216   -0.0011957   -2.1979129  
C   -0.9187429    0.0003148   -2.0478680  
N   -1.1833171   -0.0009412   -0.7007912  
C   -1.7951702    0.0010350   -3.1372088  
C   -1.2375841    0.0005225   -4.4010424  
O   -2.0474217    0.0015360   -5.4997576  
C    0.1673577   -0.0013567   -4.5711964  
O    0.5673522   -0.0020688   -5.8915554  
C    1.0325769   -0.0023413   -3.4969890  
H    2.0953057   -0.0030649   -0.6200562  
H   -2.0989779    0.0102372   -0.2891821  
H   -1.4634887    0.0006498   -6.2693588  
H    1.5290708   -0.0033153   -5.9180049  
H    2.1042148   -0.0039610   -3.6584453  
C    3.2573670    0.0002920    2.9809380  
C    2.5379467    0.0001709    1.8291961  
C    1.1435042   -0.0000331    2.2038498  
C    1.1092607    0.0000083    3.6788474  
N    2.4227561   -0.0001909    4.0882609  
C   -0.0265533    0.0002524    4.4215661  
C   -1.3003036    0.0002640    3.7214979  
O   -2.3786784    0.0004133    4.3006425  
C   -1.2877726   -0.0000311    2.1595606  
O   -2.3539958   -0.0003306    1.5592035  
C    0.0000000    0.0000000    1.4700000  
H    2.9384090    0.0000368    0.8310761  
H   -0.0296291    0.0004086    5.5027230  
H    4.3270393    0.0004765    3.1139444  
H    2.7280493    0.0013407    5.0442112  
