62

C    7.5051933   -0.9796301   -4.7293218  
C    8.7618882   -0.5643224   -5.1044303  
C    8.6807286    0.8383828   -5.3502568  
C    7.3384501    1.2266833   -5.1064555  
N    6.6512658    0.0983966   -4.7331416  
C    6.8944200    2.5446217   -5.2502096  
C    7.8223847    3.4878087   -5.6470191  
O    7.4425619    4.7895661   -5.8025052  
C    9.1661485    3.1198046   -5.8953879  
O    9.9682321    4.1730383   -6.2835949  
C    9.6048357    1.8197661   -5.7540344  
H    9.6300238   -1.1950159   -5.1913706  
H    5.8727205    2.8469863   -5.0660692  
H    8.2315721    5.2729039   -6.0801966  
H   10.8583864    3.8391718   -6.4311114  
H   10.6402134    1.5678663   -5.9515602  
H    7.1500893   -1.9597945   -4.4607371  
C    4.4206220   -2.1198138   -1.5561253  
C    5.4069067   -1.6197474   -2.3744427  
C    4.7719050   -0.7451150   -3.3052442  
C    3.3859892   -0.7512895   -3.0033736  
N    3.2068301   -1.5976640   -1.9374612  
C    2.4521483    0.0014840   -3.7217481  
C    2.9260544    0.7748090   -4.7636496  
O    2.0575520    1.5296191   -5.4978009  
C    4.3052229    0.7939172   -5.0804267  
O    4.6197291    1.6131716   -6.1449695  
C    5.2270108    0.0513305   -4.3723324  
H    6.4549560   -1.8571123   -2.3092927  
H    2.3277576   -1.7949326   -1.4944060  
H    2.5878303    1.9847230   -6.1648475  
H    5.5693400    1.5686713   -6.2928301  
H    4.4867485   -2.8087414   -0.7315251  
C    0.0000000    0.0000000    0.0000000  
C    1.0662923   -0.0000101   -0.8334270  
C    0.4961873    0.0000065   -2.1718887  
C   -0.9663854   -0.0000848   -1.9540250  
N   -1.2632773   -0.0000083   -0.6828660  
C   -1.8985359   -0.0000514   -3.0477261  
C   -1.3925770    0.0004566   -4.3020547  
O   -2.1456378    0.0005414   -5.4151314  
C    0.0786240    0.0009326   -4.5545000  
O    0.4683767    0.0012591   -5.7221100  
C    1.0143171    0.0008444   -3.4159031  
H    2.1107200    0.0000633   -0.5721865  
H   -2.9622181   -0.0003268   -2.8593381  
H   -1.5042265    0.0009697   -6.1484419  
C    3.2573670    0.0002920    2.9809380  
C    2.5379467    0.0001709    1.8291961  
C    1.1435042   -0.0000331    2.2038498  
C    1.1092607    0.0000083    3.6788474  
N    2.4227561   -0.0001909    4.0882609  
C   -0.0265533    0.0002524    4.4215661  
C   -1.3003036    0.0002640    3.7214979  
O   -2.3786784    0.0004133    4.3006425  
C   -1.2877726   -0.0000311    2.1595606  
O   -2.3539958   -0.0003306    1.5592035  
C    0.0000000    0.0000000    1.4700000  
H    2.9384090    0.0000368    0.8310761  
H   -0.0296291    0.0004086    5.5027230  
H    4.3270393    0.0004765    3.1139444  
H    2.7280493    0.0013407    5.0442112  
