60

C    3.3907652   -5.4850261   -7.9006235  
C    2.7133957   -4.5241676   -7.1862087  
C    2.8561166   -3.2971587   -7.8994262  
C    3.6370074   -3.5734378   -9.0508629  
N    3.9464166   -4.9105689   -9.0198206  
C    3.9774766   -2.5923588   -9.9870000  
C    3.5210767   -1.3090616   -9.7567301  
O    3.8240957   -0.3127804  -10.6391237  
C    2.7410190   -1.0136142   -8.6134734  
O    2.3631917    0.3103283   -8.5253455  
C    2.4049833   -1.9809185   -7.6893901  
H    2.1827252   -4.6873068   -6.2638384  
H    4.4833908   -5.3982675   -9.7139308  
H    4.5724395   -2.7964522  -10.8665273  
H    3.4143137    0.4912665  -10.2943746  
H    1.8402228    0.4248101   -7.7259705  
H    3.5227089   -6.5343858   -7.6996419  
C    1.7704312   -2.0997831   -5.2515186  
C    1.5928585   -1.6333167   -6.5144327  
C    0.4607457   -0.7379007   -6.4771951  
C   -0.0100421   -0.7207976   -5.0790331  
N    0.8257127   -1.5670939   -4.3875226  
C   -1.0641734    0.0073898   -4.6315339  
C   -1.7831600    0.8289565   -5.5910244  
O   -2.7459474    1.5206789   -5.2862920  
C   -1.3021140    0.8259151   -7.0770897  
O   -1.8998117    1.5134385   -7.8939923  
C   -0.1528625    0.0000284   -7.4390071  
H    0.1740159    0.0036596   -8.4699583  
H    2.5118282   -2.7880436   -4.8793394  
H    0.7607705   -1.7654786   -3.4059561  
C    1.1319248    0.0015675   -0.8009270  
C    0.7969916    0.0034959   -2.1169404  
C   -0.6453336    0.0035703   -2.1842672  
C   -1.1266831    0.0015415   -0.7896027  
N    0.0000000    0.0000000    0.0000000  
C   -2.4346129    0.0013924   -0.4276297  
C   -3.4350110    0.0031352   -1.4820184  
O   -4.6384610    0.0030897   -1.2583919  
C   -2.9478958    0.0050460   -2.9661075  
O   -3.7809377    0.0062160   -3.8623775  
C   -1.5113821    0.0053068   -3.2312125  
H    1.4821240    0.0045436   -2.9459192  
H   -2.7664565    0.0000185    0.6013447  
H    2.1104318    0.0009428   -0.3488058  
C    2.3971438    2.0127888    3.1728260  
C    1.9431056    1.6308205    1.9564670  
C    0.8496017    0.7127664    2.2356185  
C    0.7794028    0.6545384    3.7115134  
N    1.6840587    1.4146091    4.2663826  
C   -0.1885723   -0.1578550    4.3957118  
C   -1.0476298   -0.8789867    3.6398520  
O   -2.0015663   -1.6796266    4.1448486  
C   -1.0022026   -0.8410666    2.1483229  
O   -1.8147390   -1.5232959    1.5241687  
C    0.0000000    0.0000000    1.4700000  
H    2.3054237    1.9346118    0.9892483  
H   -0.2170646   -0.1815267    5.4753125  
H   -2.4487139   -2.0549881    3.3649027  
H    3.2048689    2.6911772    3.3971983  
