62

C    1.1188643    0.0008223   -0.8003802  
C    0.0000000    0.0000000    0.0000000  
C   -1.1323863    0.0008897   -0.8673526  
C   -0.6382660    0.0019679   -2.1969277  
N    0.7324017    0.0038480   -2.1202235  
C   -1.4770909    0.0027315   -3.3154808  
C   -2.8395473    0.0020941   -3.0876856  
O   -3.7039194    0.0024421   -4.1440348  
C   -3.3517869    0.0013928   -1.7684330  
O   -4.7300491    0.0012366   -1.7073127  
C   -2.5248543    0.0009120   -0.6644817  
H    1.3576316   -0.0056169   -2.9057040  
H   -4.5940026    0.0021825   -3.7685133  
H   -4.9934598    0.0007260   -0.7819922  
H   -2.9462580    0.0005604    0.3339651  
H    2.1619892    0.0009354   -0.5342065  
C    0.0798553   -0.6810573   -5.1989547  
C   -0.9736290    0.0040460   -4.6965761  
C   -1.5083972    0.7502420   -5.8251660  
C   -0.6328137    0.3876024   -6.9602564  
N    0.2999942   -0.4511732   -6.5992643  
C   -0.8334151    0.9250022   -8.2778475  
C   -1.8622024    1.7852621   -8.4535858  
O   -2.1655478    2.3624831   -9.6286763  
C   -2.7636752    2.1705097   -7.3279342  
O   -3.6800714    2.9588088   -7.5603627  
C   -2.5372054    1.6057051   -5.9856852  
H   -2.9422886    2.9189189   -9.4383963  
H   -3.2124077    1.9098115   -5.1971098  
H    0.7435743   -1.3535317   -4.6791195  
C    0.9675900   -2.9279112   -9.3709050  
C    1.6586266   -2.5474202  -10.4762420  
C    1.4162470   -1.1358016  -10.6590557  
C    0.5209612   -0.7221133   -9.5617335  
N    0.2864235   -1.8547557   -8.8167490  
C    0.0583778    0.5409160   -9.3815153  
C    0.4695455    1.5608895  -10.3318470  
O    0.1067488    2.7274451  -10.2555095  
C    1.4171485    1.1451397  -11.5018926  
O    1.7697863    1.9951580  -12.3083517  
C    1.8493201   -0.2473642  -11.5913993  
H    2.2684066   -3.1831203  -11.0932258  
H    2.5055420   -0.5270194  -12.4043506  
H    0.8984620   -3.9020496   -8.9146529  
H   -0.2891193   -1.8951064   -7.9956706  
C    0.8576279    0.7185626    2.2703808  
C    0.0000000    0.0000000    1.4700000  
C   -0.8668858   -0.7285659    2.3373528  
C   -0.4876752   -0.4117774    3.6669281  
N    0.5635254    0.4678311    3.5902241  
C   -1.1297612   -0.9515493    4.7854808  
C   -2.1738724   -1.8268314    4.5576857  
O   -2.8357962   -2.3827064    5.6140350  
C   -2.5667212   -2.1555554    3.2384331  
O   -3.6226318   -3.0413663    3.1773122  
C   -1.9335634   -1.6236449    2.1344818  
H    1.0363952    0.8769718    4.3757045  
H   -0.8454472   -0.7142436    5.8013813  
H   -3.5178062   -2.9546422    5.2385129  
H   -3.8247440   -3.2102924    2.2519915  
H   -2.2566033   -1.8942483    1.1360343  
H    1.6567807    1.3889844    2.0042067  
