60

C    4.5877631   -0.5496099   -7.5210960  
C    3.9972525    0.6823365   -7.3596269  
C    4.7208210    1.6011322   -8.1762430  
C    5.7502635    0.8661260   -8.8180693  
N    5.6421584   -0.4359406   -8.3966980  
C    6.6609817    1.4535591   -9.7014153  
C    6.5299122    2.8075842   -9.9414466  
O    7.3923303    3.4316686  -10.7957093  
C    5.5094726    3.5580587   -9.3103307  
O    5.5104385    4.8947412   -9.6518302  
C    4.6108441    2.9792533   -8.4385641  
H    6.2322155   -1.1925026   -8.6923785  
H    7.4479031    0.8989162  -10.1936858  
H    7.1283785    4.3606546  -10.8197689  
H    4.7912730    5.3289683   -9.1829467  
H    3.8398594    3.5796846   -7.9700094  
H    4.3411369   -1.5001040   -7.0798527  
C    2.8494834   -0.7287730   -3.3362168  
C    3.4912468   -0.5137437   -4.5134920  
C    2.6833704    0.4134335   -5.2701384  
C    1.5099399    0.7231864   -4.4311485  
N    1.6707636   -0.0012343   -3.2725974  
C    0.5077408    1.5643698   -4.7913042  
C    0.5901949    2.2074066   -6.0921655  
O   -0.2621867    2.9813187   -6.5078658  
C    1.8239371    1.8937370   -6.9973163  
O    1.9040961    2.4289607   -8.0947544  
C    2.8403299    0.9701079   -6.4996155  
H    4.4240235   -0.9544939   -4.8172678  
H   -0.3442074    1.7780236   -4.1608710  
H    3.1383512   -1.3576871   -2.5098315  
C    1.0965514    0.0001358   -0.8010306  
C    0.0000000    0.0000000    0.0000000  
C   -1.1546565    0.0001470   -0.8669508  
C   -0.6372019    0.0003520   -2.2486278  
N    0.7342867    0.0007338   -2.1395012  
C   -1.4147744    0.0001354   -3.3608712  
C   -2.8576052   -0.0001047   -3.1854454  
O   -3.6427785   -0.0002490   -4.1244896  
C   -3.4275841   -0.0000727   -1.7311660  
O   -4.6406832    0.0000333   -1.5710049  
C   -2.4891868   -0.0001090   -0.6116739  
H   -1.0150456    0.0001617   -4.3654239  
H   -2.8919122   -0.0002919    0.3920871  
H    2.1388270    0.0000663   -0.5261650  
C    0.8681109    0.7263879    2.2709268  
C    0.6127770    0.5096195    3.5869401  
C   -0.4920590   -0.4175482    3.6542670  
C   -0.8620974   -0.7254003    2.2596025  
N    0.0000000    0.0000000    1.4700000  
C   -1.8641242   -1.5660088    1.8976294  
C   -2.6293522   -2.2103885    2.9520183  
O   -3.5512764   -2.9839180    2.7283916  
C   -2.2549728   -1.8987399    4.4361073  
O   -2.8923672   -2.4351063    5.3323774  
C   -1.1543735   -0.9755647    4.7012123  
H    1.1382914    0.9492124    4.4159191  
H   -2.1192137   -1.7782617    0.8686553  
H   -0.9013378   -0.7652422    5.7314848  
H    1.6172880    1.3558399    1.8188057  
