60

C   -8.4221501    0.7336010   -2.5283822  
C   -8.0916674   -0.5298430   -2.9607692  
C   -9.2133265   -1.3688068   -2.6912826  
C  -10.2067271   -0.5548799   -2.0891182  
N   -9.6931010    0.7153341   -2.0033131  
C  -11.4510049   -1.0514663   -1.6891635  
C  -11.6970442   -2.3941027   -1.9012262  
O  -12.8957738   -2.9309800   -1.5299799  
C  -10.7183673   -3.2224629   -2.5002469  
O  -11.1141252   -4.5363537   -2.6431111  
C   -9.4905365   -2.7333040   -2.8948137  
H  -10.1752219    1.5121882   -1.6283948  
H  -12.2123365   -0.4363839   -1.2295454  
H  -12.8595647   -3.8676295   -1.7637330  
H  -10.3964721   -5.0270784   -3.0551404  
H   -8.7607615   -3.3920279   -3.3508715  
H   -7.8512872    1.6460330   -2.5516757  
C   -4.0214240    0.6873775   -1.9917542  
C   -3.2941076    0.0012878   -2.9038237  
C   -4.2729631   -0.7438335   -3.6804419  
C   -5.5765699   -0.3795575   -3.0850458  
N   -5.4354549    0.4591737   -2.0947902  
C   -6.8150156   -0.9155366   -3.5790742  
C   -6.7539672   -1.7760010   -4.6208077  
O   -7.8303767   -2.3520035   -5.1825928  
C   -5.4537106   -2.1628842   -5.2435559  
O   -5.4732706   -2.9512792   -6.1886864  
C   -4.1970811   -1.5995187   -4.7187458  
H   -7.4696188   -2.9089611   -5.8958983  
H   -3.2763256   -1.9047888   -5.1975465  
H   -3.6647949    1.3595210   -1.2275476  
C    0.0000000    0.0000000    0.0000000  
C    1.0541688   -0.0001723   -0.8560392  
C    0.5103136   -0.0000455   -2.1935956  
C   -0.9576373    0.0002461   -2.0455730  
N   -1.2018460   -0.0001389   -0.6915968  
C   -1.8348314    0.0008319   -3.0810607  
C   -1.2972851    0.0009739   -4.4314603  
O   -2.0050676    0.0014268   -5.4301316  
C    0.2542619    0.0004184   -4.6117572  
O    0.7184666    0.0002257   -5.7439122  
C    1.0974551    0.0000873   -3.4189129  
H    2.0940752   -0.0005484   -0.5817983  
H    2.1707276   -0.0000912   -3.5523673  
H   -2.1128194    0.0014915   -0.2706789  
C    3.1301144    0.0010313    3.1728260  
C    2.5367765    0.0002768    1.9564670  
C    1.1089900   -0.0001027    2.2356185  
C    1.0177864    0.0004150    3.7115134  
N    2.1993570    0.0011613    4.2663826  
C   -0.2459220    0.0002880    4.3957118  
C   -1.3675327    0.0000606    3.6398520  
O   -2.6129319   -0.0000866    4.1448486  
C   -1.3083589   -0.0000910    2.1483229  
O   -2.3693264   -0.0004206    1.5241687  
C    0.0000000    0.0000000    1.4700000  
H    3.0096015    0.0001008    0.9892483  
H   -0.2829642    0.0004689    5.4753125  
H   -3.1967446   -0.0002093    3.3649027  
H    4.1849273    0.0015113    3.3971983  
