60

C   -7.9898066   -0.6867359   -3.1501203  
C   -8.3923191    0.1302990   -2.1191476  
C   -9.8143254    0.0428697   -2.0494746  
C  -10.2269696   -0.8502405   -3.0712402  
N   -9.0945381   -1.2733755   -3.7217585  
C  -11.5682585   -1.1747909   -3.2957403  
C  -12.5101190   -0.5872797   -2.4736048  
O  -13.8339983   -0.8694991   -2.6488390  
C  -12.1181058    0.3066499   -1.4488939  
O  -13.1733354    0.8089248   -0.7157127  
C  -10.7950943    0.6274934   -1.2270219  
H   -7.7412132    0.7179708   -1.4948907  
H   -9.0733837   -1.9221662   -4.4876591  
H  -11.8892766   -1.8546332   -4.0728905  
H  -14.3122117   -0.3618092   -1.9803866  
H  -12.8224031    1.4032849   -0.0454992  
H  -10.5251503    1.3156591   -0.4345342  
C   -3.9842747    0.7276679   -1.9452929  
C   -5.3215476    0.5113827   -2.0401487  
C   -5.5219107   -0.4154377   -3.1290444  
C   -4.1821416   -0.7236131   -3.6646155  
N   -3.2941076    0.0012878   -2.9038237  
C   -3.9439113   -1.5640382   -4.7031903  
C   -5.0830927   -2.2078648   -5.3358734  
O   -4.9725188   -2.9811916   -6.2782323  
C   -6.5111093   -1.8958665   -4.7852102  
O   -7.4778750   -2.4317668   -5.3100291  
C   -6.6412650   -0.9729338   -3.6604401  
H   -6.0809673    0.9510778   -1.4184064  
H   -2.9532724   -1.7765348   -5.0805359  
H   -3.4449080    1.3567586   -1.2559319  
C    0.0000000    0.0000000    0.0000000  
C    1.0541688   -0.0001723   -0.8560392  
C    0.5103136   -0.0000455   -2.1935956  
C   -0.9576373    0.0002461   -2.0455730  
N   -1.2018460   -0.0001389   -0.6915968  
C   -1.8348314    0.0008319   -3.0810607  
C   -1.2972851    0.0009739   -4.4314603  
O   -2.0050676    0.0014268   -5.4301316  
C    0.2542619    0.0004184   -4.6117572  
O    0.7184666    0.0002257   -5.7439122  
C    1.0974551    0.0000873   -3.4189129  
H    2.0940752   -0.0005484   -0.5817983  
H    2.1707276   -0.0000912   -3.5523673  
H   -2.1128194    0.0014915   -0.2706789  
C    0.0000000    0.0000000    1.4700000  
C    1.0662921    0.0000102    2.3034270  
C    0.4961870   -0.0000064    3.6418889  
C   -0.9663858    0.0000850    3.4240247  
N   -1.2632773    0.0000084    2.1528658  
C   -1.8985362    0.0000517    4.5177257  
C   -1.3925775   -0.0004564    5.7720543  
O   -2.1456383   -0.0005410    6.8851312  
C    0.0786232   -0.0009323    6.0245000  
O    0.4683759   -0.0012588    7.1921102  
C    1.0143166   -0.0008442    4.8859032  
H    2.1107198   -0.0000632    2.0421868  
H   -2.9622183    0.0003270    4.3293377  
H   -1.5042274   -0.0009692    7.6184419  
H    2.0724152   -0.0013148    5.1109744  
