60

C    7.7719697   -1.1477797   -3.9811045  
C    9.0634110   -0.7456365   -4.2319641  
C    9.0205184    0.6570345   -4.4874522  
C    7.6646738    1.0588823   -4.3773157  
N    6.9331516   -0.0616543   -4.0709015  
C    7.2498348    2.3805672   -4.5666503  
C    8.2214530    3.3136409   -4.8724438  
O    7.8715017    4.6184958   -5.0671211  
C    9.5794243    2.9320596   -4.9870213  
O   10.4260098    3.9764039   -5.2968300  
C    9.9893567    1.6283181   -4.8006368  
H    9.9296595   -1.3848601   -4.2320158  
H    6.2180165    2.6932390   -4.4842587  
H    8.6886480    5.0934299   -5.2670577  
H   11.3230232    3.6335996   -5.3556157  
H   11.0365958    1.3659376   -4.8951115  
H    7.3826367   -2.1236916   -3.7466388  
C    4.1985330   -2.1423498   -1.2324142  
C    5.3247411   -1.7348288   -1.8626208  
C    4.8654772   -0.8236655   -2.8996154  
C    3.3948137   -0.7971457   -2.7478595  
N    2.9980296   -1.5681521   -1.7721028  
C    2.5562217   -0.0001543   -3.6003001  
C    3.1594332    0.7371395   -4.5604398  
O    2.5003399    1.5262938   -5.4258142  
C    4.6414695    0.7318289   -4.7384884  
O    5.1222596    1.4271711   -5.6332286  
C    5.4799816   -0.0940150   -3.8514687  
H    6.3415670   -2.0175427   -1.6499837  
H    3.1964050    1.9185699   -5.9832782  
H    4.1121693   -2.8248211   -0.4019036  
C    0.0000000    0.0000000    0.0000000  
C    1.0541688   -0.0001719   -0.8560391  
C    0.5103141   -0.0000449   -2.1935955  
C   -0.9576367    0.0002461   -2.0455733  
N   -1.2018459   -0.0001392   -0.6915970  
C   -1.8348306    0.0008319   -3.0810611  
C   -1.2972842    0.0009739   -4.4314605  
O   -2.0050664    0.0014267   -5.4301321  
C    0.2542628    0.0004190   -4.6117571  
O    0.7184677    0.0002263   -5.7439119  
C    1.0974556    0.0000880   -3.4189127  
H    2.0940752   -0.0005479   -0.5817978  
H   -2.9081050    0.0011669   -2.9507065  
H   -2.1128195    0.0014911   -0.2706793  
C    3.1301144    0.0010313    3.1728260  
C    2.5367765    0.0002768    1.9564670  
C    1.1089900   -0.0001027    2.2356185  
C    1.0177864    0.0004150    3.7115134  
N    2.1993570    0.0011613    4.2663826  
C   -0.2459220    0.0002880    4.3957118  
C   -1.3675327    0.0000606    3.6398520  
O   -2.6129319   -0.0000866    4.1448486  
C   -1.3083589   -0.0000910    2.1483229  
O   -2.3693264   -0.0004206    1.5241687  
C    0.0000000    0.0000000    1.4700000  
H    3.0096015    0.0001008    0.9892483  
H   -0.2829642    0.0004689    5.4753125  
H   -3.1967446   -0.0002093    3.3649027  
H    4.1849273    0.0015113    3.3971983  
