60

C    7.6810708   -3.7183284   -4.6286581  
C    8.3937591   -4.5205480   -3.7678534  
C    7.8092234   -4.3673985   -2.4757764  
C    6.7344169   -3.4517501   -2.6110761  
N    6.6855787   -3.0757493   -3.9304906  
C    5.9305764   -3.0647061   -1.5345883  
C    6.2167725   -3.6122058   -0.2990667  
O    5.4631840   -3.2690195    0.7859864  
C    7.2852208   -4.5271708   -0.1439144  
O    7.4431219   -4.9833701    1.1484837  
C    8.0788137   -4.9092432   -1.2054028  
H    9.2325387   -5.1390916   -4.0377561  
H    5.1100063   -2.3671725   -1.6310973  
H    5.8268829   -3.7568323    1.5363382  
H    8.1848401   -5.5958562    1.1663356  
H    8.8902580   -5.6118803   -1.0559435  
H    7.8049857   -3.5525712   -5.6851274  
C    5.7075973   -2.1458899   -4.5134268  
C    5.6080283   -1.7400303   -5.8006495  
C    4.4743455   -0.8284970   -5.8198985  
C    3.9952578   -0.7999672   -4.4212404  
N    4.7143359   -1.5702090   -3.6507578  
C    2.8699641   -0.0020530   -4.0185824  
C    2.2516352    0.7342030   -4.9698613  
O    1.1898869    1.5240362   -4.7355641  
C    2.7116326    0.7268608   -6.3898997  
O    2.1013090    1.4213451   -7.2025603  
C    3.8682730   -0.0998975   -6.7779434  
H    6.2274578   -2.0240585   -6.6341436  
H    0.9759266    1.9152457   -5.6017794  
H    4.1702380   -0.0775571   -7.8164743  
C    3.2573670   -0.0002921   -1.5109382  
C    2.5379468   -0.0001711   -0.3591962  
C    1.1435043    0.0000330   -0.7338498  
C    1.1092608   -0.0000085   -2.2088474  
N    2.4227562    0.0001906   -2.6182610  
C   -0.0265533   -0.0002525   -2.9515663  
C   -1.3003033   -0.0002641   -2.2514979  
O   -2.3786785   -0.0004132   -2.8306425  
C   -1.2877724    0.0000310   -0.6895608  
O   -2.3539956    0.0003306   -0.0892035  
C    0.0000000    0.0000000    0.0000000  
H    2.9384091   -0.0000370    0.6389240  
H   -0.0296290   -0.0004088   -4.0327231  
H    4.3270394   -0.0004767   -1.6439445  
C    2.3971438    2.0127888    3.1728260  
C    1.9431056    1.6308205    1.9564670  
C    0.8496017    0.7127664    2.2356185  
C    0.7794028    0.6545384    3.7115134  
N    1.6840587    1.4146091    4.2663826  
C   -0.1885723   -0.1578550    4.3957118  
C   -1.0476298   -0.8789867    3.6398520  
O   -2.0015663   -1.6796266    4.1448486  
C   -1.0022026   -0.8410666    2.1483229  
O   -1.8147390   -1.5232959    1.5241687  
C    0.0000000    0.0000000    1.4700000  
H    2.3054237    1.9346118    0.9892483  
H   -0.2170646   -0.1815267    5.4753125  
H   -2.4487139   -2.0549881    3.3649027  
H    3.2048689    2.6911772    3.3971983  
