60

C    4.1680876    0.5526793   -7.3416862  
C    5.2143229   -0.2877501   -7.0391348  
C    6.1015907   -0.2667210   -8.1557876  
C    5.5398247    0.6118595   -9.1172665  
N    4.3653198    1.0905822   -8.5919299  
C    6.1485634    0.8750978  -10.3480920  
C    7.3463709    0.2400772  -10.6130130  
O    7.9836676    0.4615691  -11.7995241  
C    7.9225162   -0.6402944   -9.6665356  
O    9.1167414   -1.1949422  -10.0782823  
C    7.3224012   -0.9006634   -8.4522065  
H    5.3239148   -0.8480013   -6.1263910  
H    3.7511757    1.7438249   -9.0436841  
H    5.7254752    1.5435567  -11.0852233  
H    8.7891877   -0.0713841  -11.7804526  
H    9.4382251   -1.7760415   -9.3821675  
H    7.7874233   -1.5798871   -7.7473036  
C    2.8279729   -0.7071296   -3.3541665  
C    1.6707636   -0.0012343   -3.2725974  
C    1.5420226    0.7399975   -4.5050083  
C    2.7275728    0.4056547   -5.3170902  
N    3.4672609   -0.4755791   -4.5626513  
C    2.9773528    0.9038683   -6.5544657  
C    2.0143743    1.8314547   -7.1243707  
O    2.1493684    2.3348416   -8.2319258  
C    0.7517068    2.1998418   -6.2818938  
O   -0.0658604    2.9799880   -6.7511674  
C    0.5920513    1.5980567   -4.9604491  
H   -0.2850559    1.8581558   -4.3835994  
H    3.2676543   -1.3768500   -2.6330256  
H    4.3364880   -0.8886230   -4.8470555  
C    1.0965514    0.0001358   -0.8010306  
C    0.0000000    0.0000000    0.0000000  
C   -1.1546565    0.0001470   -0.8669508  
C   -0.6372019    0.0003520   -2.2486278  
N    0.7342867    0.0007338   -2.1395012  
C   -1.4147744    0.0001354   -3.3608712  
C   -2.8576052   -0.0001047   -3.1854454  
O   -3.6427785   -0.0002490   -4.1244896  
C   -3.4275841   -0.0000727   -1.7311660  
O   -4.6406832    0.0000333   -1.5710049  
C   -2.4891868   -0.0001090   -0.6116739  
H   -1.0150456    0.0001617   -4.3654239  
H   -2.8919122   -0.0002919    0.3920871  
H    2.1388270    0.0000663   -0.5261650  
C    2.3971438    2.0127888    3.1728260  
C    1.9431056    1.6308205    1.9564670  
C    0.8496017    0.7127664    2.2356185  
C    0.7794028    0.6545384    3.7115134  
N    1.6840587    1.4146091    4.2663826  
C   -0.1885723   -0.1578550    4.3957118  
C   -1.0476298   -0.8789867    3.6398520  
O   -2.0015663   -1.6796266    4.1448486  
C   -1.0022026   -0.8410666    2.1483229  
O   -1.8147390   -1.5232959    1.5241687  
C    0.0000000    0.0000000    1.4700000  
H    2.3054237    1.9346118    0.9892483  
H   -0.2170646   -0.1815267    5.4753125  
H   -2.4487139   -2.0549881    3.3649027  
H    3.2048689    2.6911772    3.3971983  
