60

C    3.9630534   -5.4950819   -7.5017213  
C    3.2102935   -4.5334952   -6.8683399  
C    3.4310057   -3.3074407   -7.5630890  
C    4.3349932   -3.5850263   -8.6202927  
N    4.6393918   -4.9219813   -8.5531353  
C    4.7770475   -2.6051351   -9.5142664  
C    4.2975657   -1.3217047   -9.3379707  
O    4.6964298   -0.3265507  -10.1827139  
C    3.3953093   -1.0249621   -8.2888319  
O    3.0096867    0.2989448   -8.2451339  
C    2.9589963   -1.9910940   -7.4063661  
H    2.5805289   -4.6955474   -6.0103607  
H    5.2502457   -5.4104392   -9.1826175  
H    5.4660457   -2.8102271  -10.3219928  
H    4.2506914    0.4778123   -9.8867716  
H    2.4011607    0.4143418   -7.5089393  
H    4.0721386   -6.5440993   -7.2858000  
C    2.0577021   -2.1067618   -5.0538579  
C    2.0213371   -1.6421655   -6.3293585  
C    0.8918563   -0.7471751   -6.4193650  
C    0.2687260   -0.7282838   -5.0821511  
N    1.0227497   -1.5732440   -4.3008824  
C   -0.8287665    0.0000939   -4.7555305  
C   -1.4369817    0.8199931   -5.7901201  
O   -2.4278330    1.5117415   -5.5951873  
C   -0.7938992    0.8150427   -7.2135759  
O   -1.2973733    1.5011524   -8.0927958  
C    0.3886477   -0.0108724   -7.4444391  
H    0.8279791   -0.0085683   -8.4327239  
H    2.7533681   -2.7941799   -4.6006534  
H    0.8492696   -1.7702610   -3.3323083  
C    1.0672569   -0.0000698   -0.8321910  
C    0.0000000    0.0000000    0.0000000  
C   -1.1601223   -0.0000736   -0.8778472  
C   -0.5938729   -0.0000768   -2.2438435  
N    0.7113367   -0.0001553   -2.2234123  
C   -1.4286985   -0.0001877   -3.4135239  
C   -2.7683113   -0.0006798   -3.2270524  
O   -3.6653902   -0.0008302   -4.2276970  
C   -3.3702024   -0.0010610   -1.8610774  
O   -4.5974910   -0.0013779   -1.7662963  
C   -2.4926825   -0.0008943   -0.6770658  
H   -4.5324245   -0.0012258   -3.7833954  
H   -2.9677772   -0.0012974    0.2947961  
H    2.1134391   -0.0000547   -0.5705119  
C    2.4951002    2.0940188    2.9809380  
C    1.9440701    1.6314916    1.8291961  
C    0.8759964    0.7350050    2.2038498  
C    0.8497377    0.7130254    3.6788474  
N    1.8560616    1.5571714    4.0882609  
C   -0.0205033   -0.0168748    4.4215661  
C   -0.9962600   -0.8356168    3.7214979  
O   -1.8224391   -1.5286685    4.3006425  
C   -0.9864710   -0.8277881    2.1595606  
O   -1.8030528   -1.5133726    1.5592035  
C    0.0000000    0.0000000    1.4700000  
H    2.2509283    1.8888011    0.8310761  
H   -0.0229599   -0.0187323    5.5027230  
H    3.3143982    2.7817323    3.1139444  
H    2.0889452    1.7545833    5.0442112  
