60

C    5.9859423   -0.7077568   -0.5919385  
C    6.6853057   -0.4571011    0.5658741  
C    7.7331493    0.4509309    0.2310589  
C    7.6219855    0.7212294   -1.1569281  
N    6.5521053    0.0002407   -1.6261280  
C    8.4944544    1.5798643   -1.8324531  
C    9.4972266    2.1767394   -1.0932885  
O   10.3765464    3.0242319   -1.7028508  
C    9.6246579    1.9193008    0.2924622  
O   10.6735775    2.5889082    0.8880619  
C    8.7644697    1.0721386    0.9594841  
H    6.4677425   -0.8779151    1.5326089  
H    8.4151569    1.7899116   -2.8901836  
H   10.9859310    3.3254301   -1.0164141  
H   10.6891158    2.3601237    1.8224172  
H    8.8869938    0.8941312    2.0214537  
H    5.1289350   -1.3366641   -0.7621531  
C    2.5562217   -0.0001551   -3.6003001  
C    3.5148523   -0.0005089   -2.6449955  
C    4.7727382   -0.0006031   -3.3759000  
C    4.3760686   -0.0003763   -4.8004127  
N    3.0779899   -0.0000325   -4.9381841  
C    5.3463911   -0.0003437   -5.8603948  
C    6.6535655   -0.0001401   -5.5130774  
O    7.6652141   -0.0000938   -6.3977289  
C    7.0856176    0.0000101   -4.0842692  
O    8.2923980    0.0000686   -3.8415698  
C    6.0711797   -0.0000707   -3.0152321  
H    3.3844828   -0.0005938   -1.5763142  
H    5.0281922   -0.0003826   -6.8927024  
H    8.4720664    0.0000892   -5.8517046  
C    0.0000000    0.0000000    0.0000000  
C    1.0541688   -0.0001722   -0.8560390  
C    0.5103141   -0.0000453   -2.1935955  
C   -0.9576367    0.0002460   -2.0455731  
N   -1.2018459   -0.0001392   -0.6915969  
C   -1.8348307    0.0008318   -3.0810611  
C   -1.2972843    0.0009738   -4.4314606  
O   -2.0050665    0.0014267   -5.4301321  
C    0.2542628    0.0004186   -4.6117570  
O    0.7184676    0.0002258   -5.7439117  
C    1.0974555    0.0000874   -3.4189127  
H    2.0940752   -0.0005483   -0.5817978  
H   -2.9081051    0.0011670   -2.9507061  
H   -2.1128194    0.0014912   -0.2706792  
C    0.0000000    0.0000000    1.4700000  
C    1.0662921    0.0000102    2.3034270  
C    0.4961870   -0.0000064    3.6418889  
C   -0.9663858    0.0000850    3.4240247  
N   -1.2632773    0.0000084    2.1528658  
C   -1.8985362    0.0000517    4.5177257  
C   -1.3925775   -0.0004564    5.7720543  
O   -2.1456383   -0.0005410    6.8851312  
C    0.0786232   -0.0009323    6.0245000  
O    0.4683759   -0.0012588    7.1921102  
C    1.0143166   -0.0008442    4.8859032  
H    2.1107198   -0.0000632    2.0421868  
H   -2.9622183    0.0003270    4.3293377  
H   -1.5042274   -0.0009692    7.6184419  
H    2.0724152   -0.0013148    5.1109744  
