60

C    7.8456562   -5.6344752   -6.6509954  
C    7.1096313   -4.6493871   -6.0342816  
C    7.3367898   -3.4432291   -6.7610433  
C    8.2272802   -3.7566146   -7.8196945  
N    8.5178060   -5.0948166   -7.7226000  
C    8.6711298   -2.8038612   -8.7416754  
C    8.2073515   -1.5112641   -8.5924118  
O    8.6086648   -0.5415698   -9.4651405  
C    7.3187205   -1.1789453   -7.5423097  
O    6.9479279    0.1498274   -7.5274909  
C    6.8806481   -2.1182897   -6.6322265  
H    6.4866085   -4.7833974   -5.1665973  
H    9.1171099   -5.6052782   -8.3456914  
H    9.3498916   -3.0362890   -9.5506636  
H    8.1746060    0.2746879   -9.1848165  
H    6.3479535    0.2899492   -6.7885733  
H    7.9454746   -6.6790373   -6.4104007  
C    5.9676386   -2.1403205   -4.2647281  
C    5.9574583   -1.7327294   -5.5552103  
C    4.8270664   -0.8220463   -5.6520101  
C    4.2518649   -0.7958517   -4.2900108  
N    4.9163000   -1.5666196   -3.4724335  
C    3.1006054    0.0006263   -3.9654951  
C    2.5492758    0.7377403   -4.9564710  
O    1.4731211    1.5264225   -4.7955004  
C    3.1069012    0.7327485   -6.3410972  
O    2.5539556    1.4279022   -7.1932903  
C    4.2884406   -0.0925700   -6.6488934  
H    1.3195665    1.9186833   -5.6739679  
H    4.6618643   -0.0685368   -7.6638849  
H    6.6542206   -2.8225236   -3.7891473  
C    3.2798083    0.0005857   -1.4499652  
C    2.5571142    0.0005565   -2.5996556  
C    1.1637432    0.0001548   -2.2210361  
C    1.1336964   -0.0000200   -0.7459473  
N    2.4483512   -0.0001428   -0.3402723  
C    0.0000000    0.0000000    0.0000000  
C   -1.2757368   -0.0000186   -0.6964415  
O   -2.3524598   -0.0000639   -0.1142311  
C   -1.2676497   -0.0000872   -2.2584083  
O   -2.3355766   -0.0004101   -2.8557295  
C    0.0181558    0.0001758   -2.9516296  
H    0.0150788    0.0003319   -4.0331631  
H    4.3498547    0.0008612   -1.3200026  
H    2.7563626    0.0012823    0.6148059  
C    2.4951002    2.0940188    2.9809380  
C    1.9440701    1.6314916    1.8291961  
C    0.8759964    0.7350050    2.2038498  
C    0.8497377    0.7130254    3.6788474  
N    1.8560616    1.5571714    4.0882609  
C   -0.0205033   -0.0168748    4.4215661  
C   -0.9962600   -0.8356168    3.7214979  
O   -1.8224391   -1.5286685    4.3006425  
C   -0.9864710   -0.8277881    2.1595606  
O   -1.8030528   -1.5133726    1.5592035  
C    0.0000000    0.0000000    1.4700000  
H    2.2509283    1.8888011    0.8310761  
H   -0.0229599   -0.0187323    5.5027230  
H    3.3143982    2.7817323    3.1139444  
H    2.0889452    1.7545833    5.0442112  
