60

C    3.8421999   -2.1155340   -4.3699145  
C    5.0765371   -1.6157120   -4.7149606  
C    4.8766315   -0.7422038   -5.8247443  
C    3.4881900   -0.7487803   -6.1147679  
N    2.8896812   -1.5943045   -5.2139381  
C    2.9287796    0.0029119   -7.1524612  
C    3.7865785    0.7755494   -7.9110066  
O    3.2932554    1.5292958   -8.9364392  
C    5.1749424    0.7950429   -7.6373578  
O    5.8964569    1.6135128   -8.4816727  
C    5.7275442    0.0535227   -6.6139788  
H    6.0067624   -1.8525156   -4.2275187  
H    1.9063478   -1.7916066   -5.1680280  
H    4.0495591    1.9840683   -9.3294437  
H    6.8237322    1.5693396   -8.2290615  
H    6.7946843    0.0884932   -6.4283274  
H    3.5660909   -2.8037047   -3.5894382  
C   -0.8287671    0.0000935   -4.7555305  
C    0.4848184    0.0005134   -5.0812188  
C    0.5106014    0.0006415   -6.5358093  
C   -0.9135384    0.0001370   -6.9338159  
N   -1.7033612   -0.0001050   -5.8945040  
C   -1.3181679    0.0001429   -8.3127146  
C   -0.3443510    0.0010199   -9.2513378  
O   -0.5775765    0.0011265  -10.5748356  
C    1.1017796    0.0019175   -8.8813812  
O    1.9341176    0.0025664   -9.7882625  
C    1.4913207    0.0018489   -7.4600497  
H    1.3316906    0.0008020   -4.4164760  
H   -2.3661194   -0.0004384   -8.5748366  
H    0.3072628    0.0018575  -10.9825260  
C    1.0672566   -0.0000698   -0.8321912  
C    0.0000000    0.0000000    0.0000000  
C   -1.1601226   -0.0000736   -0.8778472  
C   -0.5938732   -0.0000770   -2.2438435  
N    0.7113365   -0.0001555   -2.2234123  
C   -1.4286989   -0.0001880   -3.4135239  
C   -2.7683117   -0.0006800   -3.2270522  
O   -3.6653907   -0.0008306   -4.2276967  
C   -3.3702026   -0.0010611   -1.8610771  
O   -4.5974909   -0.0013781   -1.7662957  
C   -2.4926826   -0.0008944   -0.6770655  
H   -4.5324249   -0.0012263   -3.7833950  
H   -2.9677773   -0.0012975    0.2947963  
H    2.1134390   -0.0000546   -0.5705121  
C    2.3971438    2.0127888    3.1728260  
C    1.9431056    1.6308205    1.9564670  
C    0.8496017    0.7127664    2.2356185  
C    0.7794028    0.6545384    3.7115134  
N    1.6840587    1.4146091    4.2663826  
C   -0.1885723   -0.1578550    4.3957118  
C   -1.0476298   -0.8789867    3.6398520  
O   -2.0015663   -1.6796266    4.1448486  
C   -1.0022026   -0.8410666    2.1483229  
O   -1.8147390   -1.5232959    1.5241687  
C    0.0000000    0.0000000    1.4700000  
H    2.3054237    1.9346118    0.9892483  
H   -0.2170646   -0.1815267    5.4753125  
H   -2.4487139   -2.0549881    3.3649027  
H    3.2048689    2.6911772    3.3971983  
