60

C    8.2451340   -2.1160268    1.9360794  
C    9.5267138   -1.6160142    1.9331395  
C    9.6302570   -0.7424889    0.8102720  
C    8.3696644   -0.7492519    0.1600526  
N    7.5524811   -1.5948985    0.8683690  
C    8.1075238    0.0024032   -0.9893326  
C    9.1366019    0.7751943   -1.4912975  
O    8.9348773    1.5289128   -2.6112214  
C   10.4014921    0.7948751   -0.8568796  
O   11.3221285    1.6134830   -1.4778892  
C   10.6608906    0.0533918    0.2768929  
H   10.2930503   -1.8527047    2.6512618  
H    6.5926192   -1.7923432    0.6500541  
H    9.7685903    1.9838093   -2.7880176  
H   12.1482951    1.5694319   -0.9868591  
H   11.6397113    0.0885071    0.7407401  
H    7.7707579   -2.8042689    2.6144952  
C    5.5868526   -0.0000777   -1.0681558  
C    6.8043821    0.0011473   -1.6695671  
C    6.5701481    0.0006862   -3.0943372  
C    5.1058543   -0.0008902   -3.2749811  
N    4.5679461   -0.0016854   -2.0086701  
C    4.4796776   -0.0013368   -4.4789774  
C    5.3028523   -0.0004140   -5.6768575  
O    4.8337320   -0.0007817   -6.8074446  
C    6.8558133    0.0010067   -5.5091795  
O    7.5591489    0.0014858   -6.5104681  
C    7.4139942    0.0016530   -4.1592592  
H    3.4041775   -0.0023688   -4.5894723  
H    8.4901793    0.0028423   -4.0517873  
H    5.3482112   -0.0001581   -0.0169946  
C    3.1301149   -0.0010311   -1.7028252  
C    2.5367768   -0.0002767   -0.4864665  
C    1.1089904    0.0001028   -0.7656183  
C    1.0177872   -0.0004148   -2.2415132  
N    2.1993578   -0.0011611   -2.7963820  
C   -0.2459209   -0.0002877   -2.9257118  
C   -1.3675319   -0.0000605   -2.1698524  
O   -2.6129313    0.0000867   -2.6748490  
C   -1.3083584    0.0000910   -0.6783232  
O   -2.3693261    0.0004206   -0.0541692  
C    0.0000000    0.0000000    0.0000000  
H    3.0096017   -0.0001007    0.4807525  
H   -0.2829630   -0.0004687   -4.0053125  
H   -3.1967441    0.0002094   -1.8949034  
C    0.8681109    0.7263879    2.2709268  
C    0.6127770    0.5096195    3.5869401  
C   -0.4920590   -0.4175482    3.6542670  
C   -0.8620974   -0.7254003    2.2596025  
N    0.0000000    0.0000000    1.4700000  
C   -1.8641242   -1.5660088    1.8976294  
C   -2.6293522   -2.2103885    2.9520183  
O   -3.5512764   -2.9839180    2.7283916  
C   -2.2549728   -1.8987399    4.4361073  
O   -2.8923672   -2.4351063    5.3323774  
C   -1.1543735   -0.9755647    4.7012123  
H    1.1382914    0.9492124    4.4159191  
H   -2.1192137   -1.7782617    0.8686553  
H   -0.9013378   -0.7652422    5.7314848  
H    1.6172880    1.3558399    1.8188057  
