60

C    7.1066610    0.0009526    2.3854222  
C    5.8416570   -0.0003122    2.9260058  
C    5.9948978   -0.0005056    4.3441442  
C    7.3877486    0.0009725    4.6122678  
N    8.0339416   -0.0001211    3.4010492  
C    7.9081029    0.0015216    5.9099658  
C    7.0059482    0.0008681    6.9560505  
O    7.4598762    0.0017118    8.2432815  
C    5.6125116   -0.0009814    6.7087721  
O    4.8445909   -0.0018474    7.8549149  
C    5.0984599   -0.0017973    5.4288206  
H    4.9216127   -0.0021149    2.3669813  
H    9.0298653    0.0110763    3.2745915  
H    8.9686061    0.0025030    6.1209971  
H    6.6767604    0.0007486    8.8089610  
H    3.9170208   -0.0030622    7.5995405  
H    4.0263551   -0.0033984    5.2704967  
C    4.7390840    0.0009613   -1.2727298  
C    5.6949926    0.0015506   -2.2307577  
C    6.9549534    0.0016803   -1.5034347  
C    6.5623376    0.0012140   -0.0777992  
N    5.2646562    0.0007106    0.0636643  
C    7.5356720    0.0011403    0.9794175  
C    8.8418533    0.0011264    0.6283828  
O    9.8560149    0.0010679    1.5101523  
C    9.2698380    0.0012200   -0.8016485  
O   10.4759225    0.0013257   -1.0477807  
C    8.2523630    0.0013383   -1.8677953  
H    5.5615832    0.0017688   -3.2990634  
H   10.6613103    0.0010472    0.9618348  
H    8.6033659    0.0012884   -2.8910385  
C    3.2798077    0.0005856   -1.4499661  
C    2.5571132    0.0005565   -2.5996564  
C    1.1637425    0.0001547   -2.2210366  
C    1.1336959   -0.0000200   -0.7459475  
N    2.4483509   -0.0001429   -0.3402730  
C    0.0000000    0.0000000    0.0000000  
C   -1.2757370   -0.0000187   -0.6964411  
O   -2.3524597   -0.0000640   -0.1142306  
C   -1.2676502   -0.0000874   -2.2584078  
O   -2.3355774   -0.0004102   -2.8557287  
C    0.0181551    0.0001758   -2.9516297  
H    2.9547342    0.0006074   -3.5989118  
H    0.0150776    0.0003317   -4.0331632  
H    2.7563626    0.0012823    0.6148051  
C    0.0000000    0.0000000    1.4700000  
C    1.0662921    0.0000102    2.3034270  
C    0.4961870   -0.0000064    3.6418889  
C   -0.9663858    0.0000850    3.4240247  
N   -1.2632773    0.0000084    2.1528658  
C   -1.8985362    0.0000517    4.5177257  
C   -1.3925775   -0.0004564    5.7720543  
O   -2.1456383   -0.0005410    6.8851312  
C    0.0786232   -0.0009323    6.0245000  
O    0.4683759   -0.0012588    7.1921102  
C    1.0143166   -0.0008442    4.8859032  
H    2.1107198   -0.0000632    2.0421868  
H   -2.9622183    0.0003270    4.3293377  
H   -1.5042274   -0.0009692    7.6184419  
H    2.0724152   -0.0013148    5.1109744  
