60

C   -3.7246767    0.7075106   -8.0147416  
C   -4.9395413    0.4562875   -8.6092649  
C   -4.6981440   -0.4522807   -9.6820327  
C   -3.3057065   -0.7223068   -9.6934133  
N   -2.7442356   -0.0006476   -8.6694134  
C   -2.7094851   -1.5813279  -10.6215255  
C   -3.5339856   -2.1788771  -11.5549667  
O   -3.0040758   -3.0267703  -12.4840987  
C   -4.9256255   -1.9217199  -11.5599809  
O   -5.6111683   -2.5920049  -12.5519944  
C   -5.5144566   -1.0741766  -10.6448437  
H   -5.8834391    0.8770773   -8.3076237  
H   -1.6488391   -1.7911709  -10.6355910  
H   -3.7414612   -3.3284137  -13.0304870  
H   -6.5433069   -2.3633707  -12.4852957  
H   -6.5831260   -0.8963987  -10.6734450  
H   -3.4797615    1.3369238   -7.1764017  
C   -0.8287671    0.0000935   -4.7555305  
C    0.4848182    0.0005136   -5.0812193  
C    0.5106010    0.0006421   -6.5358100  
C   -0.9135391    0.0001375   -6.9338162  
N   -1.7033614   -0.0001048   -5.8945041  
C   -1.3181690    0.0001437   -8.3127145  
C   -0.3443518    0.0010207   -9.2513381  
O   -0.5775774    0.0011272  -10.5748360  
C    1.1017783    0.0019184   -8.8813818  
O    1.9341165    0.0025678   -9.7882630  
C    1.4913197    0.0018496   -7.4600501  
H    1.3316904    0.0008021   -4.4164766  
H    0.3072611    0.0018585  -10.9825257  
H    2.5491448    0.0026322   -7.2336964  
C    1.0672566   -0.0000698   -0.8321912  
C    0.0000000    0.0000000    0.0000000  
C   -1.1601226   -0.0000736   -0.8778472  
C   -0.5938732   -0.0000770   -2.2438435  
N    0.7113365   -0.0001555   -2.2234123  
C   -1.4286989   -0.0001880   -3.4135239  
C   -2.7683117   -0.0006800   -3.2270522  
O   -3.6653907   -0.0008306   -4.2276967  
C   -3.3702026   -0.0010611   -1.8610771  
O   -4.5974909   -0.0013781   -1.7662957  
C   -2.4926826   -0.0008944   -0.6770655  
H   -4.5324249   -0.0012263   -3.7833950  
H   -2.9677773   -0.0012975    0.2947963  
H    2.1134390   -0.0000546   -0.5705121  
C    0.0000000    0.0000000    1.4700000  
C    1.0541688    0.0001722    2.3260392  
C    0.5103138    0.0000454    3.6635956  
C   -0.9576371   -0.0002459    3.5155732  
N   -1.2018458    0.0001392    2.1615969  
C   -1.8348311   -0.0008317    4.5510609  
C   -1.2972847   -0.0009736    5.9014604  
O   -2.0050672   -0.0014265    6.9001319  
C    0.2542623   -0.0004184    6.0817573  
O    0.7184670   -0.0002256    7.2139121  
C    1.0974552   -0.0000873    4.8889129  
H    2.0940752    0.0005483    2.0517982  
H   -2.9081052   -0.0011668    4.4207061  
H    2.1707277    0.0000911    5.0223670  
H   -2.1128194   -0.0014912    1.7406791  
