64

C    4.3240946    0.8361704   -8.4362726  
C    5.4349071    0.0347336   -8.5637980  
C    5.8898606    0.1647449   -9.9094256  
C    5.0099989    1.0665589  -10.5609629  
N    4.0698786    1.4536984   -9.6385129  
C    5.1572892    1.4302564  -11.9029086  
C    6.2121874    0.8736696  -12.5997435  
O    6.4025741    1.1946902  -13.9126454  
C    7.1005343   -0.0283391  -11.9672581  
O    8.0999294   -0.4966262  -12.7950612  
C    6.9556735   -0.3877950  -10.6435000  
H    5.8638100   -0.5701347   -7.7833046  
H    3.3201959    2.0991686   -9.8097579  
H    4.4900239    2.1169326  -12.4053384  
H    7.1819599    0.7035818  -14.2035683  
H    8.6552063   -1.0990850  -12.2907654  
H    7.6517519   -1.0812190  -10.1862079  
C    4.4128410   -0.7149979   -4.2439394  
C    4.6970059   -0.4625592   -5.5660557  
C    3.7103220    0.4538794   -6.0363697  
C    2.8434717    0.7272311   -4.9474360  
N    3.2973506   -0.0000934   -3.8752374  
C    1.7511549    1.5939650   -5.0494419  
C    1.5300663    2.1959489   -6.2729260  
O    0.4778145    3.0514073   -6.4277506  
C    2.3836167    1.9355796   -7.3713235  
O    2.0311535    2.6110230   -8.5214935  
C    3.4612421    1.0804294   -7.2714883  
H    5.5142009   -0.8876054   -6.1233003  
H    1.0866419    1.8063776   -4.2233032  
H    0.5053734    3.3550524   -7.3444315  
H    2.6575933    2.3797603   -9.2140931  
H    4.9167626   -1.3495506   -3.5351621  
C    3.3321174    0.0004714   -1.3379332  
C    2.6974186    0.0000115   -2.5332308  
C    1.2800441   -0.0002119   -2.2052838  
C    1.2395035    0.0000643   -0.7271293  
N    2.4394063    0.0005458   -0.2131034  
C    0.0000000    0.0000000    0.0000000  
C   -1.1468701    0.0000634   -0.7169542  
O   -2.3742201    0.0000072   -0.1695492  
C   -1.1388767    0.0001606   -2.2096354  
O   -2.2206229    0.0000903   -2.7970413  
C    0.1454526    0.0001815   -2.9324239  
H   -2.9844344    0.0001023   -0.9290168  
H    0.1083580    0.0003680   -4.0135594  
H    4.3940040    0.0007617   -1.1498630  
C    2.5311839    2.1237619    3.0120429  
C    1.9795631    1.6616747    1.8395852  
C    0.9223175    0.7739173    2.1983588  
C    0.8753926    0.7337535    3.6154372  
N    1.8668922    1.5631002    4.0777464  
C   -0.0496243   -0.0427881    4.3197917  
C   -0.9437528   -0.7922060    3.5801400  
O   -1.8685244   -1.5680278    4.2172520  
C   -0.9124520   -0.7656372    2.1655264  
O   -1.8671164   -1.5663939    1.5732860  
C    0.0000000    0.0000000    1.4700000  
H    2.3005065    1.9304404    0.8477417  
H    2.0679347    1.7444845    5.0445261  
H   -0.0904770   -0.0778569    5.3997470  
H   -2.3849669   -2.0011402    3.5251786  
H   -1.7775064   -1.4909735    0.6183591  
H    3.3468514    2.8078103    3.1724291  
