60

C    1.2191010   -2.9618403   -9.3508804  
C    1.9330395   -2.5274886  -10.4436278  
C    1.6661214   -1.1337687  -10.5881923  
C    0.7752552   -0.7703144   -9.5459903  
N    0.5227574   -1.9041781   -8.8144070  
C    0.2970127    0.5329591   -9.3800051  
C    0.7261463    1.4867662  -10.2823769  
O    0.2903920    2.7750445  -10.1663113  
C    1.6145537    1.1435133  -11.3291460  
O    1.9485423    2.2046283  -12.1451297  
C    2.0865445   -0.1420552  -11.4936605  
H    2.5672344   -3.1400782  -11.0613046  
H   -0.0677131   -1.9523591   -8.0038484  
H    0.7041701    3.2691274  -10.8859892  
H    2.5509645    1.8876465  -12.8249933  
H    2.7660659   -0.3750601  -12.3051027  
H    1.1503794   -3.9427151   -8.9125644  
C    0.1961175   -0.6857269   -5.1976468  
C   -0.8712826    0.0001710   -4.7267111  
C   -1.3726388    0.7456798   -5.8709829  
C   -0.4644983    0.3818146   -6.9797964  
N    0.4570580   -0.4570291   -6.5911259  
C   -0.6264066    0.9182525   -8.3030899  
C   -1.6492906    1.7787628   -8.5093994  
O   -1.9180360    2.3551729   -9.6932768  
C   -2.5830256    2.1652383   -7.4107923  
O   -3.4919438    2.9537009   -7.6704371  
C   -2.3959896    1.6014058   -6.0620765  
H   -2.6997675    2.9120521   -9.5261428  
H   -3.0937610    1.9063895   -5.2937467  
H    0.8441376   -1.3580427   -4.6581707  
C    1.0965514    0.0001359   -0.8010305  
C    0.0000000    0.0000000    0.0000000  
C   -1.1546563    0.0001470   -0.8669513  
C   -0.6372014    0.0003519   -2.2486282  
N    0.7342871    0.0007337   -2.1395014  
C   -1.4147739    0.0001352   -3.3608717  
C   -2.8576049   -0.0001048   -3.1854462  
O   -3.6427779   -0.0002494   -4.1244907  
C   -3.4275840   -0.0000725   -1.7311666  
O   -4.6406831    0.0000333   -1.5710060  
C   -2.4891867   -0.0001091   -0.6116744  
H   -2.8919122   -0.0002918    0.3920866  
H    2.1388272    0.0000663   -0.5261648  
H    1.3735872   -0.0006099   -2.9130262  
C    0.8681109    0.7263879    2.2709268  
C    0.6127770    0.5096195    3.5869401  
C   -0.4920590   -0.4175482    3.6542670  
C   -0.8620974   -0.7254003    2.2596025  
N    0.0000000    0.0000000    1.4700000  
C   -1.8641242   -1.5660088    1.8976294  
C   -2.6293522   -2.2103885    2.9520183  
O   -3.5512764   -2.9839180    2.7283916  
C   -2.2549728   -1.8987399    4.4361073  
O   -2.8923672   -2.4351063    5.3323774  
C   -1.1543735   -0.9755647    4.7012123  
H    1.1382914    0.9492124    4.4159191  
H   -2.1192137   -1.7782617    0.8686553  
H   -0.9013378   -0.7652422    5.7314848  
H    1.6172880    1.3558399    1.8188057  
