60

C    0.5335753   -0.7189664   -5.2240529  
C   -0.2963289   -0.0005348   -4.3948470  
C   -1.1926763    0.7276175   -5.2320779  
C   -0.8591806    0.4107232   -6.5738253  
N    0.1943088   -0.4685472   -6.5330745  
C   -1.5394153    0.9501093   -7.6697869  
C   -2.5753767    1.8251064   -7.4064600  
O   -3.2733090    2.3805997   -8.4395776  
C   -2.9228600    2.1539302   -6.0745639  
O   -3.9763323    3.0394244   -5.9774101  
C   -2.2520516    1.6224005   -4.9928895  
H    0.6400945   -0.8776732   -7.3342434  
H   -1.2900295    0.7127208   -8.6948023  
H   -3.9422210    2.9523873   -8.0409805  
H   -4.1466492    3.2084433   -5.0457295  
H   -2.5407495    1.8930714   -3.9839946  
H    1.3415964   -1.3890960   -4.9853337  
C    3.1301148   -0.0010315   -1.7028253  
C    2.5367766   -0.0002767   -0.4864666  
C    1.1089903    0.0001025   -0.7656183  
C    1.0177867   -0.0004153   -2.2415131  
N    2.1993574   -0.0011616   -2.7963821  
C   -0.2459218   -0.0002884   -2.9257117  
C   -1.3675324   -0.0000610   -2.1698519  
O   -2.6129318    0.0000862   -2.6748483  
C   -1.3083588    0.0000908   -0.6783229  
O   -2.3693264    0.0004202   -0.0541688  
C    0.0000000    0.0000000    0.0000000  
H    3.0096015   -0.0001006    0.4807520  
H   -3.1967441    0.0002093   -1.8949029  
C    6.7235401   -0.0015095    0.8630511  
C    5.4473218   -0.0011277    0.3990034  
C    5.5236514   -0.0015789   -1.0428735  
C    6.9592461   -0.0022888   -1.3832524  
N    7.6329843   -0.0018118   -0.1836828  
C    7.4493961   -0.0032614   -2.6487391  
C    6.4996346   -0.0034075   -3.7489606  
O    6.8417407   -0.0041923   -4.9242320  
C    4.9744853   -0.0024128   -3.4117305  
O    4.1654296   -0.0022195   -4.3297119  
C    4.5679459   -0.0016858   -2.0086704  
H    4.5543634   -0.0004090    0.9983689  
H    8.5062542   -0.0038999   -2.8766909  
H    7.0761900   -0.0013785    1.8816424  
H    8.6315326   -0.0036620   -0.0839629  
C    2.5528530    2.1414826    2.8079335  
C    2.0663498    1.7338582    4.0032312  
C    0.9804344    0.8229586    3.6752840  
C    0.9495562    0.7966882    2.1971295  
N    1.8690446    1.5676019    1.6831036  
C    0.0000000    0.0000000    1.4700000  
C   -0.8785127   -0.7372425    2.1869543  
O   -1.8187535   -1.5261249    1.6395491  
C   -0.8723269   -0.7321790    3.6796354  
O   -1.7010379   -1.4274584    4.2670412  
C    0.1115397    0.0933559    4.4024240  
H    2.4028853    2.0163452    4.9860947  
H   -2.2861435   -1.9184361    2.3990168  
H    0.0832434    0.0693689    5.4835595  
H    3.3664920    2.8238276    2.6198634  
