62

C    6.0651568   -0.7129897   -1.0162955  
C    6.7940735   -0.4646223    0.1236441  
C    7.8324978    0.4447245   -0.2360279  
C    7.6853970    0.7181465   -1.6200538  
N    6.6040902   -0.0023257   -2.0631269  
C    8.5397274    1.5787858   -2.3159050  
C    9.5609780    2.1744902   -1.6015105  
O   10.4238669    3.0238399   -2.2316240  
C    9.7242779    1.9139422   -0.2201108  
O   10.7879179    2.5827323    0.3497419  
C    8.8819984    1.0648012    0.4669490  
H    6.6017480   -0.8877662    1.0947017  
H    8.4330398    1.7912158   -3.3707474  
H   11.0506369    3.3237831   -1.5604625  
H   10.8276909    2.3518141    1.2828549  
H    9.0319927    0.8844240    1.5249871  
H    5.2043318   -1.3419548   -1.1657692  
C    2.4521485    0.0014838   -3.7217479  
C    3.5379007    0.0003034   -2.8769945  
C    4.7042704    0.0010689   -3.6980798  
C    4.2640505    0.0030183   -5.0464602  
N    2.8914059    0.0012707   -5.0249751  
C    5.1472042    0.0045259   -6.1303535  
C    6.4993915    0.0043639   -5.8479195  
O    7.4055691    0.0061451   -6.8686304  
C    6.9581315    0.0020568   -4.5091255  
O    8.3328189    0.0017762   -4.3925955  
C    6.0874477    0.0002954   -3.4393439  
H    3.4945818   -0.0020601   -1.8013036  
H    2.2982903    0.0125971   -5.8349547  
H    4.8180480    0.0058704   -7.1603320  
H    8.2798215    0.0053853   -6.4575981  
H    8.5587829    0.0001975   -3.4574264  
C    0.0000000    0.0000000    0.0000000  
C    1.0662924   -0.0000102   -0.8334267  
C    0.4961874    0.0000064   -2.1718888  
C   -0.9663853   -0.0000849   -1.9540250  
N   -1.2632772   -0.0000084   -0.6828660  
C   -1.8985357   -0.0000515   -3.0477261  
C   -1.3925767    0.0004566   -4.3020548  
O   -2.1456375    0.0005411   -5.4151316  
C    0.0786242    0.0009324   -4.5545000  
O    0.4683770    0.0012590   -5.7221099  
C    1.0143173    0.0008443   -3.4159029  
H    2.1107200    0.0000632   -0.5721862  
H   -2.9622180   -0.0003269   -2.8593382  
H   -1.5042262    0.0009694   -6.1484423  
C    3.2573670    0.0002920    2.9809380  
C    2.5379467    0.0001709    1.8291961  
C    1.1435042   -0.0000331    2.2038498  
C    1.1092607    0.0000083    3.6788474  
N    2.4227561   -0.0001909    4.0882609  
C   -0.0265533    0.0002524    4.4215661  
C   -1.3003036    0.0002640    3.7214979  
O   -2.3786784    0.0004133    4.3006425  
C   -1.2877726   -0.0000311    2.1595606  
O   -2.3539958   -0.0003306    1.5592035  
C    0.0000000    0.0000000    1.4700000  
H    2.9384090    0.0000368    0.8310761  
H   -0.0296291    0.0004086    5.5027230  
H    4.3270393    0.0004765    3.1139444  
H    2.7280493    0.0013407    5.0442112  
