64

C   -0.1387077    0.0017021   -4.3179690  
C    0.8680295    0.0011955   -5.2554908  
C    0.2429722    0.0018233   -6.5376383  
C   -1.1582725    0.0029979   -6.3175531  
N   -1.3554488    0.0009415   -4.9589754  
C   -2.0878500    0.0041707   -7.3619062  
C   -1.5938803    0.0044645   -8.6519339  
O   -2.4574176    0.0059478   -9.7089647  
C   -0.1991525    0.0029316   -8.8918279  
O    0.1346063    0.0030294  -10.2304648  
C    0.7184771    0.0015010   -7.8620321  
H    1.9231277   -0.0006417   -5.0415808  
H   -2.2494818    0.0117259   -4.5022808  
H   -1.9125267    0.0055962  -10.5066862  
H    1.0938155    0.0019694  -10.3047653  
H    1.7807474    0.0001630   -8.0766450  
C    3.3041276    0.0001179   -1.5420426  
C    2.5845371   -0.0004779   -0.3695857  
C    1.2040009   -0.0000006   -0.7283589  
C    1.1422378    0.0006039   -2.1454371  
N    2.4348645    0.0026112   -2.6077465  
C   -0.0655179    0.0008800   -2.8497922  
C   -1.2321765    0.0002327   -2.1101402  
O   -2.4392813    0.0001149   -2.7472526  
C   -1.1911209   -0.0000006   -0.6955274  
O   -2.4371527   -0.0002319   -0.1032865  
C    0.0000000    0.0000000    0.0000000  
H    3.0031534   -0.0000661    0.6222584  
H    2.7054636   -0.0071095   -3.5745261  
H   -3.1132983   -0.0000647   -2.0551788  
H   -2.3200284   -0.0004071    0.8516403  
H    4.3686627    0.0004072   -1.7024293  
C   -4.6875231    2.1285242   -4.4091988  
C   -3.6106918    1.6659480   -5.1295628  
C   -4.1236630    0.7790716   -6.1219897  
C   -5.5319489    0.7399246   -5.9572909  
N   -5.8407368    1.5690024   -4.9075778  
C   -6.3668578   -0.0355737   -6.7674252  
C   -5.7692535   -0.7849743   -7.7621338  
O   -6.5376331   -1.5597998   -8.5820428  
C   -4.3657434   -0.7594112   -7.9419220  
O   -3.9229640   -1.5600115   -8.9745541  
C   -3.5414443    0.0051964   -7.1429023  
H   -2.5818935    1.9338302   -4.9598379  
H   -6.7666340    1.7509413   -4.5646582  
H   -7.4408738   -0.0698646   -6.6469447  
H   -5.9305620   -1.9930869   -9.1960394  
H   -2.9652854   -1.4853108   -9.0281747  
H   -4.7240667    2.8121979   -3.5784073  
C    0.8400945    0.7047457    2.2710304  
C    0.0000000    0.0000000    1.4700000  
C   -0.8844236   -0.7423113    2.3369512  
C   -0.4878984   -0.4098547    3.7186280  
N    0.5629682    0.4714286    3.6095011  
C   -1.0836927   -0.9095027    4.8308716  
C   -2.1891196   -1.8367527    4.6554461  
O   -2.7906899   -2.3413415    5.5944904  
C   -2.6257283   -2.2031529    3.2011665  
O   -3.5549479   -2.9829990    3.0410059  
C   -1.9068976   -1.5999348    2.0816745  
H   -0.7774656   -0.6525820    5.8354244  
H   -2.2155208   -1.8586617    1.0779135  
H    1.6384792    1.3747609    1.9961646  
H    1.0518368    0.8833920    4.3830260  
