60

C    5.2775539   -3.0487596   -1.9375289  
C    6.4695608   -3.6957719   -2.1676664  
C    6.7426874   -4.4883344   -1.0136098  
C    5.6730313   -4.2829639   -0.1049925  
N    4.8019475   -3.4020325   -0.6964221  
C    5.6102930   -4.9094447    1.1433567  
C    6.6460845   -5.7589507    1.4804787  
O    6.6348307   -6.3968679    2.6871063  
C    7.7222703   -5.9764309    0.5875376  
O    8.6760285   -6.8494537    1.0687006  
C    7.7849541   -5.3585192   -0.6440399  
H    7.0690934   -3.6065287   -3.0573794  
H    3.9425845   -3.0761205   -0.2923701  
H    4.7978755   -4.7570103    1.8404538  
H    7.4378348   -6.9329319    2.7200534  
H    9.3668718   -6.9409356    0.4053980  
H    8.6220373   -5.5444605   -1.3067584  
C    4.5294744   -2.1111776   -2.7873616  
C    4.8355746   -1.6481491   -4.0267091  
C    3.7722451   -0.7522106   -4.4158869  
C    2.8147154   -0.7310537   -3.2936214  
N    3.3317096   -1.5757412   -2.3385769  
C    1.6707636   -0.0012343   -3.2725974  
C    1.3618916    0.8179367   -4.4328095  
O    0.3558254    1.5108612   -4.5101837  
C    2.3616931    0.8105942   -5.6328716  
O    2.1121086    1.4960728   -6.6152604  
C    3.5619227   -0.0167226   -5.5388108  
H    5.7067349   -1.9050618   -4.6026342  
H    4.2491855   -0.0160727   -6.3739118  
H    2.9056668   -1.7713787   -1.4512998  
C    1.0965514    0.0001358   -0.8010306  
C    0.0000000    0.0000000    0.0000000  
C   -1.1546565    0.0001470   -0.8669508  
C   -0.6372019    0.0003520   -2.2486278  
N    0.7342867    0.0007338   -2.1395012  
C   -1.4147744    0.0001354   -3.3608712  
C   -2.8576052   -0.0001047   -3.1854454  
O   -3.6427785   -0.0002490   -4.1244896  
C   -3.4275841   -0.0000727   -1.7311660  
O   -4.6406832    0.0000333   -1.5710049  
C   -2.4891868   -0.0001090   -0.6116739  
H   -1.0150456    0.0001617   -4.3654239  
H   -2.8919122   -0.0002919    0.3920871  
H    2.1388270    0.0000663   -0.5261650  
C    0.8400945    0.7047457    2.2710304  
C    0.0000000    0.0000000    1.4700000  
C   -0.8844236   -0.7423113    2.3369512  
C   -0.4878984   -0.4098547    3.7186280  
N    0.5629682    0.4714286    3.6095011  
C   -1.0836927   -0.9095027    4.8308716  
C   -2.1891196   -1.8367527    4.6554461  
O   -2.7906899   -2.3413415    5.5944904  
C   -2.6257283   -2.2031529    3.2011665  
O   -3.5549479   -2.9829990    3.0410059  
C   -1.9068976   -1.5999348    2.0816745  
H   -0.7774656   -0.6525820    5.8354244  
H   -2.2155208   -1.8586617    1.0779135  
H    1.6384792    1.3747609    1.9961646  
H    1.0518368    0.8833920    4.3830260  
