62

C   -0.6780184    0.8969579   -0.7919015  
C   -0.4642145    0.5862356   -2.1148550  
C    0.3856291   -0.5590406   -2.1414702  
C    0.6595937   -0.9054418   -0.7935548  
N    0.0000000    0.0000000    0.0000000  
C    1.4685912   -1.9898271   -0.4408239  
C    2.0106560   -2.7383386   -1.4675051  
O    2.8076637   -3.8082714   -1.1793460  
C    1.7492409   -2.4082838   -2.8186320  
O    2.3617878   -3.2491517   -3.7247614  
C    0.9514582   -1.3384867   -3.1673479  
H   -0.8698808    1.1201033   -2.9571216  
H    1.6813637   -2.2589785    0.5845970  
H    3.0764908   -4.1847529   -2.0274370  
H    2.1341971   -2.9570700   -4.6127333  
H   -1.2593522    1.6882929   -0.3505414  
C    0.7024694    2.4715719   -5.3849795  
C    0.8403284    1.5260225   -4.4200931  
C    0.6693911    0.2431673   -5.0603260  
C    0.4188774    0.5208340   -6.4875380  
N    0.4513817    1.8900271   -6.6184710  
C    0.2065062   -0.4318154   -7.4304390  
C    0.2257408   -1.8234900   -7.0116219  
O    0.0452079   -2.7545390   -7.7854804  
C    0.4889393   -2.1406895   -5.5049977  
O    0.5071476   -3.3086378   -5.1405444  
C    0.7043903   -1.0284282   -4.5828766  
H    1.0389031    1.7066132   -3.3786668  
H    0.0247084   -0.2067836   -8.4721780  
H    0.3158111    2.3897634   -7.4780822  
C    1.0281757    4.6311595   -4.0932904  
C    1.0410189    5.9706918   -4.3159189  
C    0.7901382    6.1657892   -5.7244041  
C    0.6288966    4.8204706   -6.3082792  
N    0.7849690    3.9345296   -5.2672992  
C    0.3778644    4.5763803   -7.6194267  
C    0.2587453    5.7146325   -8.5153772  
O    0.0338173    5.5989508   -9.7130110  
C    0.4261391    7.1484301   -7.9187129  
O    0.3282492    8.1144347   -8.6633690  
C    0.6943217    7.2847021   -6.4892510  
H    1.2074470    6.7348971   -3.5777415  
H    0.2628921    3.5817499   -8.0273498  
H    0.8087142    8.2808812   -6.0839541  
H    1.1761327    4.0942798   -3.1703826  
C    2.5311839    2.1237619    3.0120429  
C    1.9795631    1.6616747    1.8395852  
C    0.9223175    0.7739173    2.1983588  
C    0.8753926    0.7337535    3.6154372  
N    1.8668922    1.5631002    4.0777464  
C   -0.0496243   -0.0427881    4.3197917  
C   -0.9437528   -0.7922060    3.5801400  
O   -1.8685244   -1.5680278    4.2172520  
C   -0.9124520   -0.7656372    2.1655264  
O   -1.8671164   -1.5663939    1.5732860  
C    0.0000000    0.0000000    1.4700000  
H    2.3005065    1.9304404    0.8477417  
H    2.0679347    1.7444845    5.0445261  
H   -0.0904770   -0.0778569    5.3997470  
H   -2.3849669   -2.0011402    3.5251786  
H   -1.7775064   -1.4909735    0.6183591  
H    3.3468514    2.8078103    3.1724291  
