62

C    7.5282985   -3.6115186   -2.7222551  
C    8.6396600   -4.4170787   -2.8140007  
C    9.1081935   -4.3286012   -4.1583397  
C    8.2356679   -3.4467051   -4.8460055  
N    7.2866707   -3.0309821   -3.9453423  
C    8.3967137   -3.1243742   -6.1969156  
C    9.4580790   -3.7026133   -6.8657375  
O    9.6618910   -3.4220725   -8.1858764  
C   10.3392790   -4.5852923   -6.1970211  
O   11.3465320   -5.0792562   -7.0000072  
C   10.1808499   -4.9039423   -4.8643967  
H    9.0602062   -4.9979771   -2.0110737  
H    7.7350978   -2.4530598   -6.7268236  
H   10.4437420   -3.9222799   -8.4537718  
H   11.8962165   -5.6662762   -6.4719372  
H   10.8717245   -5.5834002   -4.3791053  
H    6.8880197   -3.4062469   -1.8815023  
C    6.1923725   -2.0934462   -4.2359241  
C    5.2191576   -1.6310076   -3.4094377  
C    4.3967566   -0.7348789   -4.1875411  
C    4.9747503   -0.7130124   -5.5448313  
N    6.0607559   -1.5568755   -5.5077373  
C    4.4832122    0.0165649   -6.5781802  
C    3.3064976    0.8350543   -6.3374472  
O    2.7884368    1.5278086   -7.2034755  
C    2.6779832    0.8273398   -4.9075117  
O    1.6873114    1.5127139   -4.6928198  
C    3.2973506   -0.0000934   -3.8752374  
H    5.0920136   -1.8881512   -2.3729409  
H    4.9222071    0.0183449   -7.5662034  
H    6.6635521   -1.7542833   -6.2853714  
C    3.3321174    0.0004714   -1.3379332  
C    2.6974186    0.0000115   -2.5332308  
C    1.2800441   -0.0002119   -2.2052838  
C    1.2395035    0.0000643   -0.7271293  
N    2.4394063    0.0005458   -0.2131034  
C    0.0000000    0.0000000    0.0000000  
C   -1.1468701    0.0000634   -0.7169542  
O   -2.3742201    0.0000072   -0.1695492  
C   -1.1388767    0.0001606   -2.2096354  
O   -2.2206229    0.0000903   -2.7970413  
C    0.1454526    0.0001815   -2.9324239  
H   -2.9844344    0.0001023   -0.9290168  
H    0.1083580    0.0003680   -4.0135594  
H    4.3940040    0.0007617   -1.1498630  
C    0.8676693    0.7151171    2.2619005  
C    0.5875920    0.4624972    3.5848544  
C   -0.5048400   -0.4542819    3.6114698  
C   -0.8517165   -0.7276451    2.2635546  
N    0.0000000    0.0000000    1.4700000  
C   -1.8902865   -1.5946756    1.9108239  
C   -2.5912627   -2.1969500    2.9375057  
O   -3.6148162   -3.0527051    2.6493466  
C   -2.2603868   -1.9365747    4.2886322  
O   -3.0513550   -2.6123276    5.1947621  
C   -1.2361111   -1.0811317    4.6373480  
H    1.1060808    0.8876438    4.4271209  
H   -2.1597133   -1.8070987    0.8854031  
H   -3.9636755   -3.3565188    3.4974381  
H   -2.7621927   -2.3810384    6.0827341  
H   -1.0058879   -0.9010589    5.6809233  
H    1.6167816    1.3499334    1.8205408  
