64

C    3.3041270    0.0001178   -1.5420432  
C    2.5845372   -0.0004779   -0.3695853  
C    1.2040007   -0.0000006   -0.7283591  
C    1.1422373    0.0006039   -2.1454374  
N    2.4348636    0.0026110   -2.6077466  
C   -0.0655186    0.0008800   -2.8497915  
C   -1.2321770    0.0002326   -2.1101397  
O   -2.4392818    0.0001149   -2.7472515  
C   -1.1911209   -0.0000006   -0.6955262  
O   -2.4371522   -0.0002319   -0.1032858  
C    0.0000000    0.0000000    0.0000000  
H    3.0031535   -0.0000661    0.6222580  
H    2.7054625   -0.0071097   -3.5745263  
H   -3.1132993   -0.0000646   -2.0551781  
H   -2.3200286   -0.0004070    0.8516413  
C    6.7068652   -0.0034178    1.2828889  
C    7.7136018   -0.0021475    0.3453677  
C    7.0885452   -0.0007420   -0.9367793  
C    5.6872999   -0.0009462   -0.7166943  
N    5.4901250   -0.0045361    0.6418810  
C    4.7577214    0.0005130   -1.7610465  
C    5.2516912    0.0025160   -3.0510726  
O    4.3881527    0.0043529   -4.1081026  
C    6.6464190    0.0023764   -3.2909673  
O    6.9801786    0.0041003   -4.6296031  
C    7.5640504    0.0006643   -2.2611726  
H    8.7687023   -0.0033295    0.5592768  
H    4.5960834    0.0050496    1.0985853  
H    4.9330445    0.0052560   -4.9058225  
H    7.9393885    0.0039071   -4.7039037  
H    8.6263216    0.0004197   -2.4757855  
H    6.7604653   -0.0050603    2.3581021  
C    2.3128790   -2.1207452   -5.9853285  
C    1.8202482   -1.6594121   -4.7865983  
C    0.7463172   -0.7716432   -5.0917841  
C    0.6288895   -0.7306953   -6.5047452  
N    1.5962662   -1.5596062   -7.0163174  
C   -0.3301663    0.0460748   -7.1617300  
C   -1.1864721    0.7949192   -6.3780528  
O   -2.1419349    1.5709321   -6.9678906  
C   -1.0847738    0.7675650   -4.9667673  
O   -2.0088877    1.5678198   -4.3272755  
C   -0.1387086    0.0017020   -4.3179679  
H    2.1902172   -1.9286751   -3.8121168  
H    1.7489518   -1.7404140   -7.9920106  
H   -0.4247436    0.0817402   -8.2382912  
H   -2.6233442    2.0035649   -6.2507168  
H   -1.8718324    1.4918815   -3.3780374  
H    3.1196523   -2.8045581   -6.1865150  
C    0.0000000    0.0000000    1.4700000  
C    1.0541688    0.0001722    2.3260392  
C    0.5103138    0.0000454    3.6635956  
C   -0.9576371   -0.0002459    3.5155732  
N   -1.2018458    0.0001392    2.1615969  
C   -1.8348311   -0.0008317    4.5510609  
C   -1.2972847   -0.0009736    5.9014604  
O   -2.0050672   -0.0014265    6.9001319  
C    0.2542623   -0.0004184    6.0817573  
O    0.7184670   -0.0002256    7.2139121  
C    1.0974552   -0.0000873    4.8889129  
H    2.0940752    0.0005483    2.0517982  
H   -2.9081052   -0.0011668    4.4207061  
H    2.1707277    0.0000911    5.0223670  
H   -2.1128194   -0.0014912    1.7406791  
