60

C    2.9536829   -5.3078654   -9.1535103  
C    3.0603890   -4.7840502  -10.4210652  
C    2.7659136   -3.3918751  -10.3224144  
C    2.4848632   -3.1215227   -8.9586529  
N    2.6059112   -4.3069099   -8.2768735  
C    2.1528770   -1.8455355   -8.4934327  
C    2.1040106   -0.8237960   -9.4217847  
O    1.7853414    0.4416445   -9.0216297  
C    2.3808479   -1.0737700  -10.7869554  
O    2.2904844    0.0467757  -11.5866774  
C    2.7081640   -2.3323653  -11.2466591  
H    3.3176268   -5.3375172  -11.3079122  
H    2.4750743   -4.4238273   -7.2883424  
H    1.8074352    0.9925597   -9.8148941  
H    2.4919875   -0.2086813  -12.4920738  
H    2.9149366   -2.4933988  -12.2982256  
H    3.0967319   -6.3165613   -8.8056208  
C    2.5365542   -2.0936798   -5.9975195  
C    2.0254114   -1.6312727   -4.8274822  
C    0.9452519   -0.7345686   -5.1651398  
C    0.8684328   -0.7123308   -6.6383657  
N    1.8600001   -1.5565500   -7.0821879  
C   -0.0266561    0.0178219   -7.3506841  
C   -0.9777112    0.8365829   -6.6174311  
O   -1.8231604    1.5298522   -7.1677880  
C   -0.9143687    0.8284832   -5.0567494  
O   -1.7097814    1.5140808   -4.4286288  
C    0.0950446    0.0004351   -4.4015596  
H    2.3662772   -1.8887983   -3.8405144  
H   -0.0661850    0.0198663   -8.4311199  
H    3.3507072   -2.7814877   -6.1586571  
C    3.3321173    0.0004713   -1.3379338  
C    2.6974181    0.0000116   -2.5332314  
C    1.2800438   -0.0002119   -2.2052841  
C    1.2395034    0.0000643   -0.7271299  
N    2.4394062    0.0005460   -0.2131038  
C    0.0000000    0.0000000    0.0000000  
C   -1.1468702    0.0000634   -0.7169543  
O   -2.3742203    0.0000074   -0.1695487  
C   -1.1388770    0.0001607   -2.2096355  
O   -2.2206234    0.0000905   -2.7970411  
C    0.1454522    0.0001815   -2.9324241  
H    3.1367984   -0.0000653   -3.5160950  
H   -2.9844346    0.0001026   -0.9290167  
H    4.3940038    0.0007618   -1.1498640  
C    0.0000000    0.0000000    1.4700000  
C    1.0662921    0.0000102    2.3034270  
C    0.4961870   -0.0000064    3.6418889  
C   -0.9663858    0.0000850    3.4240247  
N   -1.2632773    0.0000084    2.1528658  
C   -1.8985362    0.0000517    4.5177257  
C   -1.3925775   -0.0004564    5.7720543  
O   -2.1456383   -0.0005410    6.8851312  
C    0.0786232   -0.0009323    6.0245000  
O    0.4683759   -0.0012588    7.1921102  
C    1.0143166   -0.0008442    4.8859032  
H    2.1107198   -0.0000632    2.0421868  
H   -2.9622183    0.0003270    4.3293377  
H   -1.5042274   -0.0009692    7.6184419  
H    2.0724152   -0.0013148    5.1109744  
