62

C    6.1276622   -0.7048761   -1.0188643  
C    6.9236211   -0.4540991    0.0747661  
C    7.9383833    0.4546158   -0.3484303  
C    7.7084246    0.7251866   -1.7216881  
N    6.6026400    0.0036971   -2.0975992  
C    8.5192609    1.5844862   -2.4693101  
C    9.5814110    2.1817583   -1.8187093  
O   10.4047360    3.0299035   -2.5012024  
C    9.8273770    1.9240572   -0.4490709  
O   10.9231489    2.5941229    0.0545570  
C    9.0280404    1.0762394    0.2890292  
H    6.7900143   -0.8752722    1.0564771  
H    8.3494126    1.7947441   -3.5162794  
H   11.0705879    3.3312854   -1.8694781  
H   11.0189018    2.3651209    0.9840692  
H    9.2413019    0.8980452    1.3365237  
H    5.2595602   -1.3342344   -1.1151244  
C    2.4521485    0.0014838   -3.7217479  
C    3.4891875    0.0014494   -2.8521908  
C    4.6797442    0.0022549   -3.6882971  
C    4.1623485    0.0025989   -5.0735352  
N    2.8572360    0.0022303   -5.0994557  
C    5.0381743    0.0034457   -6.2128403  
C    6.3703216    0.0043162   -5.9789259  
O    7.3023603    0.0051581   -6.9470914  
C    6.9233383    0.0043685   -4.5924430  
O    8.1464880    0.0050615   -4.4541498  
C    6.0043357    0.0034459   -3.4403323  
H    3.4509653    0.0010306   -1.7762658  
H    4.6326017    0.0034742   -7.2140498  
H    8.1530742    0.0056723   -6.4722873  
C    0.0000000    0.0000000    0.0000000  
C    1.0662924   -0.0000102   -0.8334267  
C    0.4961874    0.0000064   -2.1718888  
C   -0.9663853   -0.0000849   -1.9540250  
N   -1.2632772   -0.0000084   -0.6828660  
C   -1.8985357   -0.0000515   -3.0477261  
C   -1.3925767    0.0004566   -4.3020548  
O   -2.1456375    0.0005411   -5.4151316  
C    0.0786242    0.0009324   -4.5545000  
O    0.4683770    0.0012590   -5.7221099  
C    1.0143173    0.0008443   -3.4159029  
H    2.1107200    0.0000632   -0.5721862  
H   -2.9622180   -0.0003269   -2.8593382  
H   -1.5042262    0.0009694   -6.1484423  
C    3.3003543   -0.0005276    2.9438989  
C    2.5232812   -0.0003497    4.0790748  
C    1.1623199    0.0001319    3.6520102  
C    1.1711883   -0.0000583    2.2336141  
N    2.4852299    0.0014920    1.8362361  
C    0.0000000    0.0000000    1.4700000  
C   -1.2020384   -0.0000520    2.1506477  
O   -2.3759250   -0.0003494    1.4542253  
C   -1.2314658    0.0005113    3.5655508  
O   -2.5054393    0.0008037    4.0950179  
C   -0.0764518    0.0007272    4.3195194  
H    2.8919952    0.0005619    5.0905303  
H    2.8036267   -0.0088181    0.8841339  
H   -3.0835639   -0.0000348    2.1118817  
H   -2.4360050    0.0011527    5.0545920  
H   -0.1304098    0.0013421    5.4019087  
H    4.3715549   -0.0004895    2.8367138  
