62

C    6.4237605   -4.5910356   -5.5190164  
C    7.4137307   -4.3772327   -6.4499907  
C    7.3100084   -3.0158498   -6.8628799  
C    6.2295939   -2.4439040   -6.1434983  
N    5.7124550   -3.4280024   -5.3380575  
C    5.8392122   -1.1103900   -6.2988416  
C    6.5526891   -0.3401394   -7.1965293  
O    6.2140881    0.9683654   -7.3867350  
C    7.6335573   -0.8928272   -7.9239058  
O    8.2435084    0.0018508   -8.7788058  
C    8.0190604   -2.2083663   -7.7713612  
H    8.1226514   -5.1123930   -6.7905281  
H    4.9427745   -3.3138487   -4.7035957  
H    6.8293848    1.3167116   -8.0450131  
H    8.9620166   -0.4509330   -9.2308431  
H    8.8509176   -2.6037904   -8.3424410  
H    6.1678653   -5.4815151   -4.9708179  
C    4.4169324   -0.7262674   -4.2519969  
C    4.7208626   -0.5096727   -5.5576723  
C    3.7394651    0.4171455   -6.0702175  
C    2.8323810    0.7249817   -4.9480649  
N    3.2973506   -0.0000934   -3.8752374  
C    1.7696588    1.5653030   -5.0267152  
C    1.5012086    2.2093687   -6.3017243  
O    0.5680930    2.9826266   -6.4739708  
C    2.4487524    1.8977311   -7.5037429  
O    2.2325020    2.4338348   -8.5822089  
C    3.5619521    0.9748805   -7.2964143  
H    1.1167837    1.7775499   -4.1914811  
H    4.2134810    0.7645636   -8.1336711  
H    4.9165212   -1.3554533   -3.5333689  
C    3.3321174    0.0004714   -1.3379332  
C    2.6974186    0.0000115   -2.5332308  
C    1.2800441   -0.0002119   -2.2052838  
C    1.2395035    0.0000643   -0.7271293  
N    2.4394063    0.0005458   -0.2131034  
C    0.0000000    0.0000000    0.0000000  
C   -1.1468701    0.0000634   -0.7169542  
O   -2.3742201    0.0000072   -0.1695492  
C   -1.1388767    0.0001606   -2.2096354  
O   -2.2206229    0.0000903   -2.7970413  
C    0.1454526    0.0001815   -2.9324239  
H   -2.9844344    0.0001023   -0.9290168  
H    0.1083580    0.0003680   -4.0135594  
H    4.3940040    0.0007617   -1.1498630  
C    0.8576279    0.7185626    2.2703808  
C    0.0000000    0.0000000    1.4700000  
C   -0.8668858   -0.7285659    2.3373528  
C   -0.4876752   -0.4117774    3.6669281  
N    0.5635254    0.4678311    3.5902241  
C   -1.1297612   -0.9515493    4.7854808  
C   -2.1738724   -1.8268314    4.5576857  
O   -2.8357962   -2.3827064    5.6140350  
C   -2.5667212   -2.1555554    3.2384331  
O   -3.6226318   -3.0413663    3.1773122  
C   -1.9335634   -1.6236449    2.1344818  
H    1.0363952    0.8769718    4.3757045  
H   -0.8454472   -0.7142436    5.8013813  
H   -3.5178062   -2.9546422    5.2385129  
H   -3.8247440   -3.2102924    2.2519915  
H   -2.2566033   -1.8942483    1.1360343  
H    1.6567807    1.3889844    2.0042067  
