64

C    4.5894920    0.0958019   -8.0200048  
C    5.6519076   -0.5522696   -8.6063017  
C    5.6804637   -0.1511761   -9.9748448  
C    4.6023555    0.7503302  -10.1669277  
N    3.9593679    0.8765641   -8.9605915  
C    4.3266821    1.3477169  -11.4005905  
C    5.1546143    1.0294713  -12.4595649  
O    4.9308206    1.5846489  -13.6862301  
C    6.2351781    0.1318624  -12.2878211  
O    6.9668741   -0.0836228  -13.4374011  
C    6.5075646   -0.4580563  -11.0711348  
H    6.3230216   -1.2314997   -8.1090643  
H    3.1607803    1.4596965   -8.7868253  
H    3.5064659    2.0355030  -11.5535558  
H    5.6129335    1.2335881  -14.2733785  
H    7.6765503   -0.7008745  -13.2350061  
H    7.3422290   -1.1418612  -10.9700198  
C    5.9953299   -2.1198585   -4.4000425  
C    5.8617352   -1.6205579   -5.6749222  
C    4.7347033   -0.7463311   -5.6637108  
C    4.2167179   -0.7519520   -4.3432613  
N    5.0043210   -1.5976220   -3.6022210  
C    3.1006054    0.0006263   -3.9654951  
C    2.4965723    0.7731834   -4.9383657  
O    1.4035935    1.5277716   -4.6237098  
C    2.9984078    0.7917305   -6.2614812  
O    2.2870646    1.6102453   -7.1143401  
C    4.0992760    0.0493359   -6.6349318  
H    6.4976312   -1.8581611   -6.5104917  
H    4.8851264   -1.7943846   -2.6249500  
H    1.1427971    1.9823230   -5.4352719  
H    2.6910607    1.5654020   -7.9863373  
H    6.7182510   -2.8082950   -3.9970559  
C    3.2798083    0.0005857   -1.4499652  
C    2.5571142    0.0005565   -2.5996556  
C    1.1637432    0.0001548   -2.2210361  
C    1.1336964   -0.0000200   -0.7459473  
N    2.4483512   -0.0001428   -0.3402723  
C    0.0000000    0.0000000    0.0000000  
C   -1.2757368   -0.0000186   -0.6964415  
O   -2.3524598   -0.0000639   -0.1142311  
C   -1.2676497   -0.0000872   -2.2584083  
O   -2.3355766   -0.0004101   -2.8557295  
C    0.0181558    0.0001758   -2.9516296  
H    0.0150788    0.0003319   -4.0331631  
H    4.3498547    0.0008612   -1.3200026  
H    2.7563626    0.0012823    0.6148059  
C    0.8676693    0.7151171    2.2619005  
C    0.5875920    0.4624972    3.5848544  
C   -0.5048400   -0.4542819    3.6114698  
C   -0.8517165   -0.7276451    2.2635546  
N    0.0000000    0.0000000    1.4700000  
C   -1.8902865   -1.5946756    1.9108239  
C   -2.5912627   -2.1969500    2.9375057  
O   -3.6148162   -3.0527051    2.6493466  
C   -2.2603868   -1.9365747    4.2886322  
O   -3.0513550   -2.6123276    5.1947621  
C   -1.2361111   -1.0811317    4.6373480  
H    1.1060808    0.8876438    4.4271209  
H   -2.1597133   -1.8070987    0.8854031  
H   -3.9636755   -3.3565188    3.4974381  
H   -2.7621927   -2.3810384    6.0827341  
H   -1.0058879   -0.9010589    5.6809233  
H    1.6167816    1.3499334    1.8205408  
