62

C    7.5240805   -2.9800294   -4.5424741  
C    6.6021560   -1.9951711   -4.8118740  
C    7.3322391   -0.7884527   -5.0249693  
C    8.7072121   -1.1012751   -4.8716167  
N    8.7882741   -2.4396977   -4.5772156  
C    9.7200586   -0.1478817   -5.0129407  
C    9.3379348    1.1447896   -5.3148674  
O   10.2861957    2.1150986   -5.4642455  
C    7.9710961    1.4765525   -5.4713988  
O    7.7523966    2.8054795   -5.7705091  
C    6.9713462    0.5365761   -5.3318560  
H    5.5346742   -2.1296905   -4.8490210  
H    9.6394186   -2.9498620   -4.4246880  
H   10.7698096   -0.3798783   -4.8971808  
H    9.8117555    2.9312969   -5.6691616  
H    6.8046984    2.9451992   -5.8596688  
H    7.3798047   -4.0248562   -4.3268808  
C    3.4364603   -0.6845232   -3.0955664  
C    2.4521483    0.0014840   -3.7217481  
C    3.1256121    0.7478440   -4.7733628  
C    4.5520924    0.3843007   -4.6334533  
N    4.7404178   -0.4551032   -3.6516569  
C    5.5629171    0.9215720   -5.5021639  
C    5.1666494    1.7825722   -6.4670391  
O    6.0021964    2.3597730   -7.3472333  
C    3.7344501    2.1687414   -6.6338905  
O    3.4458171    2.9576839   -7.5336020  
C    2.7164292    1.6040512   -5.7301850  
H    5.4291805    2.9168361   -7.9044453  
H    1.6899528    1.9088365   -5.8840785  
H    3.3474871   -1.3573887   -2.2575276  
C    0.0000000    0.0000000    0.0000000  
C    1.0662923   -0.0000101   -0.8334270  
C    0.4961873    0.0000065   -2.1718887  
C   -0.9663854   -0.0000848   -1.9540250  
N   -1.2632773   -0.0000083   -0.6828660  
C   -1.8985359   -0.0000514   -3.0477261  
C   -1.3925770    0.0004566   -4.3020547  
O   -2.1456378    0.0005414   -5.4151314  
C    0.0786240    0.0009326   -4.5545000  
O    0.4683767    0.0012591   -5.7221100  
C    1.0143171    0.0008444   -3.4159031  
H    2.1107200    0.0000633   -0.5721865  
H   -2.9622181   -0.0003268   -2.8593381  
H   -1.5042265    0.0009697   -6.1484419  
C    3.3003543   -0.0005276    2.9438989  
C    2.5232812   -0.0003497    4.0790748  
C    1.1623199    0.0001319    3.6520102  
C    1.1711883   -0.0000583    2.2336141  
N    2.4852299    0.0014920    1.8362361  
C    0.0000000    0.0000000    1.4700000  
C   -1.2020384   -0.0000520    2.1506477  
O   -2.3759250   -0.0003494    1.4542253  
C   -1.2314658    0.0005113    3.5655508  
O   -2.5054393    0.0008037    4.0950179  
C   -0.0764518    0.0007272    4.3195194  
H    2.8919952    0.0005619    5.0905303  
H    2.8036267   -0.0088181    0.8841339  
H   -3.0835639   -0.0000348    2.1118817  
H   -2.4360050    0.0011527    5.0545920  
H   -0.1304098    0.0013421    5.4019087  
H    4.3715549   -0.0004895    2.8367138  
