62

C    6.1248831   -0.6763159   -3.3384356  
C    7.4009747   -0.4310527   -2.8868775  
C    7.9977482    0.4853607   -3.8026547  
C    7.0298163    0.7660926   -4.8007652  
N    5.9050734    0.0429973   -4.4897917  
C    7.2745814    1.6348617   -5.8685287  
C    8.5190362    2.2313302   -5.9296548  
O    8.8110134    3.0884701   -6.9509648  
C    9.4981146    1.9635650   -4.9434879  
O   10.6869856    2.6341590   -5.1440642  
C    9.2574324    1.1064031   -3.8899836  
H    7.8472368   -0.8607435   -2.0064178  
H    6.5411433    1.8528897   -6.6325537  
H    9.7180346    3.3875339   -6.8055753  
H   11.2927619    2.3980276   -4.4349234  
H   10.0269592    0.9206175   -3.1498554  
H    5.3546058   -1.3085464   -2.9311083  
C    1.6628972    0.0337774   -3.2649299  
C    3.0207996    0.0330346   -3.2781829  
C    3.4282943    0.0460118   -4.6633231  
C    2.1875905    0.0544656   -5.4616793  
N    1.1532913    0.0460571   -4.5544614  
C    2.1461599    0.0678606   -6.8180746  
C    3.4077371    0.0741611   -7.5398210  
O    3.4759250    0.0861009   -8.7619129  
C    4.7339466    0.0651469   -6.7146588  
O    5.8022228    0.0700323   -7.3113344  
C    4.6507763    0.0511092   -5.2563249  
H    3.6636257    0.0242008   -2.4160284  
H    1.2252517    0.0740075   -7.3844678  
H    0.1784103    0.0504304   -4.7924432  
C    1.1243417    0.0099160   -0.7919004  
C    0.7474091    0.0234036   -2.1148543  
C   -0.6787366    0.0234950   -2.1414699  
C   -1.1201739    0.0099353   -0.7935547  
N    0.0000000    0.0000000    0.0000000  
C   -2.4730814    0.0065387   -0.4408241  
C   -3.3971947    0.0173286   -1.4675058  
O   -4.7313509    0.0149470   -1.1793468  
C   -2.9763629    0.0305525   -2.8186324  
O   -4.0166449    0.0397843   -3.7247623  
C   -1.6418539    0.0336374   -3.1673480  
H   -2.8160170   -0.0039200    0.5845965  
H   -5.1938800    0.0234391   -2.0274383  
H   -3.6464639    0.0484767   -4.6127342  
H   -1.3497441    0.0436783   -4.2109235  
H    2.1062470    0.0051389   -0.3505406  
C    0.8175213    0.6860729    2.3021913  
C    0.0000000    0.0000000    1.4700000  
C   -0.8887526   -0.7456559    2.3478473  
C   -0.4549825   -0.3816753    3.7138435  
N    0.5448156    0.4573574    3.6934124  
C   -1.0945674   -0.9182058    4.8835240  
C   -2.1210866   -1.7789155    4.6970523  
O   -2.8083856   -2.3554314    5.6976972  
C   -2.5824069   -2.1655116    3.3310774  
O   -3.5227682   -2.9541547    3.2362962  
C   -1.9100805   -1.6015804    2.1470656  
H   -0.7567140   -0.6349833    5.8697035  
H   -3.4728268   -2.9124471    5.2533954  
H   -2.2742832   -1.9066565    1.1752040  
H    1.6189533    1.3585343    2.0405121  
