62

C    6.6797205   -3.0885942   -7.5275645  
C    7.3394000   -2.9864365   -8.7304171  
C    7.2487193   -1.6232920   -9.1405561  
C    6.5163482   -0.9352828   -8.1394561  
N    6.1844892   -1.8548050   -7.1756277  
C    6.2342855    0.4320780   -8.2139847  
C    6.7002933    1.1174434   -9.3191040  
O    6.4534527    2.4542165   -9.4420684  
C    7.4325093    0.4485016  -10.3286555  
O    7.8271098    1.2689136  -11.3652647  
C    7.7109083   -0.9004723  -10.2559211  
H    7.8251589   -3.7951725   -9.2490476  
H    5.6764941    0.9622756   -7.4544053  
H    6.8600508    2.7316243  -10.2733249  
H    8.3151788    0.7394630  -12.0032879  
H    8.2738955   -1.3855838  -11.0447121  
H    6.5220486   -3.9442197   -6.8935271  
C    5.7052418   -2.0986834   -4.6958678  
C    4.8302131   -1.6343311   -3.7670103  
C    3.9272651   -0.7382854   -4.4501079  
C    4.3509919   -0.7185537   -5.8632097  
N    5.4336785   -1.5634478   -5.9458740  
C    3.7483766    0.0103194   -6.8365048  
C    2.6063696    0.8302496   -6.4676277  
O    1.9959435    1.5225183   -7.2716453  
C    2.1405131    0.8248035   -4.9767381  
O    1.1803932    1.5114043   -4.6542322  
C    2.8699641   -0.0020530   -4.0185824  
H    4.8187253   -1.8901546   -2.7224834  
H    4.0749502    0.0105271   -7.8671644  
H    6.5257691   -2.7867004   -4.5723460  
C    3.2573670   -0.0002921   -1.5109382  
C    2.5379468   -0.0001711   -0.3591962  
C    1.1435043    0.0000330   -0.7338498  
C    1.1092608   -0.0000085   -2.2088474  
N    2.4227562    0.0001906   -2.6182610  
C   -0.0265533   -0.0002525   -2.9515663  
C   -1.3003033   -0.0002641   -2.2514979  
O   -2.3786785   -0.0004132   -2.8306425  
C   -1.2877724    0.0000310   -0.6895608  
O   -2.3539956    0.0003306   -0.0892035  
C    0.0000000    0.0000000    0.0000000  
H    2.9384091   -0.0000370    0.6389240  
H   -0.0296290   -0.0004088   -4.0327231  
H    4.3270394   -0.0004767   -1.6439445  
C    0.8676693    0.7151171    2.2619005  
C    0.5875920    0.4624972    3.5848544  
C   -0.5048400   -0.4542819    3.6114698  
C   -0.8517165   -0.7276451    2.2635546  
N    0.0000000    0.0000000    1.4700000  
C   -1.8902865   -1.5946756    1.9108239  
C   -2.5912627   -2.1969500    2.9375057  
O   -3.6148162   -3.0527051    2.6493466  
C   -2.2603868   -1.9365747    4.2886322  
O   -3.0513550   -2.6123276    5.1947621  
C   -1.2361111   -1.0811317    4.6373480  
H    1.1060808    0.8876438    4.4271209  
H   -2.1597133   -1.8070987    0.8854031  
H   -3.9636755   -3.3565188    3.4974381  
H   -2.7621927   -2.3810384    6.0827341  
H   -1.0058879   -0.9010589    5.6809233  
H    1.6167816    1.3499334    1.8205408  
