62

C    9.7251213   -0.7094635    1.1936855  
C   11.0767688   -0.4596036    1.1381305  
C   11.2884252    0.4476261    0.0579756  
C   10.0185858    0.7182785   -0.5131488  
N    9.0917678   -0.0017382    0.1990309  
C    9.8471599    1.5763202   -1.6036381  
C   10.9781958    2.1722280   -2.1269241  
O   10.8678722    3.0191097   -3.1916460  
C   12.2539154    1.9144227   -1.5711417  
O   13.2813907    2.5830511   -2.2040506  
C   12.4238100    1.0678447   -0.4955173  
H   11.8190311   -0.8804207    1.7946008  
H    8.8820754    1.7866327   -2.0436191  
H   11.7630955    3.3196751   -3.3953632  
H   14.1076329    2.3540777   -1.7675897  
H   13.4134422    0.8895357   -0.0913993  
H    9.1628992   -1.3376310    1.8632158  
C    6.6685710   -0.0005968    0.8976876  
C    7.6427397   -0.0013904   -0.0483931  
C    6.9825040   -0.0021114   -1.3324975  
C    5.5334440   -0.0016402   -1.0549831  
N    5.4101705   -0.0011223    0.3153065  
C    4.5679461   -0.0016854   -2.0086701  
C    4.9837200   -0.0024604   -3.4013893  
O    4.1902296   -0.0026235   -4.3334163  
C    6.5131881   -0.0032213   -3.7184584  
O    6.8752469   -0.0041838   -4.8872922  
C    7.4587612   -0.0028165   -2.6050211  
H    8.5159867   -0.0031428   -2.8330520  
H    6.7640843    0.0001112    1.9713569  
H    4.5400776    0.0008355    0.8152882  
C    3.1301149   -0.0010311   -1.7028252  
C    2.5367768   -0.0002767   -0.4864665  
C    1.1089904    0.0001028   -0.7656183  
C    1.0177872   -0.0004148   -2.2415132  
N    2.1993578   -0.0011611   -2.7963820  
C   -0.2459209   -0.0002877   -2.9257118  
C   -1.3675319   -0.0000605   -2.1698524  
O   -2.6129313    0.0000867   -2.6748490  
C   -1.3083584    0.0000910   -0.6783232  
O   -2.3693261    0.0004206   -0.0541692  
C    0.0000000    0.0000000    0.0000000  
H    3.0096017   -0.0001007    0.4807525  
H   -0.2829630   -0.0004687   -4.0053125  
H   -3.1967441    0.0002094   -1.8949034  
C    2.5311839    2.1237619    3.0120429  
C    1.9795631    1.6616747    1.8395852  
C    0.9223175    0.7739173    2.1983588  
C    0.8753926    0.7337535    3.6154372  
N    1.8668922    1.5631002    4.0777464  
C   -0.0496243   -0.0427881    4.3197917  
C   -0.9437528   -0.7922060    3.5801400  
O   -1.8685244   -1.5680278    4.2172520  
C   -0.9124520   -0.7656372    2.1655264  
O   -1.8671164   -1.5663939    1.5732860  
C    0.0000000    0.0000000    1.4700000  
H    2.3005065    1.9304404    0.8477417  
H    2.0679347    1.7444845    5.0445261  
H   -0.0904770   -0.0778569    5.3997470  
H   -2.3849669   -2.0011402    3.5251786  
H   -1.7775064   -1.4909735    0.6183591  
H    3.3468514    2.8078103    3.1724291  
