64

C    8.7913866    0.0430963   -4.1805653  
C    9.6092473    0.0473805   -3.0744222  
C   10.9537048    0.0603892   -3.5507274  
C   10.8931944    0.0638308   -4.9678557  
N    9.5656242    0.0511582   -5.3171572  
C   12.0357539    0.0763123   -5.7735793  
C   13.2617289    0.0857935   -5.1371252  
O   14.4094276    0.0984977   -5.8757992  
C   13.3426599    0.0821758   -3.7242366  
O   14.6350164    0.0923278   -3.2414810  
C   12.2159146    0.0695911   -2.9287413  
H    9.2776304    0.0407094   -2.0502258  
H    9.2126904    0.0607838   -6.2570119  
H   11.9963828    0.0788531   -6.8541560  
H   15.1405181    0.1031303   -5.2443316  
H   14.6005751    0.0890869   -2.2800202  
H   12.3092510    0.0669279   -1.8490380  
C    5.5764489    0.0082712   -1.0736986  
C    6.7920327    0.0210383   -1.7176393  
C    6.5213450    0.0206190   -3.1181135  
C    5.1110772    0.0075049   -3.2694401  
N    4.5679461   -0.0016854   -2.0086701  
C    4.4845811    0.0037924   -4.5193513  
C    5.2965304    0.0138020   -5.6368557  
O    4.7370949    0.0110823   -6.8818609  
C    6.7056517    0.0265717   -5.5063514  
O    7.3755165    0.0350365   -6.7124004  
C    7.3243926    0.0299680   -4.2736009  
H    7.7553657    0.0284950   -1.2370905  
H    3.4102461   -0.0063298   -4.6414309  
H    5.4703964    0.0190351   -7.5107243  
H    8.3210786    0.0434630   -6.5350739  
H    5.3490393    0.0040340   -0.0214506  
C    3.1301149   -0.0010311   -1.7028252  
C    2.5367768   -0.0002767   -0.4864665  
C    1.1089904    0.0001028   -0.7656183  
C    1.0177872   -0.0004148   -2.2415132  
N    2.1993578   -0.0011611   -2.7963820  
C   -0.2459209   -0.0002877   -2.9257118  
C   -1.3675319   -0.0000605   -2.1698524  
O   -2.6129313    0.0000867   -2.6748490  
C   -1.3083584    0.0000910   -0.6783232  
O   -2.3693261    0.0004206   -0.0541692  
C    0.0000000    0.0000000    0.0000000  
H    3.0096017   -0.0001007    0.4807525  
H   -0.2829630   -0.0004687   -4.0053125  
H   -3.1967441    0.0002094   -1.8949034  
C    0.8676693    0.7151171    2.2619005  
C    0.5875920    0.4624972    3.5848544  
C   -0.5048400   -0.4542819    3.6114698  
C   -0.8517165   -0.7276451    2.2635546  
N    0.0000000    0.0000000    1.4700000  
C   -1.8902865   -1.5946756    1.9108239  
C   -2.5912627   -2.1969500    2.9375057  
O   -3.6148162   -3.0527051    2.6493466  
C   -2.2603868   -1.9365747    4.2886322  
O   -3.0513550   -2.6123276    5.1947621  
C   -1.2361111   -1.0811317    4.6373480  
H    1.1060808    0.8876438    4.4271209  
H   -2.1597133   -1.8070987    0.8854031  
H   -3.9636755   -3.3565188    3.4974381  
H   -2.7621927   -2.3810384    6.0827341  
H   -1.0058879   -0.9010589    5.6809233  
H    1.6167816    1.3499334    1.8205408  
