62

C   -0.8472489   -0.5463830   -9.4102188  
C   -0.6499233   -0.4397557  -10.7674801  
C   -0.8801055    0.9241682  -11.1158014  
C   -1.2171327    1.6080253   -9.9196914  
N   -1.1898135    0.6853857   -8.9035196  
C   -1.5092761    2.9749017   -9.8866572  
C   -1.4600036    3.6640426  -11.0828330  
O   -1.7360426    5.0005310  -11.1075856  
C   -1.1261021    2.9992727  -12.2867462  
O   -1.1199555    3.8231263  -13.3933493  
C   -0.8380433    1.6507796  -12.3201229  
H   -0.3750850   -1.2460901  -11.4257224  
H   -1.7669802    3.5019439   -8.9783531  
H   -1.6461289    5.2809114  -12.0276770  
H   -0.8850718    3.2963721  -14.1633906  
H   -0.5857451    1.1689060  -13.2574716  
H   -0.7721345   -1.4039161   -8.7637253  
C    0.6776465   -0.7282717   -5.1604456  
C    0.3570673   -0.5122891   -6.4622354  
C   -0.7499179    0.4146719   -6.4749880  
C   -1.0501140    0.7232592   -5.0638019  
N   -0.1496415   -0.0015615   -4.3176961  
C   -2.0330274    1.5639202   -4.6528581  
C   -2.8499198    2.2075850   -5.6681990  
O   -3.7597059    2.9811007   -5.3993810  
C   -2.5498395    1.8951510   -7.1689133  
O   -3.2311647    2.4309115   -8.0326364  
C   -1.4636378    0.9719933   -7.4879709  
H    0.8407352   -0.9522723   -7.3161048  
H   -2.2366075    1.7767184   -3.6125781  
H    1.4485188   -1.3573527   -4.7458346  
C    3.3003543    0.0005276   -1.4738987  
C    2.5232814    0.0003497   -2.6090747  
C    1.1623200   -0.0001320   -2.1820103  
C    1.1711883    0.0000582   -0.7636140  
N    2.4852300   -0.0014919   -0.3662360  
C    0.0000000    0.0000000    0.0000000  
C   -1.2020384    0.0000519   -0.6806477  
O   -2.3759249    0.0003493    0.0157743  
C   -1.2314656   -0.0005115   -2.0955510  
O   -2.5054392   -0.0008039   -2.6250180  
C   -0.0764516   -0.0007274   -2.8495195  
H    2.8919955   -0.0005620   -3.6205304  
H    2.8036267    0.0088183    0.5858662  
H   -3.0835638    0.0000347   -0.6418818  
H   -2.4360047   -0.0011529   -3.5845921  
H    4.3715549    0.0004895   -1.3667136  
C    2.4951002    2.0940188    2.9809380  
C    1.9440701    1.6314916    1.8291961  
C    0.8759964    0.7350050    2.2038498  
C    0.8497377    0.7130254    3.6788474  
N    1.8560616    1.5571714    4.0882609  
C   -0.0205033   -0.0168748    4.4215661  
C   -0.9962600   -0.8356168    3.7214979  
O   -1.8224391   -1.5286685    4.3006425  
C   -0.9864710   -0.8277881    2.1595606  
O   -1.8030528   -1.5133726    1.5592035  
C    0.0000000    0.0000000    1.4700000  
H    2.2509283    1.8888011    0.8310761  
H   -0.0229599   -0.0187323    5.5027230  
H    3.3143982    2.7817323    3.1139444  
H    2.0889452    1.7545833    5.0442112  
