62

C    4.8668237   -0.0077442   -7.4059541  
C    3.6161616   -0.0049043   -7.9789320  
C    3.8058687   -0.0049859   -9.3926549  
C    5.2051586   -0.0082472   -9.6248232  
N    5.8199496   -0.0079051   -8.3973667  
C    5.7587559   -0.0095304  -10.9086913  
C    4.8838379   -0.0077911  -11.9776608  
O    5.3707604   -0.0092841  -13.2527749  
C    3.4844989   -0.0041590  -11.7663449  
O    2.7463479   -0.0023832  -12.9318812  
C    2.9376607   -0.0026179  -10.5000546  
H    2.6820308   -0.0019021   -7.4437838  
H    6.8122718   -0.0203594   -8.2453055  
H    6.8243387   -0.0118699  -11.0923453  
H    4.6024722   -0.0073590  -13.8384325  
H    1.8125118    0.0000235  -12.7004773  
H    1.8618375    0.0003531  -10.3693891  
C    2.4861703   -0.0045381   -3.7159920  
C    3.4897069   -0.0059404   -2.8011220  
C    4.7313105   -0.0078379   -3.5381791  
C    4.3662423   -0.0073940   -4.9676949  
N    2.9909945   -0.0057669   -5.0074606  
C    5.2594871   -0.0083966   -5.9893680  
C    6.6748999   -0.0102477   -5.6590057  
O    7.5569791   -0.0113205   -6.5076729  
C    7.0843360   -0.0110000   -4.1516348  
O    8.2730121   -0.0128630   -3.8612809  
C    6.0304251   -0.0095090   -3.1401398  
H    3.3734534   -0.0058581   -1.7319639  
H    6.3222878   -0.0098368   -2.0987274  
H    2.4390587   -0.0035500   -5.8455586  
C    0.0000000    0.0000000    0.0000000  
C    1.0521669   -0.0011901   -0.8862341  
C    0.4917220   -0.0011956   -2.1979132  
C   -0.9187428    0.0003148   -2.0478684  
N   -1.1833170   -0.0009411   -0.7007915  
C   -1.7951699    0.0010351   -3.1372091  
C   -1.2375836    0.0005225   -4.4010425  
O   -2.0474210    0.0015361   -5.4997584  
C    0.1673583   -0.0013566   -4.5711960  
O    0.5673528   -0.0020686   -5.8915549  
C    1.0325772   -0.0023411   -3.4969890  
H    2.0953059   -0.0030648   -0.6200562  
H   -2.0989777    0.0102372   -0.2891825  
H   -2.8710931    0.0020419   -3.0295515  
H   -1.4634882    0.0006497   -6.2693594  
H    1.5290713   -0.0033151   -5.9180046  
C    3.2573670    0.0002920    2.9809380  
C    2.5379467    0.0001709    1.8291961  
C    1.1435042   -0.0000331    2.2038498  
C    1.1092607    0.0000083    3.6788474  
N    2.4227561   -0.0001909    4.0882609  
C   -0.0265533    0.0002524    4.4215661  
C   -1.3003036    0.0002640    3.7214979  
O   -2.3786784    0.0004133    4.3006425  
C   -1.2877726   -0.0000311    2.1595606  
O   -2.3539958   -0.0003306    1.5592035  
C    0.0000000    0.0000000    1.4700000  
H    2.9384090    0.0000368    0.8310761  
H   -0.0296291    0.0004086    5.5027230  
H    4.3270393    0.0004765    3.1139444  
H    2.7280493    0.0013407    5.0442112  
