60

C    7.7598294   -1.1120109   -4.0223988  
C    9.0647477   -0.7365482   -4.2430444  
C    9.0562028    0.6659489   -4.5029081  
C    7.7064506    1.0951915   -4.4264543  
N    6.9454050   -0.0095700   -4.1350277  
C    7.3229236    2.4243613   -4.6289488  
C    8.3201652    3.3368913   -4.9135124  
O    8.0012848    4.6479196   -5.1197435  
C    9.6725576    2.9278562   -4.9944041  
O   10.5471606    3.9541265   -5.2862659  
C   10.0516112    1.6167153   -4.7950205  
H    9.9177277   -1.3929904   -4.2206652  
H    6.2959136    2.7578758   -4.5722071  
H    8.8323790    5.1058067   -5.3010875  
H   11.4382589    3.5932550   -5.3225839  
H   11.0953355    1.3331381   -4.8635931  
H    7.3454410   -2.0792406   -3.7950065  
C    4.3047787   -2.1086497   -1.2859243  
C    5.3774559   -1.6442158   -1.9771117  
C    4.8701585   -0.7486136   -2.9897228  
C    3.4034921   -0.7291861   -2.8306570  
N    3.1250156   -1.5744515   -1.7814352  
C    2.5562217   -0.0001543   -3.6003001  
C    3.1269048    0.8199331   -4.6559101  
O    2.4474936    1.5122577   -5.4024942  
C    4.6776928    0.8144235   -4.8425423  
O    5.1696069    1.5006860   -5.7281633  
C    5.4870227   -0.0121789   -3.9505975  
H    6.4066157   -1.8999862   -1.7981561  
H    4.2768480   -2.7963881   -0.4563908  
H    2.2064273   -1.7712342   -1.4285625  
C    0.0000000    0.0000000    0.0000000  
C    1.0541688   -0.0001719   -0.8560391  
C    0.5103141   -0.0000449   -2.1935955  
C   -0.9576367    0.0002461   -2.0455733  
N   -1.2018459   -0.0001392   -0.6915970  
C   -1.8348306    0.0008319   -3.0810611  
C   -1.2972842    0.0009739   -4.4314605  
O   -2.0050664    0.0014267   -5.4301321  
C    0.2542628    0.0004190   -4.6117571  
O    0.7184677    0.0002263   -5.7439119  
C    1.0974556    0.0000880   -3.4189127  
H    2.0940752   -0.0005479   -0.5817978  
H   -2.9081050    0.0011669   -2.9507065  
H   -2.1128195    0.0014911   -0.2706793  
C    3.2573670    0.0002920    2.9809380  
C    2.5379467    0.0001709    1.8291961  
C    1.1435042   -0.0000331    2.2038498  
C    1.1092607    0.0000083    3.6788474  
N    2.4227561   -0.0001909    4.0882609  
C   -0.0265533    0.0002524    4.4215661  
C   -1.3003036    0.0002640    3.7214979  
O   -2.3786784    0.0004133    4.3006425  
C   -1.2877726   -0.0000311    2.1595606  
O   -2.3539958   -0.0003306    1.5592035  
C    0.0000000    0.0000000    1.4700000  
H    2.9384090    0.0000368    0.8310761  
H   -0.0296291    0.0004086    5.5027230  
H    4.3270393    0.0004765    3.1139444  
H    2.7280493    0.0013407    5.0442112  
