62

C    1.0230767   -1.1022469   -9.5216363  
C    1.4212736   -0.7253940  -10.7833374  
C    1.1853419    0.6770821  -10.8928665  
C    0.6379440    1.1048803   -9.6562300  
N    0.5510305   -0.0006846   -8.8470385  
C    0.2821955    2.4336296   -9.4059142  
C    0.4829778    3.3472165  -10.4223907  
O    0.1533789    4.6578938  -10.2313363  
C    1.0276179    2.9396289  -11.6633812  
O    1.1659450    3.9668244  -12.5739193  
C    1.3785490    1.6289034  -11.9111159  
H    1.8303296   -1.3809202  -11.5329712  
H   -0.1355899    2.7660447   -8.4656188  
H    0.3705432    5.1166644  -11.0533053  
H    1.5399750    3.6069069  -13.3839592  
H    1.7933964    1.3464428  -12.8716347  
H    1.0371030   -2.0699108   -9.0500557  
C    1.8844579   -2.1024762   -5.2000023  
C    1.7579316   -1.6369210   -6.4693819  
C    0.6249276   -0.7419055   -6.4785611  
C    0.0979866   -0.7240444   -5.1005898  
N    0.9053924   -1.5695641   -4.3752753  
C   -0.9736297    0.0040464   -4.6965763  
C   -1.6535190    0.8247014   -5.6849139  
O   -2.6280812    1.5162660   -5.4198317  
C   -1.1127790    0.8208472   -7.1503115  
O   -1.6771971    1.5075996   -7.9911817  
C    0.0504536   -0.0048499   -7.4649009  
H    2.3864458   -1.8915801   -7.3040867  
H    2.6104401   -2.7902095   -4.7976804  
H    0.8008849   -1.7673171   -3.3970016  
C    1.1188642    0.0008222   -0.8003808  
C    0.0000000    0.0000000    0.0000000  
C   -1.1323862    0.0008899   -0.8673528  
C   -0.6382663    0.0019679   -2.1969280  
N    0.7324016    0.0038481   -2.1202242  
C   -1.4770914    0.0027318   -3.3154808  
C   -2.8395473    0.0020945   -3.0876857  
O   -3.7039201    0.0024425   -4.1440349  
C   -3.3517868    0.0013931   -1.7684331  
O   -4.7300497    0.0012366   -1.7073121  
C   -2.5248543    0.0009123   -0.6644817  
H    1.3576314   -0.0056167   -2.9057046  
H   -4.5940032    0.0021826   -3.7685128  
H   -4.9934602    0.0007259   -0.7819913  
H   -2.9462577    0.0005603    0.3339659  
H    2.1619895    0.0009355   -0.5342068  
C    2.3971438    2.0127888    3.1728260  
C    1.9431056    1.6308205    1.9564670  
C    0.8496017    0.7127664    2.2356185  
C    0.7794028    0.6545384    3.7115134  
N    1.6840587    1.4146091    4.2663826  
C   -0.1885723   -0.1578550    4.3957118  
C   -1.0476298   -0.8789867    3.6398520  
O   -2.0015663   -1.6796266    4.1448486  
C   -1.0022026   -0.8410666    2.1483229  
O   -1.8147390   -1.5232959    1.5241687  
C    0.0000000    0.0000000    1.4700000  
H    2.3054237    1.9346118    0.9892483  
H   -0.2170646   -0.1815267    5.4753125  
H   -2.4487139   -2.0549881    3.3649027  
H    3.2048689    2.6911772    3.3971983  
