62

C   -5.7731144    4.5859731   -0.1678976  
C   -5.3341192    3.4779336   -0.8549196  
C   -6.2492336    2.4216095   -0.5697099  
C   -7.2343269    2.9489121    0.3040572  
N   -6.9142402    4.2647595    0.5292410  
C   -8.2982250    2.1850111    0.7933055  
C   -8.3691369    0.8648318    0.3929597  
O   -9.3876066    0.0740199    0.8405654  
C   -7.3956022    0.3203907   -0.4780341  
O   -7.6043817   -1.0086168   -0.7838012  
C   -6.3456173    1.0733393   -0.9608648  
H   -4.4610295    3.4358513   -1.4833595  
H   -7.4393499    4.8998226    1.1027687  
H   -9.0521865    2.5809313    1.4596331  
H   -9.2499885   -0.7973478    0.4468078  
H   -6.9035914   -1.2981984   -1.3759501  
H   -5.3617230    5.5796087   -0.1188657  
C   -3.9884051    0.7039233   -1.8242582  
C   -3.3460097   -0.0004262   -2.7913647  
C   -4.3537578   -0.7427567   -3.5112428  
C   -5.6451796   -0.4107430   -2.8797469  
N   -5.3546447    0.4703282   -1.8637780  
C   -6.8441771   -0.9105383   -3.2725756  
C   -6.8640255   -1.8374912   -4.3919060  
O   -7.8934837   -2.3421816   -4.8206283  
C   -5.5080965   -2.2034208   -5.0755418  
O   -5.5122767   -2.9830138   -6.0186632  
C   -4.2805265   -1.6000814   -4.5627984  
H   -7.7799856   -0.6539437   -2.7957829  
H   -3.3459152   -1.8584816   -5.0418130  
H   -3.5786585    1.3738261   -1.0858631  
C    0.0000000    0.0000000    0.0000000  
C    1.0662919   -0.0000103   -0.8334272  
C    0.4961868    0.0000066   -2.1718889  
C   -0.9663860   -0.0000849   -1.9540248  
N   -1.2632775   -0.0000084   -0.6828659  
C   -1.8985364   -0.0000515   -3.0477258  
C   -1.3925778    0.0004567   -4.3020543  
O   -2.1456385    0.0005412   -5.4151314  
C    0.0786229    0.0009326   -4.5544999  
O    0.4683756    0.0012594   -5.7221104  
C    1.0143162    0.0008443   -3.4159034  
H    2.1107195    0.0000631   -0.5721869  
H   -1.5042277    0.0009692   -6.1484420  
H    2.0724151    0.0013151   -3.6409746  
C    0.0000000    0.0000000    1.4700000  
C    1.0521667    0.0011902    2.3562342  
C    0.4917218    0.0011957    3.6679131  
C   -0.9187428   -0.0003148    3.5178682  
N   -1.1833171    0.0009411    2.1707914  
C   -1.7951701   -0.0010350    4.6072090  
C   -1.2375837   -0.0005224    5.8710424  
O   -2.0474215   -0.0015360    6.9697579  
C    0.1673580    0.0013566    6.0411963  
O    0.5673524    0.0020687    7.3615553  
C    1.0325770    0.0023412    4.9669890  
H    2.0953057    0.0030649    2.0900562  
H   -2.0989778   -0.0102372    1.7591824  
H   -2.8710934   -0.0020419    4.4995513  
H   -1.4634884   -0.0006497    7.7393593  
H    1.5290710    0.0033153    7.3880045  
H    2.1042148    0.0039609    5.1284455  
