62

C    3.3003545    0.0005278   -1.4738990  
C    2.5232811    0.0003501   -2.6090748  
C    1.1623201   -0.0001316   -2.1820103  
C    1.1711885    0.0000584   -0.7636139  
N    2.4852301   -0.0014918   -0.3662354  
C    0.0000000    0.0000000    0.0000000  
C   -1.2020382    0.0000521   -0.6806474  
O   -2.3759248    0.0003495    0.0157751  
C   -1.2314658   -0.0005109   -2.0955506  
O   -2.5054388   -0.0008033   -2.6250176  
C   -0.0764518   -0.0007268   -2.8495194  
H    2.8919955   -0.0005615   -3.6205301  
H    2.8036267    0.0088180    0.5858660  
H   -3.0835639    0.0000349   -0.6418815  
H   -2.4360047   -0.0011523   -3.5845918  
H    4.3715547    0.0004897   -1.3667132  
C   -0.1496417   -0.0015607   -4.3176960  
C    0.8605984   -0.0020136   -5.2251594  
C    0.2508224   -0.0027513   -6.5339785  
C   -1.2079382   -0.0026611   -6.3130517  
N   -1.3844308   -0.0023257   -4.9485959  
C   -2.1356004   -0.0028332   -7.3035804  
C   -1.6659559   -0.0033528   -8.6790693  
O   -2.4225834   -0.0036039   -9.6412618  
C   -0.1253098   -0.0037089   -8.9363920  
O    0.2819500   -0.0044537  -10.0902551  
C    0.7762279   -0.0031995   -7.7870091  
H    1.9128694   -0.0020322   -5.0030341  
H    1.8415248   -0.0032451   -7.9737351  
H   -2.2733179   -0.0006336   -4.4828447  
C   -4.2308545    0.7025786   -6.0901929  
C   -3.5842424   -0.0025605   -7.0539081  
C   -4.5889115   -0.7449687   -7.7779977  
C   -5.8831214   -0.4121403   -7.1526684  
N   -5.5969778    0.4694289   -6.1358857  
C   -7.0804645   -0.9117556   -7.5507382  
C   -7.0954628   -1.8393602   -8.6696036  
O   -8.1231047   -2.3439501   -9.1027804  
C   -5.7365171   -2.2061573   -9.3467539  
O   -5.7366111   -2.9863039  -10.2894272  
C   -4.5111204   -1.6029375   -8.8287004  
H   -8.0183764   -0.6545593   -7.0784233  
H   -3.5743958   -1.8619405   -9.3032402  
H   -3.8242911    1.3727753   -5.3503064  
H   -6.2761774    0.8816783   -5.5228717  
C    2.5285572    2.1210227    2.9438989  
C    1.9331703    1.6216660    4.0790748  
C    0.8903039    0.7472258    3.6520102  
C    0.8972198    0.7527806    2.2336141  
N    1.9028376    1.5986179    1.8362361  
C    0.0000000    0.0000000    1.4700000  
C   -0.9207814   -0.7726952    2.1506477  
O   -1.8198395   -1.5274828    1.4542253  
C   -0.9436862   -0.7911793    3.5655508  
O   -1.9197945   -1.6098497    4.0950179  
C   -0.0590329   -0.0485852    4.3195194  
H    2.2150357    1.8593692    5.0905303  
H    2.1533708    1.7953814    0.8841339  
H   -2.3621246   -1.9821033    2.1118817  
H   -1.8668290   -1.5649508    5.0545920  
H   -0.1007624   -0.0827977    5.4019087  
H    3.3491200    2.8096064    2.8367138  
