60

C    4.9806392   -2.9386707   -0.3772256  
C    4.2447437   -3.6375311    0.5514932  
C    5.1696018   -4.3881689    1.3362108  
C    6.4662060   -4.1045280    0.8359190  
N    6.3152418   -3.2225764   -0.2052275  
C    7.6251841   -4.6725732    1.3733974  
C    7.4724898   -5.5425689    2.4354564  
O    8.5709683   -6.1251674    2.9984306  
C    6.1871169   -5.8384085    2.9483993  
O    6.2011601   -6.7231121    4.0069103  
C    5.0432974   -5.2785948    2.4184835  
H    3.1730712   -3.6105673    0.6504116  
H    7.0639264   -2.8329235   -0.7489396  
H    8.6162730   -4.4605981    0.9965538  
H    8.2455277   -6.6879716    3.7129966  
H    5.2943953   -6.8689446    4.2934667  
H    4.0723083   -5.5243199    2.8323398  
C    4.5414468   -2.0136865   -1.4319362  
C    3.2784302   -1.6314302   -1.7323495  
C    3.4206903   -0.7132110   -2.8517847  
C    4.8766552   -0.6552129   -3.1035515  
N    5.5387691   -1.4155495   -2.2744061  
C    5.4363360    0.1572544   -4.1484151  
C    4.5803866    0.8786766   -4.9075169  
O    4.9639653    1.6794174   -5.9163390  
C    3.1058543    0.8409937   -4.6783996  
O    2.3863367    1.5234829   -5.4075939  
C    2.5562217   -0.0001543   -3.6003001  
H    2.3632534   -1.9351317   -1.2535044  
H    6.5041751    0.1807536   -4.3099005  
H    4.1348753    2.0549940   -6.2637659  
C    0.0000000    0.0000000    0.0000000  
C    1.0541688   -0.0001719   -0.8560391  
C    0.5103141   -0.0000449   -2.1935955  
C   -0.9576367    0.0002461   -2.0455733  
N   -1.2018459   -0.0001392   -0.6915970  
C   -1.8348306    0.0008319   -3.0810611  
C   -1.2972842    0.0009739   -4.4314605  
O   -2.0050664    0.0014267   -5.4301321  
C    0.2542628    0.0004190   -4.6117571  
O    0.7184677    0.0002263   -5.7439119  
C    1.0974556    0.0000880   -3.4189127  
H    2.0940752   -0.0005479   -0.5817978  
H   -2.9081050    0.0011669   -2.9507065  
H   -2.1128195    0.0014911   -0.2706793  
C    0.0000000    0.0000000    1.4700000  
C    1.0662921    0.0000102    2.3034270  
C    0.4961870   -0.0000064    3.6418889  
C   -0.9663858    0.0000850    3.4240247  
N   -1.2632773    0.0000084    2.1528658  
C   -1.8985362    0.0000517    4.5177257  
C   -1.3925775   -0.0004564    5.7720543  
O   -2.1456383   -0.0005410    6.8851312  
C    0.0786232   -0.0009323    6.0245000  
O    0.4683759   -0.0012588    7.1921102  
C    1.0143166   -0.0008442    4.8859032  
H    2.1107198   -0.0000632    2.0421868  
H   -2.9622183    0.0003270    4.3293377  
H   -1.5042274   -0.0009692    7.6184419  
H    2.0724152   -0.0013148    5.1109744  
