62

C    7.8687780   -0.0235826    3.4948498  
C    7.5298493   -0.0361812    4.8280551  
C    6.1050852   -0.0267507    4.8955603  
C    5.6252837   -0.0085665    3.5608743  
N    6.7222860   -0.0051545    2.7355311  
C    4.2628726    0.0043302    3.2470931  
C    3.3685239   -0.0015382    4.2998441  
O    2.0267011    0.0101381    4.0500687  
C    3.8278234   -0.0192527    5.6383314  
O    2.8139106   -0.0226357    6.5739118  
C    5.1717306   -0.0317095    5.9486270  
H    8.2241216   -0.0493120    5.6507384  
H    3.8907555    0.0183548    2.2319411  
H    1.5886308    0.0036959    4.9110669  
H    3.2093321   -0.0349063    7.4508939  
H    5.4935671   -0.0449982    6.9833848  
H    8.8376353   -0.0248381    3.0255165  
C    6.6801382   -0.0033361    1.2661369  
C    7.7093297   -0.0019931    0.3802254  
C    7.1273478   -0.0004472   -0.9411867  
C    5.6642445   -0.0009742   -0.7511369  
N    5.4589574   -0.0031399    0.6092830  
C    4.7577216    0.0005129   -1.7610467  
C    5.2563286    0.0025579   -3.1263021  
O    4.5202032    0.0039399   -4.1042685  
C    6.8020686    0.0028972   -3.3510102  
O    7.2336210    0.0043058   -4.4960086  
C    7.6791156    0.0014554   -2.1828331  
H    8.7566715   -0.0022585    0.6245376  
H    8.7481210    0.0019066   -2.3470049  
H    4.5604262   -0.0024245    1.0561484  
C    3.3041270    0.0001177   -1.5420435  
C    2.5845370   -0.0004780   -0.3695856  
C    1.2040004   -0.0000007   -0.7283590  
C    1.1422370    0.0006038   -2.1454373  
N    2.4348634    0.0026110   -2.6077469  
C   -0.0655187    0.0008799   -2.8497918  
C   -1.2321769    0.0002326   -2.1101398  
O   -2.4392822    0.0001149   -2.7472517  
C   -1.1911211   -0.0000007   -0.6955263  
O   -2.4371526   -0.0002319   -0.1032858  
C    0.0000000    0.0000000    0.0000000  
H    3.0031534   -0.0000661    0.6222578  
H    2.7054623   -0.0071098   -3.5745266  
H   -0.1193555    0.0014846   -3.9297472  
H   -3.1132992   -0.0000646   -2.0551783  
H   -2.3200279   -0.0004070    0.8516411  
C    0.0000000    0.0000000    1.4700000  
C    1.0541688    0.0001722    2.3260392  
C    0.5103138    0.0000454    3.6635956  
C   -0.9576371   -0.0002459    3.5155732  
N   -1.2018458    0.0001392    2.1615969  
C   -1.8348311   -0.0008317    4.5510609  
C   -1.2972847   -0.0009736    5.9014604  
O   -2.0050672   -0.0014265    6.9001319  
C    0.2542623   -0.0004184    6.0817573  
O    0.7184670   -0.0002256    7.2139121  
C    1.0974552   -0.0000873    4.8889129  
H    2.0940752    0.0005483    2.0517982  
H   -2.9081052   -0.0011668    4.4207061  
H    2.1707277    0.0000911    5.0223670  
H   -2.1128194   -0.0014912    1.7406791  
