62

C   -0.9119259    0.6482665   -0.8003802  
C    0.0000000    0.0000000    0.0000000  
C    0.9219481   -0.6575035   -0.8673526  
C    0.5188028   -0.3717941   -2.1969277  
N   -0.5988611    0.4216553   -2.1202237  
C    1.2016830   -0.8589310   -3.3154807  
C    2.3119363   -1.6486300   -3.0876857  
O    3.0158692   -2.1502455   -4.1440352  
C    2.7296238   -1.9451553   -1.7684334  
O    3.8524745   -2.7444138   -1.7073130  
C    2.0562672   -1.4651468   -0.6644817  
H   -1.1026960    0.7919960   -2.9057036  
H    3.7410992   -2.6662776   -3.7685136  
H    4.0673502   -2.8967751   -0.7819921  
H    2.3997550   -1.7092725    0.3339654  
H   -1.7617417    1.2531819   -0.5342064  
C   -0.3302435    2.7959675   -5.2626196  
C    0.1459512    1.8910872   -4.3690286  
C    0.3402596    0.6531543   -5.0863858  
C   -0.0646430    0.9128699   -6.4811588  
N   -0.4611203    2.2297078   -6.5215718  
C   -0.0282933   -0.0087519   -7.4766470  
C    0.4407236   -1.3457703   -7.1527016  
O    0.5103812   -2.2457475   -7.9794360  
C    0.8743489   -1.6431914   -5.6818809  
O    1.2706720   -2.7652995   -5.3971654  
C    0.7907906   -0.5679961   -4.6965761  
H    0.3388869    2.0703012   -3.3263053  
H   -0.3296907    0.2023743   -8.4932572  
H   -0.7924034    2.7065750   -7.3400439  
C   -0.1883807    5.2189232   -1.6436891  
C   -0.6428745    6.4152888   -2.0838302  
C   -0.9174475    6.2148648   -3.4983759  
C   -0.5623784    4.8017124   -3.7503870  
N   -0.1344530    4.2127600   -2.6668718  
C   -0.6937337    4.2044844   -5.0508293  
C   -1.1590322    4.9834719   -6.0538300  
O   -1.3317846    4.5574736   -7.3166535  
C   -1.5262149    6.4130530   -5.8310400  
O   -1.9430032    7.0627212   -6.7899139  
C   -1.3824906    7.0025365   -4.4879919  
H   -0.7755180    7.3218041   -1.5184000  
H   -1.6728817    5.3341203   -7.7958455  
H   -1.6593140    8.0413791   -4.3679692  
H    0.1244705    4.9534222   -0.6463894  
C    0.8676693    0.7151171    2.2619005  
C    0.5875920    0.4624972    3.5848544  
C   -0.5048400   -0.4542819    3.6114698  
C   -0.8517165   -0.7276451    2.2635546  
N    0.0000000    0.0000000    1.4700000  
C   -1.8902865   -1.5946756    1.9108239  
C   -2.5912627   -2.1969500    2.9375057  
O   -3.6148162   -3.0527051    2.6493466  
C   -2.2603868   -1.9365747    4.2886322  
O   -3.0513550   -2.6123276    5.1947621  
C   -1.2361111   -1.0811317    4.6373480  
H    1.1060808    0.8876438    4.4271209  
H   -2.1597133   -1.8070987    0.8854031  
H   -3.9636755   -3.3565188    3.4974381  
H   -2.7621927   -2.3810384    6.0827341  
H   -1.0058879   -0.9010589    5.6809233  
H    1.6167816    1.3499334    1.8205408  
