62

C   -0.2288165   -1.0761828   -9.5448433  
C   -0.3826699    0.0235705   -8.7328456  
C   -0.6240126    1.1407339   -9.5862516  
C   -0.6061784    0.6574007  -10.9196664  
N   -0.3618045   -0.6921099  -10.8586734  
C   -0.8096348    1.4860517  -12.0272463  
C   -1.0355057    2.8269998  -11.7843088  
O   -1.2405786    3.6805924  -12.8294591  
C   -1.0566603    3.3282637  -10.4610165  
O   -1.2934853    4.6852390  -10.3843731  
C   -0.8557551    2.5114059   -9.3678988  
H   -0.3031966   -1.3076205  -11.6496809  
H   -0.7971223    1.1238735  -13.0460067  
H   -1.3761824    4.5561353  -12.4443617  
H   -1.2916569    4.9424175   -9.4573024  
H   -0.8774587    2.9240171   -8.3660209  
H   -0.0333176   -2.1039094   -9.2908405  
C    2.2783848   -2.0910257   -5.9524491  
C    1.7853127   -1.6292412   -4.7744381  
C    0.6997750   -0.7327360   -5.0949402  
C    0.6001070   -0.7099364   -6.5667883  
N    1.5849254   -1.5536735   -7.0262771  
C   -0.3061439    0.0202236   -7.2648431  
C   -1.2459581    0.8383996   -6.5165965  
O   -2.1000519    1.5316274   -7.0534957  
C   -1.1584127    0.8296992   -4.9570889  
O   -1.9441938    1.5148020   -4.3164307  
C   -0.1387079    0.0017019   -4.3179684  
H    2.1415245   -1.8870541   -3.7929803  
H    3.0901479   -2.7785183   -6.1264730  
H    1.7699542   -1.7505092   -7.9927487  
C    3.3041273    0.0001178   -1.5420428  
C    2.5845373   -0.0004780   -0.3695851  
C    1.2040007   -0.0000007   -0.7283589  
C    1.1422374    0.0006038   -2.1454372  
N    2.4348641    0.0026111   -2.6077464  
C   -0.0655179    0.0008799   -2.8497918  
C   -1.2321766    0.0002325   -2.1101402  
O   -2.4392814    0.0001148   -2.7472522  
C   -1.1911209   -0.0000007   -0.6955266  
O   -2.4371528   -0.0002320   -0.1032862  
C    0.0000000    0.0000000    0.0000000  
H    3.0031533   -0.0000660    0.6222584  
H    2.7054631   -0.0071097   -3.5745261  
H   -3.1132988   -0.0000648   -2.0551787  
H   -2.3200282   -0.0004072    0.8516409  
H    4.3686625    0.0004073   -1.7024290  
C    0.8681109    0.7263879    2.2709268  
C    0.6127770    0.5096195    3.5869401  
C   -0.4920590   -0.4175482    3.6542670  
C   -0.8620974   -0.7254003    2.2596025  
N    0.0000000    0.0000000    1.4700000  
C   -1.8641242   -1.5660088    1.8976294  
C   -2.6293522   -2.2103885    2.9520183  
O   -3.5512764   -2.9839180    2.7283916  
C   -2.2549728   -1.8987399    4.4361073  
O   -2.8923672   -2.4351063    5.3323774  
C   -1.1543735   -0.9755647    4.7012123  
H    1.1382914    0.9492124    4.4159191  
H   -2.1192137   -1.7782617    0.8686553  
H   -0.9013378   -0.7652422    5.7314848  
H    1.6172880    1.3558399    1.8188057  
