64

C   -4.1939266    0.7141675   -6.1615709  
C   -5.5443067    0.4646529   -6.2433226  
C   -5.7350628   -0.4436357   -7.3264773  
C   -4.4543709   -0.7152597   -7.8723482  
N   -3.5414448    0.0052204   -7.1429018  
C   -4.2618977   -1.5744851   -8.9583848  
C   -5.3826609   -2.1705993   -9.5031004  
O   -5.2517808   -3.0186198  -10.5645826  
C   -6.6689357   -1.9118364   -8.9726705  
O   -7.6840341   -2.5808162   -9.6248862  
C   -6.8595897   -1.0640908   -7.9014549  
H   -6.2991467    0.8863731   -5.6019477  
H   -3.2884509   -1.7855425   -9.3791673  
H   -6.1429395   -3.3191299  -10.7854786  
H   -8.5185913   -2.3511429   -9.2049231  
H   -7.8568882   -0.8850671   -7.5169757  
H   -3.6447221    1.3428629   -5.4818098  
C   -0.1387078    0.0017019   -4.3179684  
C    0.8680291    0.0011873   -5.2554904  
C    0.2429719    0.0018192   -6.5376383  
C   -1.1582728    0.0030044   -6.3175531  
N   -1.3554489    0.0009500   -4.9589749  
C   -2.0878506    0.0041837   -7.3619057  
C   -1.5938810    0.0044731   -8.6519335  
O   -2.4574184    0.0059625   -9.7089639  
C   -0.1991533    0.0029294   -8.8918277  
O    0.1346056    0.0030242  -10.2304649  
C    0.7184767    0.0014926   -7.8620323  
H    1.9231275   -0.0006578   -5.0415809  
H   -2.2494821    0.0117414   -4.5022801  
H   -1.9125273    0.0056062  -10.5066850  
H    1.0938149    0.0019573  -10.3047650  
H    1.7807470    0.0001466   -8.0766453  
C    3.3041272    0.0001178   -1.5420428  
C    2.5845372   -0.0004779   -0.3695851  
C    1.2040007   -0.0000007   -0.7283589  
C    1.1422375    0.0006038   -2.1454371  
N    2.4348641    0.0026111   -2.6077464  
C   -0.0655179    0.0008799   -2.8497918  
C   -1.2321766    0.0002325   -2.1101402  
O   -2.4392816    0.0001148   -2.7472523  
C   -1.1911209   -0.0000007   -0.6955266  
O   -2.4371527   -0.0002320   -0.1032863  
C    0.0000000    0.0000000    0.0000000  
H    3.0031533   -0.0000660    0.6222584  
H    2.7054632   -0.0071097   -3.5745261  
H   -3.1132986   -0.0000648   -2.0551788  
H   -2.3200284   -0.0004071    0.8516409  
H    4.3686626    0.0004072   -1.7024289  
C    0.8400945    0.7047457    2.2710304  
C    0.0000000    0.0000000    1.4700000  
C   -0.8844236   -0.7423113    2.3369512  
C   -0.4878984   -0.4098547    3.7186280  
N    0.5629682    0.4714286    3.6095011  
C   -1.0836927   -0.9095027    4.8308716  
C   -2.1891196   -1.8367527    4.6554461  
O   -2.7906899   -2.3413415    5.5944904  
C   -2.6257283   -2.2031529    3.2011665  
O   -3.5549479   -2.9829990    3.0410059  
C   -1.9068976   -1.5999348    2.0816745  
H   -0.7774656   -0.6525820    5.8354244  
H   -2.2155208   -1.8586617    1.0779135  
H    1.6384792    1.3747609    1.9961646  
H    1.0518368    0.8833920    4.3830260  
