64

C    3.8662948   -0.6764235   -9.0669898  
C    4.5221668   -0.6175419  -10.2748116  
C    4.4415138    0.7328749  -10.7269944  
C    3.7189025    1.4580793   -9.7452422  
N    3.3829524    0.5719742   -8.7519786  
C    3.4482091    2.8248334   -9.8614238  
C    3.9157626    3.4713376  -10.9890780  
O    3.6798414    4.8057046  -11.1528410  
C    4.6383483    2.7649281  -11.9798723  
O    5.0359118    3.5491630  -13.0430094  
C    4.9055276    1.4165276  -11.8660444  
H    4.9990129   -1.4462283  -10.7696747  
H    2.8978929    3.3832658   -9.1167720  
H    4.0855717    5.0535229  -11.9938136  
H    5.5169855    2.9958705  -13.6659388  
H    5.4613105    0.9022006  -12.6413192  
H    3.7037935   -1.5104582   -8.4059774  
C    3.8706495   -0.7380873   -4.5561747  
C    2.8310662   -0.0116220   -4.0232752  
C    2.2320926    0.7087007   -5.0988989  
C    2.9547295    0.3789711   -6.2740584  
N    3.9438705   -0.5000826   -5.9087061  
C    2.6394081    0.9080274   -7.5292317  
C    1.5750118    1.7857016   -7.5994172  
O    1.2238667    2.3314669   -8.8001889  
C    0.8420571    2.1272692   -6.4379844  
O   -0.1887493    3.0138602   -6.6719458  
C    1.1527385    1.6059342   -5.1993506  
H    4.6097923   -0.9169122   -6.5338321  
H    0.4674984    2.9071601   -8.6277095  
H   -0.6323026    3.1917814   -5.8369559  
H    0.5733105    1.8862625   -4.3274805  
H    4.5665939   -1.4060743   -4.0782487  
C    3.3041270    0.0001177   -1.5420434  
C    2.5845372   -0.0004781   -0.3695856  
C    1.2040006   -0.0000008   -0.7283592  
C    1.1422371    0.0006037   -2.1454375  
N    2.4348636    0.0026109   -2.6077467  
C   -0.0655183    0.0008798   -2.8497920  
C   -1.2321770    0.0002326   -2.1101400  
O   -2.4392818    0.0001147   -2.7472520  
C   -1.1911210   -0.0000007   -0.6955263  
O   -2.4371527   -0.0002320   -0.1032859  
C    0.0000000    0.0000000    0.0000000  
H    3.0031533   -0.0000660    0.6222577  
H   -0.1193553    0.0014844   -3.9297472  
H   -3.1132989   -0.0000648   -2.0551784  
H   -2.3200282   -0.0004069    0.8516410  
H    4.3686624    0.0004070   -1.7024294  
C    2.4951002    2.0940188    2.9809380  
C    1.9440701    1.6314916    1.8291961  
C    0.8759964    0.7350050    2.2038498  
C    0.8497377    0.7130254    3.6788474  
N    1.8560616    1.5571714    4.0882609  
C   -0.0205033   -0.0168748    4.4215661  
C   -0.9962600   -0.8356168    3.7214979  
O   -1.8224391   -1.5286685    4.3006425  
C   -0.9864710   -0.8277881    2.1595606  
O   -1.8030528   -1.5133726    1.5592035  
C    0.0000000    0.0000000    1.4700000  
H    2.2509283    1.8888011    0.8310761  
H   -0.0229599   -0.0187323    5.5027230  
H    3.3143982    2.7817323    3.1139444  
H    2.0889452    1.7545833    5.0442112  
