60

C    0.7714750   -0.6920137   -9.6048068  
C    1.5758317   -0.6459792  -10.7198666  
C    1.5578270    0.7002599  -11.1909462  
C    0.7186275    1.4362742  -10.3157567  
N    0.2561371    0.5603401   -9.3652527  
C    0.4694460    2.8024384  -10.4779039  
C    1.0787682    3.4372290  -11.5427730  
O    0.8700206    4.7704837  -11.7473942  
C    1.9191542    2.7199237  -12.4271042  
O    2.4513065    3.4931985  -13.4381443  
C    2.1652110    1.3720962  -12.2679067  
H    2.1089934   -1.4803323  -11.1424615  
H   -0.1692554    3.3690749   -9.8144396  
H    1.3802370    5.0094555  -12.5321472  
H    3.0058636    2.9330033  -13.9897359  
H    2.8133758    0.8492621  -12.9614519  
H    0.5234542   -1.5193979   -8.9622491  
C    0.2055739   -0.7043959   -5.1603477  
C   -0.8712826    0.0001710   -4.7267111  
C   -1.3726443    0.7423358   -5.8592585  
C   -0.4933182    0.4099879   -6.9964131  
N    0.4429031   -0.4710989   -6.5064486  
C   -0.6357676    0.9095501   -8.2501479  
C   -1.7278970    1.8365864   -8.4958973  
O   -1.9397494    2.3410839   -9.5908411  
C   -2.6713151    2.2028683   -7.3061057  
O   -3.5940523    2.9825347   -7.5008834  
C   -2.4172089    1.5997594   -6.0001417  
H   -3.0751238    1.8584033   -5.1816219  
H    0.8458871   -1.3742665   -4.6097462  
H    1.1831969   -0.8829509   -7.0443978  
C    1.0965514    0.0001359   -0.8010305  
C    0.0000000    0.0000000    0.0000000  
C   -1.1546563    0.0001470   -0.8669513  
C   -0.6372014    0.0003519   -2.2486282  
N    0.7342871    0.0007337   -2.1395014  
C   -1.4147739    0.0001352   -3.3608717  
C   -2.8576049   -0.0001048   -3.1854462  
O   -3.6427779   -0.0002494   -4.1244907  
C   -3.4275840   -0.0000725   -1.7311666  
O   -4.6406831    0.0000333   -1.5710060  
C   -2.4891867   -0.0001091   -0.6116744  
H   -2.8919122   -0.0002918    0.3920866  
H    2.1388272    0.0000663   -0.5261648  
H    1.3735872   -0.0006099   -2.9130262  
C    0.8175213    0.6860729    2.3021913  
C    0.0000000    0.0000000    1.4700000  
C   -0.8887526   -0.7456559    2.3478473  
C   -0.4549825   -0.3816753    3.7138435  
N    0.5448156    0.4573574    3.6934124  
C   -1.0945674   -0.9182058    4.8835240  
C   -2.1210866   -1.7789155    4.6970523  
O   -2.8083856   -2.3554314    5.6976972  
C   -2.5824069   -2.1655116    3.3310774  
O   -3.5227682   -2.9541547    3.2362962  
C   -1.9100805   -1.6015804    2.1470656  
H   -0.7567140   -0.6349833    5.8697035  
H   -3.4728268   -2.9124471    5.2533954  
H   -2.2742832   -1.9066565    1.1752040  
H    1.6189533    1.3585343    2.0405121  
