64

C    7.1168367   -3.2488736   -7.1706542  
C    6.6167817   -1.9961200   -6.9004290  
C    7.0922583   -1.1276363   -7.9271997  
C    7.8840550   -1.9133661   -8.8033355  
N    7.8795830   -3.1959195   -8.3137912  
C    8.5145312   -1.3834610   -9.9331542  
C    8.3423117   -0.0358796  -10.1832392  
O    8.9353792    0.5330173  -11.2730290  
C    7.5563391    0.7646683   -9.3205759  
O    7.4814571    2.0876313   -9.7046389  
C    6.9342881    0.2426318   -8.2056516  
H    8.3486059   -3.9786063   -8.7325995  
H    9.1194372   -1.9769442  -10.6047680  
H    8.6905237    1.4674434  -11.2604627  
H    6.9328785    2.5581147   -9.0695715  
H    6.3386322    0.8805629   -7.5632224  
H    6.9909388   -4.1756874   -6.6376209  
C    5.8841829   -2.1091711   -4.4899267  
C    5.7577999   -1.6457874   -5.7601149  
C    4.6250714   -0.7504403   -5.7708530  
C    4.0981361   -0.7300180   -4.3929151  
N    4.9052815   -1.5745225   -3.6661288  
C    3.0267438   -0.0008951   -3.9901699  
C    2.3471072    0.8182474   -4.9799352  
O    1.3727582    1.5105723   -4.7160578  
C    2.8878461    0.8116754   -6.4453235  
O    2.3236394    1.4971368   -7.2873889  
C    4.0508242   -0.0149262   -6.7584744  
H    4.4191196   -0.0137453   -7.7753717  
H    6.6099527   -2.7964260   -4.0864079  
H    4.8007125   -1.7705397   -2.6875125  
C    3.3003547    0.0005277   -1.4738986  
C    2.5232816    0.0003497   -2.6090746  
C    1.1623203   -0.0001319   -2.1820102  
C    1.1711884    0.0000584   -0.7636141  
N    2.4852301   -0.0014919   -0.3662359  
C    0.0000000    0.0000000    0.0000000  
C   -1.2020383    0.0000520   -0.6806479  
O   -2.3759248    0.0003493    0.0157745  
C   -1.2314655   -0.0005115   -2.0955511  
O   -2.5054388   -0.0008040   -2.6250184  
C   -0.0764513   -0.0007274   -2.8495195  
H    2.8036266    0.0088183    0.5858662  
H   -3.0835639    0.0000346   -0.6418822  
H   -2.4360043   -0.0011529   -3.5845924  
H   -0.1304091   -0.0013423   -3.9319089  
H    4.3715553    0.0004897   -1.3667133  
C    2.5311839    2.1237619    3.0120429  
C    1.9795631    1.6616747    1.8395852  
C    0.9223175    0.7739173    2.1983588  
C    0.8753926    0.7337535    3.6154372  
N    1.8668922    1.5631002    4.0777464  
C   -0.0496243   -0.0427881    4.3197917  
C   -0.9437528   -0.7922060    3.5801400  
O   -1.8685244   -1.5680278    4.2172520  
C   -0.9124520   -0.7656372    2.1655264  
O   -1.8671164   -1.5663939    1.5732860  
C    0.0000000    0.0000000    1.4700000  
H    2.3005065    1.9304404    0.8477417  
H    2.0679347    1.7444845    5.0445261  
H   -0.0904770   -0.0778569    5.3997470  
H   -2.3849669   -2.0011402    3.5251786  
H   -1.7775064   -1.4909735    0.6183591  
H    3.3468514    2.8078103    3.1724291  
