60

C    5.1118932   -0.0090911   -7.9073958  
C    6.2091067   -0.6835067   -8.3908782  
C    6.3488649   -0.3214338   -9.7634558  
C    5.2996025    0.5845158  -10.0638393  
N    4.5661180    0.7508102   -8.9153786  
C    5.1278633    1.1494904  -11.3311588  
C    6.0319955    0.7936634  -12.3130505  
O    5.9109370    1.3161513  -13.5681859  
C    7.0853362   -0.1089873  -12.0328513  
O    7.9017891   -0.3637377  -13.1153726  
C    7.2552080   -0.6669445  -10.7829110  
H    6.8314659   -1.3548060   -7.8242917  
H    3.7632884    1.3461788   -8.8206032  
H    4.3301472    1.8404635  -11.5665472  
H    6.6325656    0.9422085  -14.0903770  
H    8.5862828   -0.9817630  -12.8412974  
H    8.0714130   -1.3555371  -10.5981736  
C    6.1837013   -2.1071897   -4.1730098  
C    6.1473622   -1.6429267   -5.4486332  
C    5.0179319   -0.7478970   -5.5388750  
C    4.3948020   -0.7286187   -4.2016659  
N    5.1487786   -1.5734158   -3.4201748  
C    3.2973506   -0.0000934   -3.8752374  
C    2.6891817    0.8195673   -4.9100425  
O    1.6983690    1.5114227   -4.7152923  
C    3.3322639    0.8142068   -6.3334969  
O    2.8288284    1.5001132   -7.2128972  
C    4.5147647   -0.0118356   -6.5641428  
H    6.8333442   -1.8984505   -6.2365100  
H    6.8793287   -2.7945278   -3.7196240  
H    4.9752871   -1.7701682   -2.4515488  
C    3.3321174    0.0004714   -1.3379332  
C    2.6974186    0.0000115   -2.5332308  
C    1.2800441   -0.0002119   -2.2052838  
C    1.2395035    0.0000643   -0.7271293  
N    2.4394063    0.0005458   -0.2131034  
C    0.0000000    0.0000000    0.0000000  
C   -1.1468701    0.0000634   -0.7169542  
O   -2.3742201    0.0000072   -0.1695492  
C   -1.1388767    0.0001606   -2.2096354  
O   -2.2206229    0.0000903   -2.7970413  
C    0.1454526    0.0001815   -2.9324239  
H   -2.9844344    0.0001023   -0.9290168  
H    0.1083580    0.0003680   -4.0135594  
H    4.3940040    0.0007617   -1.1498630  
C    2.5528530    2.1414826    2.8079335  
C    2.0663498    1.7338582    4.0032312  
C    0.9804344    0.8229586    3.6752840  
C    0.9495562    0.7966882    2.1971295  
N    1.8690446    1.5676019    1.6831036  
C    0.0000000    0.0000000    1.4700000  
C   -0.8785127   -0.7372425    2.1869543  
O   -1.8187535   -1.5261249    1.6395491  
C   -0.8723269   -0.7321790    3.6796354  
O   -1.7010379   -1.4274584    4.2670412  
C    0.1115397    0.0933559    4.4024240  
H    2.4028853    2.0163452    4.9860947  
H   -2.2861435   -1.9184361    2.3990168  
H    0.0832434    0.0693689    5.4835595  
H    3.3664920    2.8238276    2.6198634  
