60

C    7.0048584   -5.6431699   -4.3670350  
C    6.1161522   -4.6567847   -4.0068776  
C    6.5567352   -3.4516642   -4.6299120  
C    7.7288330   -3.7669907   -5.3638634  
N    7.9740648   -5.1052998   -5.1810899  
C    8.4352881   -2.8156730   -6.1059580  
C    7.9495011   -1.5225428   -6.1074012  
O    8.6003746   -0.5541932   -6.8156919  
C    6.7818179   -1.1882949   -5.3810323  
O    6.4258326    0.1407797   -5.4819221  
C    6.0845267   -2.1262219   -4.6484993  
H    5.2567353   -4.7892862   -3.3721824  
H    8.7351274   -5.6169613   -5.5897040  
H    9.3293357   -3.0495823   -6.6673556  
H    8.1021235    0.2627305   -6.6828542  
H    5.6281748    0.2822398   -4.9629483  
H    7.0248659   -6.6875221   -4.1064851  
C    4.4889027   -2.1447426   -2.6754911  
C    4.8757512   -1.7386739   -3.9071713  
C    3.8306321   -0.8272354   -4.3470646  
C    2.8651831   -0.7989832   -3.2273794  
N    3.2457607   -1.5692932   -2.2446421  
C    1.6707636   -0.0012343   -3.2725974  
C    1.4510169    0.7351291   -4.3856180  
O    0.3782656    1.5248306   -4.5634278  
C    2.4067067    0.7280663   -5.5322517  
O    2.1427791    1.4226352   -6.5136471  
C    3.6247812   -0.0985266   -5.4618018  
H    0.5021831    1.9161680   -5.4469733  
H    4.2917393   -0.0759844   -6.3132055  
H    4.9956247   -2.8269105   -2.0115233  
C    1.0965514    0.0001358   -0.8010306  
C    0.0000000    0.0000000    0.0000000  
C   -1.1546565    0.0001470   -0.8669508  
C   -0.6372019    0.0003520   -2.2486278  
N    0.7342867    0.0007338   -2.1395012  
C   -1.4147744    0.0001354   -3.3608712  
C   -2.8576052   -0.0001047   -3.1854454  
O   -3.6427785   -0.0002490   -4.1244896  
C   -3.4275841   -0.0000727   -1.7311660  
O   -4.6406832    0.0000333   -1.5710049  
C   -2.4891868   -0.0001090   -0.6116739  
H   -1.0150456    0.0001617   -4.3654239  
H   -2.8919122   -0.0002919    0.3920871  
H    2.1388270    0.0000663   -0.5261650  
C    0.8400945    0.7047457    2.2710304  
C    0.0000000    0.0000000    1.4700000  
C   -0.8844236   -0.7423113    2.3369512  
C   -0.4878984   -0.4098547    3.7186280  
N    0.5629682    0.4714286    3.6095011  
C   -1.0836927   -0.9095027    4.8308716  
C   -2.1891196   -1.8367527    4.6554461  
O   -2.7906899   -2.3413415    5.5944904  
C   -2.6257283   -2.2031529    3.2011665  
O   -3.5549479   -2.9829990    3.0410059  
C   -1.9068976   -1.5999348    2.0816745  
H   -0.7774656   -0.6525820    5.8354244  
H   -2.2155208   -1.8586617    1.0779135  
H    1.6384792    1.3747609    1.9961646  
H    1.0518368    0.8833920    4.3830260  
