62

C   10.0214875   -2.1237153    3.2103023  
C    8.9906689   -1.6618700    2.4250757  
C    9.5632266   -0.7754488    1.4653698  
C   10.9587780   -0.7358133    1.7159565  
N   11.2029167   -1.5641742    2.7831170  
C   11.8415337    0.0394287    0.9579799  
C   11.3057725    0.7880655   -0.0719127  
O   12.1227234    1.5626105   -0.8437186  
C    9.9159089    0.7620062   -0.3372761  
O    9.5369899    1.5618629   -1.3955735  
C    9.0444194   -0.0023487    0.4102494  
H    7.9534740   -1.9299348    2.5316606  
H   12.1061253   -1.7456507    3.1821924  
H   12.9061505    0.0740890    1.1439688  
H   11.5542786    1.9953602   -1.4939973  
H    8.5844083    1.4868652   -1.5076805  
H   10.0072624   -2.8068789    4.0421941  
C    6.5698745   -0.0006427    0.9721610  
C    7.6069601   -0.0018567    0.1026609  
C    6.9912940   -0.0024305   -1.2154645  
C    5.5370519   -0.0015107   -0.9475763  
N    5.2839240   -0.0003802    0.3330154  
C    4.5679461   -0.0016854   -2.0086701  
C    5.0305955   -0.0023425   -3.2796106  
O    4.2398095   -0.0025848   -4.3662099  
C    6.4922745   -0.0029069   -3.5823559  
O    6.8417597   -0.0036175   -4.7626441  
C    7.4664605   -0.0027580   -2.4765142  
H    4.8556974   -0.0030412   -5.1210838  
H    8.5162193   -0.0030654   -2.7377360  
H    6.6068538    0.0001032    2.0499390  
C    3.1301149   -0.0010311   -1.7028252  
C    2.5367768   -0.0002767   -0.4864665  
C    1.1089904    0.0001028   -0.7656183  
C    1.0177872   -0.0004148   -2.2415132  
N    2.1993578   -0.0011611   -2.7963820  
C   -0.2459209   -0.0002877   -2.9257118  
C   -1.3675319   -0.0000605   -2.1698524  
O   -2.6129313    0.0000867   -2.6748490  
C   -1.3083584    0.0000910   -0.6783232  
O   -2.3693261    0.0004206   -0.0541692  
C    0.0000000    0.0000000    0.0000000  
H    3.0096017   -0.0001007    0.4807525  
H   -0.2829630   -0.0004687   -4.0053125  
H   -3.1967441    0.0002094   -1.8949034  
C    2.5285572    2.1210227    2.9438989  
C    1.9331703    1.6216660    4.0790748  
C    0.8903039    0.7472258    3.6520102  
C    0.8972198    0.7527806    2.2336141  
N    1.9028376    1.5986179    1.8362361  
C    0.0000000    0.0000000    1.4700000  
C   -0.9207814   -0.7726952    2.1506477  
O   -1.8198395   -1.5274828    1.4542253  
C   -0.9436862   -0.7911793    3.5655508  
O   -1.9197945   -1.6098497    4.0950179  
C   -0.0590329   -0.0485852    4.3195194  
H    2.2150357    1.8593692    5.0905303  
H    2.1533708    1.7953814    0.8841339  
H   -2.3621246   -1.9821033    2.1118817  
H   -1.8668290   -1.5649508    5.0545920  
H   -0.1007624   -0.0827977    5.4019087  
H    3.3491200    2.8096064    2.8367138  
