66

C    6.7068647   -0.0034179    1.2828889  
C    7.7136019   -0.0021476    0.3453682  
C    7.0885448   -0.0007422   -0.9367789  
C    5.6872994   -0.0009463   -0.7166942  
N    5.4901244   -0.0045362    0.6418808  
C    4.7577216    0.0005129   -1.7610467  
C    5.2516913    0.0025159   -3.0510726  
O    4.3881533    0.0043529   -4.1081025  
C    6.6464200    0.0023764   -3.2909667  
O    6.9801791    0.0041002   -4.6296022  
C    7.5640502    0.0006642   -2.2611721  
H    8.7687013   -0.0033297    0.5592775  
H    4.5960831    0.0050495    1.0985849  
H    4.9330450    0.0052559   -4.9058230  
H    7.9393887    0.0039070   -4.7039034  
H    8.6263208    0.0004196   -2.4757849  
C   10.1496987   -0.0049609    4.0588160  
C    9.4301088   -0.0073336    5.2312709  
C    8.0495732   -0.0076339    4.8724967  
C    7.9878101   -0.0056506    3.4554197  
N    9.2804343   -0.0021099    2.9931142  
C    6.7800545   -0.0056609    2.7510640  
C    5.6133965   -0.0080175    3.4907137  
O    4.4062925   -0.0084888    2.8536001  
C    5.6544519   -0.0096441    4.9053256  
O    4.4084207   -0.0115015    5.4975645  
C    6.8455723   -0.0093620    5.6008539  
H    9.8487246   -0.0075769    6.2231153  
H    9.5510419   -0.0106319    2.0263255  
H    3.7322756   -0.0099230    3.5456726  
H    4.5255448   -0.0125434    6.4524908  
H    6.8455720   -0.0104554    6.6845867  
H   11.2142337   -0.0036310    3.8984308  
C    3.3041270    0.0001177   -1.5420435  
C    2.5845370   -0.0004780   -0.3695856  
C    1.2040004   -0.0000007   -0.7283590  
C    1.1422370    0.0006038   -2.1454373  
N    2.4348634    0.0026110   -2.6077469  
C   -0.0655187    0.0008799   -2.8497918  
C   -1.2321769    0.0002326   -2.1101398  
O   -2.4392822    0.0001149   -2.7472517  
C   -1.1911211   -0.0000007   -0.6955263  
O   -2.4371526   -0.0002319   -0.1032858  
C    0.0000000    0.0000000    0.0000000  
H    3.0031534   -0.0000661    0.6222578  
H    2.7054623   -0.0071098   -3.5745266  
H   -0.1193555    0.0014846   -3.9297472  
H   -3.1132992   -0.0000646   -2.0551783  
H   -2.3200279   -0.0004070    0.8516411  
C    2.5285572    2.1210227    2.9438989  
C    1.9331703    1.6216660    4.0790748  
C    0.8903039    0.7472258    3.6520102  
C    0.8972198    0.7527806    2.2336141  
N    1.9028376    1.5986179    1.8362361  
C    0.0000000    0.0000000    1.4700000  
C   -0.9207814   -0.7726952    2.1506477  
O   -1.8198395   -1.5274828    1.4542253  
C   -0.9436862   -0.7911793    3.5655508  
O   -1.9197945   -1.6098497    4.0950179  
C   -0.0590329   -0.0485852    4.3195194  
H    2.2150357    1.8593692    5.0905303  
H    2.1533708    1.7953814    0.8841339  
H   -2.3621246   -1.9821033    2.1118817  
H   -1.8668290   -1.5649508    5.0545920  
H   -0.1007624   -0.0827977    5.4019087  
H    3.3491200    2.8096064    2.8367138  
