62

C    2.1639591   -1.8274875   -8.4512954  
C    3.1199676   -2.6340457   -9.0239905  
C    2.9626628   -2.5268921  -10.4376282  
C    1.8860726   -1.6331006  -10.6700427  
N    1.4226225   -1.2285525   -9.4427812  
C    1.4505529   -1.2913502  -11.9539120  
C    2.1141259   -1.8620418  -13.0226312  
O    1.7301188   -1.5626212  -14.2977383  
C    3.1903491   -2.7563571  -12.8110622  
O    3.7478748   -3.2406969  -13.9763620  
C    3.6203616   -3.0941643  -11.5447682  
H    3.8412032   -3.2275737   -8.4886978  
H    0.6681700   -0.5837580   -9.2910509  
H    0.6305641   -0.6108917  -12.1377516  
H    2.3154048   -2.0605562  -14.8832006  
H    4.4668204   -3.8365982  -13.7447963  
H    4.4474010   -3.7821747  -11.4139037  
C    2.5409786   -2.1228913   -5.9711679  
C    1.9926482   -1.6610300   -4.7970794  
C    0.9342951   -0.7733298   -5.1527156  
C    0.8833348   -0.7329668   -6.5696486  
N    1.8736002   -1.5621447   -7.0348961  
C   -0.0437619    0.0435811   -7.2712567  
C   -0.9358594    0.7928002   -6.5289556  
O   -1.8625197    1.5686188   -7.1633227  
C   -0.9005316    0.7660310   -5.1144410  
O   -1.8535897    1.5666042   -4.5193714  
C    0.0139741    0.0003876   -4.4216236  
H    2.3164396   -1.9299054   -3.8061918  
H   -0.0876906    0.0788013   -8.3510857  
H   -2.3770355    2.0015783   -6.4697198  
H   -1.7612551    1.4910552   -3.5647142  
H    3.3562569   -2.8068330   -6.1339727  
C    3.2798085    0.0005853   -1.4499648  
C    2.5571144    0.0005562   -2.5996554  
C    1.1637436    0.0001546   -2.2210360  
C    1.1336965   -0.0000201   -0.7459470  
N    2.4483513   -0.0001430   -0.3402717  
C    0.0000000    0.0000000    0.0000000  
C   -1.2757367   -0.0000188   -0.6964414  
O   -2.3524597   -0.0000640   -0.1142313  
C   -1.2676494   -0.0000875   -2.2584081  
O   -2.3355762   -0.0004102   -2.8557294  
C    0.0181562    0.0001757   -2.9516296  
H    2.9547357    0.0006072   -3.5989105  
H    4.3498550    0.0008609   -1.3200021  
H    2.7563627    0.0012824    0.6148063  
C    2.4951002    2.0940188    2.9809380  
C    1.9440701    1.6314916    1.8291961  
C    0.8759964    0.7350050    2.2038498  
C    0.8497377    0.7130254    3.6788474  
N    1.8560616    1.5571714    4.0882609  
C   -0.0205033   -0.0168748    4.4215661  
C   -0.9962600   -0.8356168    3.7214979  
O   -1.8224391   -1.5286685    4.3006425  
C   -0.9864710   -0.8277881    2.1595606  
O   -1.8030528   -1.5133726    1.5592035  
C    0.0000000    0.0000000    1.4700000  
H    2.2509283    1.8888011    0.8310761  
H   -0.0229599   -0.0187323    5.5027230  
H    3.3143982    2.7817323    3.1139444  
H    2.0889452    1.7545833    5.0442112  
