62

C    1.1188644    0.0008226   -0.8003805  
C    0.0000000    0.0000000    0.0000000  
C   -1.1323860    0.0008892   -0.8673527  
C   -0.6382656    0.0019674   -2.1969283  
N    0.7324019    0.0038482   -2.1202239  
C   -1.4770908    0.0027309   -3.3154809  
C   -2.8395472    0.0020928   -3.0876856  
O   -3.7039192    0.0024401   -4.1440350  
C   -3.3517869    0.0013914   -1.7684331  
O   -4.7300491    0.0012343   -1.7073130  
C   -2.5248543    0.0009112   -0.6644819  
H   -1.1067561    0.0036980   -4.3313812  
H   -4.5940030    0.0021805   -3.7685135  
H   -4.9934602    0.0007241   -0.7819917  
H   -2.9462580    0.0005591    0.3339653  
H    2.1619895    0.0009363   -0.5342066  
C    4.5154634   -2.1146742   -2.8156716  
C    4.7985787   -1.6646921   -4.0652463  
C    3.7280662   -0.7729166   -4.4441598  
C    2.7913715   -0.7399853   -3.3047264  
N    3.3260556   -1.5745760   -2.3505458  
C    1.6478439   -0.0100095   -3.2702997  
C    1.3174724    0.7969142   -4.4331687  
O    0.3100018    1.4889656   -4.4992704  
C    2.2949959    0.7769792   -5.6513051  
O    2.0272068    1.4520882   -6.6360779  
C    3.4969331   -0.0492770   -5.5706860  
H    4.1686930   -0.0573906   -6.4182686  
H    5.0755455   -2.7955770   -2.1955351  
H    2.9164744   -1.7608854   -1.4535623  
C    6.5331682   -3.2906827   -4.9516542  
C    7.6118760   -3.2950793   -5.7765452  
C    7.7718958   -1.9466824   -6.2675183  
C    6.6902534   -1.1506475   -5.6566445  
N    5.9747002   -2.0240842   -4.8705258  
C    6.4967771    0.1754837   -5.8702986  
C    7.4150101    0.8647259   -6.7615498  
O    7.3245979    2.0581887   -7.0180135  
C    8.5677056    0.0413472   -7.4196873  
O    9.3467778    0.6107603   -8.1720681  
C    8.6742859   -1.3827537   -7.1123938  
H    8.2253483   -4.1458562   -6.0141266  
H    5.6971078    0.7407774   -5.4121703  
H    9.4752955   -1.9456683   -7.5719966  
H    6.0990749   -4.1062182   -4.3963571  
C    0.8576279    0.7185626    2.2703808  
C    0.0000000    0.0000000    1.4700000  
C   -0.8668858   -0.7285659    2.3373528  
C   -0.4876752   -0.4117774    3.6669281  
N    0.5635254    0.4678311    3.5902241  
C   -1.1297612   -0.9515493    4.7854808  
C   -2.1738724   -1.8268314    4.5576857  
O   -2.8357962   -2.3827064    5.6140350  
C   -2.5667212   -2.1555554    3.2384331  
O   -3.6226318   -3.0413663    3.1773122  
C   -1.9335634   -1.6236449    2.1344818  
H    1.0363952    0.8769718    4.3757045  
H   -0.8454472   -0.7142436    5.8013813  
H   -3.5178062   -2.9546422    5.2385129  
H   -3.8247440   -3.2102924    2.2519915  
H   -2.2566033   -1.8942483    1.1360343  
H    1.6567807    1.3889844    2.0042067  
