64

C    7.5937840   -0.9928726   -4.4363635  
C    6.7385876    0.0840298   -4.4736199  
C    7.5204468    1.2247034   -4.8231342  
C    8.8567112    0.7786007   -4.9884041  
N    8.8664285   -0.5723094   -4.7443456  
C    9.9033460    1.6379031   -5.3361739  
C    9.5953648    2.9717898   -5.5207591  
O   10.5792683    3.8542905   -5.8615547  
C    8.2681848    3.4361005   -5.3600665  
O    8.1229733    4.7906407   -5.5779622  
C    7.2352023    2.5889914   -5.0167286  
H    9.6746497   -1.1656516   -4.7963422  
H   10.9239379    1.3041681   -5.4635138  
H   10.1554886    4.7189178   -5.9396247  
H    7.1980126    5.0219521   -5.4493300  
H    6.2287022    2.9736175   -4.9005465  
H    7.3968996   -2.0274425   -4.2130683  
C    4.3172189   -2.1276213   -1.4346674  
C    5.3517550   -1.6299841   -2.1926639  
C    4.7753711   -0.7549583   -3.1605024  
C    3.3738278   -0.7584001   -2.9423472  
N    3.1294640   -1.6035967   -1.8885227  
C    2.4861704   -0.0045255   -3.7159919  
C    3.0231741    0.7671115   -4.7281092  
O    2.2016879    1.5228926   -5.5135824  
C    4.4189003    0.7834870   -4.9615577  
O    4.7982355    1.6013212   -6.0058733  
C    5.2951626    0.0398126   -4.1989051  
H    6.3935663   -1.8691800   -2.0645687  
H    2.2250248   -1.7989300   -1.4988871  
H    2.7718794    1.9765076   -6.1479166  
H    5.7549244    1.5549959   -6.0964457  
H    4.3324695   -2.8160055   -0.6071083  
C    0.0000000    0.0000000    0.0000000  
C    1.0521669   -0.0011848   -0.8862341  
C    0.4917221   -0.0011931   -2.1979130  
C   -0.9187427    0.0003100   -2.0478683  
N   -1.1833170   -0.0009472   -0.7007915  
C   -1.7951698    0.0010259   -3.1372090  
C   -1.2375835    0.0005161   -4.4010425  
O   -2.0474208    0.0015256   -5.4997580  
C    0.1673584   -0.0013557   -4.5711962  
O    0.5673529   -0.0020659   -5.8915551  
C    1.0325773   -0.0023359   -3.4969890  
H    2.0953059   -0.0030542   -0.6200560  
H   -2.0989777    0.0102265   -0.2891825  
H   -2.8710930    0.0020274   -3.0295514  
H   -1.4634881    0.0006427   -6.2693593  
H    1.5290715   -0.0033076   -5.9180042  
C    3.3321173   -0.0004715    2.8079335  
C    2.6974184   -0.0000116    4.0032312  
C    1.2800439    0.0002118    3.6752840  
C    1.2395035   -0.0000644    2.1971295  
N    2.4394063   -0.0005460    1.6831036  
C    0.0000000    0.0000000    1.4700000  
C   -1.1468701   -0.0000635    2.1869543  
O   -2.3742202   -0.0000073    1.6395491  
C   -1.1388768   -0.0001607    3.6796354  
O   -2.2206231   -0.0000905    4.2670412  
C    0.1454524   -0.0001816    4.4024240  
H    3.1367986    0.0000651    4.9860947  
H   -2.9844344   -0.0001026    2.3990168  
H    0.1083576   -0.0003682    5.4835595  
H    4.3940039   -0.0007619    2.6198634  
