64

C   -0.5498954    0.8512957   -9.2769532  
C    0.5395710    0.0498515   -9.5283858  
C    0.8423474    0.1820863  -10.9159889  
C   -0.1040621    1.0852016  -11.4642751  
N   -0.9357891    1.4709452  -10.4424877  
C   -0.1065459    1.4511793  -12.8136603  
C    0.8642340    0.8955765  -13.6242589  
O    0.9077886    1.2188185  -14.9496383  
C    1.8169609   -0.0077024  -13.0958501  
O    2.7180734   -0.4747684  -14.0302948  
C    1.8198410   -0.3694075  -11.7648018  
H    1.0522471   -0.5564480   -8.8013668  
H   -1.6995957    2.1168634  -10.5283393  
H   -0.8252018    2.1388565  -13.2377308  
H    1.6498574    0.7280516  -15.3261326  
H    3.3256740   -1.0782090  -13.5917917  
H    2.5621171   -1.0637608  -11.3887995  
C    0.0031965   -0.7071080   -5.1230247  
C    0.1388991   -0.4524513   -6.4680903  
C   -0.8935437    0.4649985   -6.8243881  
C   -1.6340126    0.7366527   -5.6454747  
N   -1.0641734    0.0073898   -4.6315339  
C   -2.7305586    1.6037853   -5.6240971  
C   -3.0858948    2.2079204   -6.8144473  
O   -4.1484927    3.0638601   -6.8500301  
C   -2.3596894    1.9492677   -8.0012674  
O   -2.8374180    2.6267630   -9.1040457  
C   -1.2779805    1.0937256   -8.0231518  
H    0.8889975   -0.8767049   -7.1133462  
H   -3.2991457    1.8149115   -4.7289233  
H   -4.2227702    3.3690777   -7.7635887  
H   -2.2918483    2.3965647   -9.8623106  
H    0.5824520   -1.3429835   -4.4756575  
C    1.1319248    0.0015675   -0.8009270  
C    0.7969916    0.0034959   -2.1169404  
C   -0.6453336    0.0035703   -2.1842672  
C   -1.1266831    0.0015415   -0.7896027  
N    0.0000000    0.0000000    0.0000000  
C   -2.4346129    0.0013924   -0.4276297  
C   -3.4350110    0.0031352   -1.4820184  
O   -4.6384610    0.0030897   -1.2583919  
C   -2.9478958    0.0050460   -2.9661075  
O   -3.7809377    0.0062160   -3.8623775  
C   -1.5113821    0.0053068   -3.2312125  
H    1.4821240    0.0045436   -2.9459192  
H   -2.7664565    0.0000185    0.6013447  
H    2.1104318    0.0009428   -0.3488058  
C    0.8676693    0.7151171    2.2619005  
C    0.5875920    0.4624972    3.5848544  
C   -0.5048400   -0.4542819    3.6114698  
C   -0.8517165   -0.7276451    2.2635546  
N    0.0000000    0.0000000    1.4700000  
C   -1.8902865   -1.5946756    1.9108239  
C   -2.5912627   -2.1969500    2.9375057  
O   -3.6148162   -3.0527051    2.6493466  
C   -2.2603868   -1.9365747    4.2886322  
O   -3.0513550   -2.6123276    5.1947621  
C   -1.2361111   -1.0811317    4.6373480  
H    1.1060808    0.8876438    4.4271209  
H   -2.1597133   -1.8070987    0.8854031  
H   -3.9636755   -3.3565188    3.4974381  
H   -2.7621927   -2.3810384    6.0827341  
H   -1.0058879   -0.9010589    5.6809233  
H    1.6167816    1.3499334    1.8205408  
