60

C    7.6226299   -0.7316014   -4.4781057  
C    7.1971785    0.5319774   -4.8169675  
C    8.3506406    1.3710430   -4.8266779  
C    9.4603564    0.5570366   -4.4833847  
N    8.9828988   -0.7133215   -4.2764015  
C   10.7644096    1.0536889   -4.3963728  
C   10.9516654    2.3964743   -4.6610264  
O   12.2045708    2.9334216   -4.5908193  
C    9.8569950    3.2249154   -5.0048274  
O   10.2062722    4.5389531   -5.2386090  
C    8.5702045    2.7356915   -5.0905907  
H    9.5415231   -1.5102528   -4.0297819  
H   11.6144287    0.4385465   -4.1350906  
H   12.1127597    3.8701725   -4.8083775  
H    9.4101664    5.0297242   -5.4643572  
H    7.7516603    3.3944802   -5.3560376  
H    7.0631925   -1.6441383   -4.3629355  
C    3.4828007   -0.6865223   -2.8918303  
C    2.5562217   -0.0001543   -3.6003001  
C    3.3178344    0.7455283   -4.5904530  
C    4.7268476    0.3812390   -4.3286142  
N    4.8297833   -0.4579831   -3.3340794  
C    5.8087693    0.9177004   -5.1075496  
C    5.4972195    1.7786388   -6.1030674  
O    6.4055170    2.3551226   -6.9084877  
C    4.0848319    2.1655490   -6.3922446  
O    3.8748893    2.9543894   -7.3135893  
C    2.9927234    1.6016830   -5.5790541  
H    5.8827279    2.9123400   -7.5129321  
H    1.9834057    1.9069896   -5.8205007  
H    3.3218862   -1.3590951   -2.0643489  
C    0.0000000    0.0000000    0.0000000  
C    1.0541688   -0.0001719   -0.8560391  
C    0.5103141   -0.0000449   -2.1935955  
C   -0.9576367    0.0002461   -2.0455733  
N   -1.2018459   -0.0001392   -0.6915970  
C   -1.8348306    0.0008319   -3.0810611  
C   -1.2972842    0.0009739   -4.4314605  
O   -2.0050664    0.0014267   -5.4301321  
C    0.2542628    0.0004190   -4.6117571  
O    0.7184677    0.0002263   -5.7439119  
C    1.0974556    0.0000880   -3.4189127  
H    2.0940752   -0.0005479   -0.5817978  
H   -2.9081050    0.0011669   -2.9507065  
H   -2.1128195    0.0014911   -0.2706793  
C    1.0965515   -0.0001358    2.2710304  
C    0.0000000    0.0000000    1.4700000  
C   -1.1546562   -0.0001469    2.3369512  
C   -0.6372014   -0.0003519    3.7186280  
N    0.7342871   -0.0007337    3.6095011  
C   -1.4147739   -0.0001353    4.8308716  
C   -2.8576048    0.0001048    4.6554461  
O   -3.6427778    0.0002493    5.5944904  
C   -3.4275839    0.0000726    3.2011665  
O   -4.6406829   -0.0000333    3.0410059  
C   -2.4891866    0.0001091    2.0816745  
H   -1.0150448   -0.0001615    5.8354244  
H   -2.8919121    0.0002919    1.0779135  
H    2.1388271   -0.0000662    1.9961646  
H    1.3735872    0.0006099    4.3830260  
