60

C    2.1999228   -1.8451564   -8.4467073  
C    3.1712929   -2.6644022   -8.9737218  
C    3.0626214   -2.5791234  -10.3934109  
C    1.9985016   -1.6849868  -10.6764220  
N    1.4953729   -1.2591965   -9.4721875  
C    1.6083991   -1.3620056  -11.9796075  
C    2.3054103   -1.9521703  -13.0159748  
O    1.9663057   -1.6715729  -14.3079837  
C    3.3698702   -2.8471608  -12.7538008  
O    3.9645610   -3.3521108  -13.8916555  
C    3.7550839   -3.1664576  -11.4684270  
H    3.8712894   -3.2521286   -8.4048843  
H    0.7390427   -0.6091621   -9.3564249  
H    0.7981385   -0.6813924  -12.2019728  
H    2.5689638   -2.1810075  -14.8652491  
H    4.6725867   -3.9470291  -13.6263709  
H    4.5741587   -3.8554909  -11.2986404  
C    2.5049804   -2.0931563   -5.9399565  
C    1.9571818   -1.6308520   -4.7865848  
C    0.8879545   -0.7344212   -5.1580690  
C    0.8574976   -0.7122318   -6.6329822  
N    1.8627392   -1.5562151   -7.0453792  
C   -0.0149276    0.0176857   -7.3731171  
C   -0.9887728    0.8362264   -6.6701578  
O   -1.8166673    1.5292763   -7.2468494  
C   -0.9745395    0.8281734   -5.1082557  
O   -1.7894805    1.5135873   -4.5054790  
C    0.0139741    0.0003876   -4.4216236  
H    2.2669048   -1.8882737   -3.7893787  
H   -0.0204602    0.0196988   -8.4542617  
H    3.3239675   -2.7807662   -6.0753923  
C    3.2798085    0.0005853   -1.4499648  
C    2.5571144    0.0005562   -2.5996554  
C    1.1637436    0.0001546   -2.2210360  
C    1.1336965   -0.0000201   -0.7459470  
N    2.4483513   -0.0001430   -0.3402717  
C    0.0000000    0.0000000    0.0000000  
C   -1.2757367   -0.0000188   -0.6964414  
O   -2.3524597   -0.0000640   -0.1142313  
C   -1.2676494   -0.0000875   -2.2584081  
O   -2.3355762   -0.0004102   -2.8557294  
C    0.0181562    0.0001757   -2.9516296  
H    2.9547357    0.0006072   -3.5989105  
H    4.3498550    0.0008609   -1.3200021  
H    2.7563627    0.0012824    0.6148063  
C    2.4951002    2.0940188    2.9809380  
C    1.9440701    1.6314916    1.8291961  
C    0.8759964    0.7350050    2.2038498  
C    0.8497377    0.7130254    3.6788474  
N    1.8560616    1.5571714    4.0882609  
C   -0.0205033   -0.0168748    4.4215661  
C   -0.9962600   -0.8356168    3.7214979  
O   -1.8224391   -1.5286685    4.3006425  
C   -0.9864710   -0.8277881    2.1595606  
O   -1.8030528   -1.5133726    1.5592035  
C    0.0000000    0.0000000    1.4700000  
H    2.2509283    1.8888011    0.8310761  
H   -0.0229599   -0.0187323    5.5027230  
H    3.3143982    2.7817323    3.1139444  
H    2.0889452    1.7545833    5.0442112  
