60

C    6.5136081   -3.0868525   -5.1110081  
C    7.5737314   -2.9844343   -5.9817056  
C    7.6420981   -1.6212284   -6.3959471  
C    6.5895223   -0.9334518   -5.7394619  
N    5.9227654   -1.8531658   -4.9686323  
C    6.3552997    0.4338972   -5.9134901  
C    7.1992036    1.1194897   -6.7655269  
O    7.0157094    2.4562623   -6.9713954  
C    8.2547790    0.4507819   -7.4299105  
O    9.0068807    1.2714035   -8.2449367  
C    8.4862669   -0.8981800   -7.2589094  
H    8.2177934   -3.7930404   -6.2822627  
H    5.5547050    0.9639180   -5.4161695  
H    7.7025584    2.7338459   -7.5914375  
H    9.6975037    0.7421029   -8.6554044  
H    9.3025547   -1.3831096   -7.7814005  
H    6.1313049   -3.9425988   -4.5813844  
C    4.5546442   -2.0975049   -2.8456842  
C    3.3966022   -1.6333854   -2.3093946  
C    2.8128208   -0.7373022   -3.2794821  
C    3.7322610   -0.7172949   -4.4331804  
N    4.7679901   -1.5620814   -4.1068520  
C    3.5352971    0.0116907   -5.5607839  
C    2.3379415    0.8314598   -5.6435736  
O    2.0707008    1.5238117   -6.6169858  
C    1.3504336    0.8257213   -4.4333668  
O    0.3391712    1.5121845   -4.4914816  
C    1.6707636   -0.0012343   -3.2725974  
H    2.9970336   -1.8893867   -1.3442925  
H    4.2221659    0.0121010   -6.3957214  
H    5.2702683   -2.7854719   -2.4255964  
C    1.0965514    0.0001358   -0.8010306  
C    0.0000000    0.0000000    0.0000000  
C   -1.1546565    0.0001470   -0.8669508  
C   -0.6372019    0.0003520   -2.2486278  
N    0.7342867    0.0007338   -2.1395012  
C   -1.4147744    0.0001354   -3.3608712  
C   -2.8576052   -0.0001047   -3.1854454  
O   -3.6427785   -0.0002490   -4.1244896  
C   -3.4275841   -0.0000727   -1.7311660  
O   -4.6406832    0.0000333   -1.5710049  
C   -2.4891868   -0.0001090   -0.6116739  
H   -1.0150456    0.0001617   -4.3654239  
H   -2.8919122   -0.0002919    0.3920871  
H    2.1388270    0.0000663   -0.5261650  
C    0.8681109    0.7263879    2.2709268  
C    0.6127770    0.5096195    3.5869401  
C   -0.4920590   -0.4175482    3.6542670  
C   -0.8620974   -0.7254003    2.2596025  
N    0.0000000    0.0000000    1.4700000  
C   -1.8641242   -1.5660088    1.8976294  
C   -2.6293522   -2.2103885    2.9520183  
O   -3.5512764   -2.9839180    2.7283916  
C   -2.2549728   -1.8987399    4.4361073  
O   -2.8923672   -2.4351063    5.3323774  
C   -1.1543735   -0.9755647    4.7012123  
H    1.1382914    0.9492124    4.4159191  
H   -2.1192137   -1.7782617    0.8686553  
H   -0.9013378   -0.7652422    5.7314848  
H    1.6172880    1.3558399    1.8188057  
