64

C   -0.9676873    0.8356557   -9.0019104  
C   -0.0074299    0.0339777   -9.5743482  
C   -0.1452585    0.1639134  -10.9881098  
C   -1.2148932    1.0659318  -11.2208548  
N   -1.6931199    1.4532609   -9.9937076  
C   -1.6316777    1.4296211  -12.5049146  
C   -0.9561727    0.8728155  -13.5734831  
O   -1.3217436    1.1938179  -14.8487588  
C    0.1133736   -0.0293992  -13.3615938  
O    0.6845008   -0.4978904  -14.5267852  
C    0.5249043   -0.3888470  -12.0951160  
H    0.7040619   -0.5709986   -9.0388338  
H   -2.4468531    2.0988985   -9.8419853  
H   -2.4462786    2.1164524  -12.6890088  
H   -0.7307144    0.7025438  -15.4340794  
H    1.3977787   -1.1004800  -14.2950009  
H    1.3472359   -1.0824316  -11.9640091  
C    0.8347511   -0.7156070   -5.2158231  
C    0.5508852   -0.4632070   -6.5380111  
C   -0.5417125    0.4534562   -6.5616509  
C   -0.8847809    0.7269786   -5.2127933  
N   -0.0307352   -0.0004646   -4.4215603  
C   -1.9224325    1.5939536   -4.8572343  
C   -2.6263888    2.1960078   -5.8820047  
O   -3.6492060    3.0516993   -5.5910584  
C   -2.2993313    1.9354711   -7.2340296  
O   -3.0929438    2.6110120   -8.1380030  
C   -1.2759639    1.0800829   -7.5855346  
H    1.0670193   -0.8884221   -7.3816880  
H   -2.1889626    1.8064971   -3.8310819  
H   -4.0005082    3.3553548   -6.4381969  
H   -2.8062855    2.3796246   -9.0267605  
H    1.5851813   -1.3502826   -4.7765050  
C    3.2573670   -0.0002920   -1.5109380  
C    2.5379468   -0.0001709   -0.3591961  
C    1.1435043    0.0000332   -0.7338500  
C    1.1092609   -0.0000082   -2.2088477  
N    2.4227562    0.0001909   -2.6182613  
C   -0.0265532   -0.0002522   -2.9515663  
C   -1.3003035   -0.0002639   -2.2514981  
O   -2.3786784   -0.0004131   -2.8306429  
C   -1.2877725    0.0000312   -0.6895608  
O   -2.3539958    0.0003307   -0.0892036  
C    0.0000000    0.0000000    0.0000000  
H    2.9384091   -0.0000369    0.6389239  
H    4.3270394   -0.0004765   -1.6439446  
H    2.7280494   -0.0013406   -3.5742113  
C    2.5285572    2.1210227    2.9438989  
C    1.9331703    1.6216660    4.0790748  
C    0.8903039    0.7472258    3.6520102  
C    0.8972198    0.7527806    2.2336141  
N    1.9028376    1.5986179    1.8362361  
C    0.0000000    0.0000000    1.4700000  
C   -0.9207814   -0.7726952    2.1506477  
O   -1.8198395   -1.5274828    1.4542253  
C   -0.9436862   -0.7911793    3.5655508  
O   -1.9197945   -1.6098497    4.0950179  
C   -0.0590329   -0.0485852    4.3195194  
H    2.2150357    1.8593692    5.0905303  
H    2.1533708    1.7953814    0.8841339  
H   -2.3621246   -1.9821033    2.1118817  
H   -1.8668290   -1.5649508    5.0545920  
H   -0.1007624   -0.0827977    5.4019087  
H    3.3491200    2.8096064    2.8367138  
