62

C    5.9227655   -1.8531659   -4.9686310  
C    7.0057439   -2.6733784   -4.7521213  
C    7.8298045   -2.5901851   -5.9134147  
C    7.1933920   -1.6962658   -6.8121991  
N    6.0371471   -1.2685931   -6.2082039  
C    7.7268179   -1.3751436   -8.0640483  
C    8.9246693   -1.9669785   -8.4148472  
O    9.4901215   -1.6882333   -9.6254580  
C    9.5746624   -2.8617826   -7.5318682  
O   10.7587985   -3.3685338   -8.0262059  
C    9.0488670   -3.1792458   -6.2968452  
H    7.1797683   -3.2603944   -3.8666154  
H    5.3822416   -0.6182429   -6.6033297  
H    7.2466211   -0.6947060   -8.7536993  
H   10.3092383   -2.1986094   -9.6682259  
H   11.1330346   -3.9631934   -7.3689910  
H    9.5694440   -3.8681835   -5.6419838  
C    4.5546440   -2.0975051   -2.8456837  
C    3.3966020   -1.6333854   -2.3093944  
C    2.8128205   -0.7373021   -3.2794817  
C    3.7322611   -0.7172949   -4.4331797  
N    4.7679906   -1.5620815   -4.1068517  
C    3.5352976    0.0116907   -5.5607835  
C    2.3379420    0.8314597   -5.6435732  
O    2.0707012    1.5238118   -6.6169855  
C    1.3504338    0.8257212   -4.4333666  
O    0.3391714    1.5121845   -4.4914818  
C    1.6707636   -0.0012343   -3.2725974  
H    2.9970333   -1.8893867   -1.3442921  
H    4.2221665    0.0121010   -6.3957208  
H    5.2702681   -2.7854718   -2.4255960  
C    1.0965514    0.0001358   -0.8010306  
C    0.0000000    0.0000000    0.0000000  
C   -1.1546565    0.0001470   -0.8669508  
C   -0.6372019    0.0003520   -2.2486278  
N    0.7342867    0.0007338   -2.1395012  
C   -1.4147744    0.0001354   -3.3608712  
C   -2.8576052   -0.0001047   -3.1854454  
O   -3.6427785   -0.0002490   -4.1244896  
C   -3.4275841   -0.0000727   -1.7311660  
O   -4.6406832    0.0000333   -1.5710049  
C   -2.4891868   -0.0001090   -0.6116739  
H   -1.0150456    0.0001617   -4.3654239  
H   -2.8919122   -0.0002919    0.3920871  
H    2.1388270    0.0000663   -0.5261650  
C    2.5311839    2.1237619    3.0120429  
C    1.9795631    1.6616747    1.8395852  
C    0.9223175    0.7739173    2.1983588  
C    0.8753926    0.7337535    3.6154372  
N    1.8668922    1.5631002    4.0777464  
C   -0.0496243   -0.0427881    4.3197917  
C   -0.9437528   -0.7922060    3.5801400  
O   -1.8685244   -1.5680278    4.2172520  
C   -0.9124520   -0.7656372    2.1655264  
O   -1.8671164   -1.5663939    1.5732860  
C    0.0000000    0.0000000    1.4700000  
H    2.3005065    1.9304404    0.8477417  
H    2.0679347    1.7444845    5.0445261  
H   -0.0904770   -0.0778569    5.3997470  
H   -2.3849669   -2.0011402    3.5251786  
H   -1.7775064   -1.4909735    0.6183591  
H    3.3468514    2.8078103    3.1724291  
