62

C    4.8828983   -0.8250688   -7.3766177  
C    5.6304427   -0.4131396   -8.4554882  
C    5.4227152    0.9912221   -8.5941147  
C    4.5316606    1.3839665   -7.5627561  
N    4.2221269    0.2566318   -6.8430886  
C    4.1044110    2.7045699   -7.3946698  
C    4.5856763    3.6459004   -8.2837468  
O    4.2010222    4.9501107   -8.1650455  
C    5.4751667    3.2734699   -9.3195656  
O    5.8644345    4.3253404  -10.1229242  
C    5.8968688    1.9708025   -9.4861489  
H    6.2484777   -1.0470839   -9.0679750  
H    3.4253166    3.0103251   -6.6107397  
H    4.6454548    5.4315516   -8.8749473  
H    6.4637065    3.9884510  -10.7959635  
H    6.5785854    1.7155251  -10.2890038  
H    4.7676504   -1.8051443   -6.9463523  
C    4.5980360   -1.9815538   -3.1233152  
C    3.4854373   -1.6054318   -2.4508306  
C    2.8041268   -0.6786474   -3.3415530  
C    3.6683870   -0.6094938   -4.5394079  
N    4.7214224   -1.3712003   -4.4173089  
C    3.3375000    0.2137353   -5.6698476  
C    2.1949505    0.9347928   -5.6066691  
O    1.7634386    1.7449077   -6.5882758  
C    1.3015813    0.8859887   -4.4118177  
O    0.2774365    1.5687933   -4.4230765  
C    1.6628945    0.0339172   -3.2649299  
H    3.1664186   -1.9183346   -1.4713436  
H    0.9280176    2.1174829   -6.2529962  
H    5.3694411   -2.6633299   -2.8022409  
C    1.1243410    0.0100105   -0.7919003  
C    0.7474072    0.0234665   -2.1148542  
C   -0.6787384    0.0234379   -2.1414698  
C   -1.1201748    0.0098411   -0.7935547  
N    0.0000000    0.0000000    0.0000000  
C   -2.4730818    0.0063307   -0.4408240  
C   -3.3971962    0.0170429   -1.4675058  
O   -4.7313520    0.0145490   -1.1793468  
C   -2.9763654    0.0303020   -2.8186325  
O   -4.0166484    0.0394464   -3.7247625  
C   -1.6418567    0.0334992   -3.1673480  
H   -2.8160166   -0.0041569    0.5845966  
H   -5.1938823    0.0230023   -2.0274386  
H   -3.6464680    0.0481700   -4.6127343  
H   -1.3497475    0.0435647   -4.2109234  
H    2.1062466    0.0053162   -0.3505405  
C    0.8400945    0.7047457    2.2710304  
C    0.0000000    0.0000000    1.4700000  
C   -0.8844236   -0.7423113    2.3369512  
C   -0.4878984   -0.4098547    3.7186280  
N    0.5629682    0.4714286    3.6095011  
C   -1.0836927   -0.9095027    4.8308716  
C   -2.1891196   -1.8367527    4.6554461  
O   -2.7906899   -2.3413415    5.5944904  
C   -2.6257283   -2.2031529    3.2011665  
O   -3.5549479   -2.9829990    3.0410059  
C   -1.9068976   -1.5999348    2.0816745  
H   -0.7774656   -0.6525820    5.8354244  
H   -2.2155208   -1.8586617    1.0779135  
H    1.6384792    1.3747609    1.9961646  
H    1.0518368    0.8833920    4.3830260  
