60

C    4.4960352   -0.0158409   -6.6738591  
C    5.6817521   -0.6917068   -6.8463357  
C    6.1833299   -0.3311206   -8.1320246  
C    5.2533798    0.5754583   -8.7023173  
N    4.2400633    0.7435418   -7.7915194  
C    5.4268917    1.1393260   -9.9698882  
C    6.5599732    0.7817245  -10.6744637  
O    6.7790249    1.3030728  -11.9167301  
C    7.4992466   -0.1215792  -10.1225359  
O    8.5748141   -0.3781267  -10.9475713  
C    7.3285834   -0.6784452   -8.8722168  
H    6.1294829   -1.3629936   -6.1336616  
H    3.4417418    1.3397143   -7.9149772  
H    4.7217605    1.8307707  -10.4102257  
H    7.6134649    0.9279735  -12.2270119  
H    9.1605853   -0.9964849  -10.5002356  
H    8.0650590   -1.3675759   -8.4757565  
C    4.5294737   -2.1111782   -2.7873597  
C    4.8355744   -1.6481501   -4.0267074  
C    3.7722453   -0.7522114   -4.4158855  
C    2.8147155   -0.7310542   -3.2936207  
N    3.3317093   -1.5757416   -2.3385756  
C    1.6707636   -0.0012343   -3.2725974  
C    1.3618922    0.8179364   -4.4328096  
O    0.3558260    1.5108612   -4.5101844  
C    2.3616940    0.8105935   -5.6328714  
O    2.1121102    1.4960717   -6.6152604  
C    3.5619235   -0.0167234   -5.5388102  
H    5.7067347   -1.9050629   -4.6026320  
H    5.0780200   -2.7986812   -2.1642009  
H    2.9056661   -1.7713787   -1.4512985  
C    1.0965514    0.0001358   -0.8010306  
C    0.0000000    0.0000000    0.0000000  
C   -1.1546565    0.0001470   -0.8669508  
C   -0.6372019    0.0003520   -2.2486278  
N    0.7342867    0.0007338   -2.1395012  
C   -1.4147744    0.0001354   -3.3608712  
C   -2.8576052   -0.0001047   -3.1854454  
O   -3.6427785   -0.0002490   -4.1244896  
C   -3.4275841   -0.0000727   -1.7311660  
O   -4.6406832    0.0000333   -1.5710049  
C   -2.4891868   -0.0001090   -0.6116739  
H   -1.0150456    0.0001617   -4.3654239  
H   -2.8919122   -0.0002919    0.3920871  
H    2.1388270    0.0000663   -0.5261650  
C    2.5528530    2.1414826    2.8079335  
C    2.0663498    1.7338582    4.0032312  
C    0.9804344    0.8229586    3.6752840  
C    0.9495562    0.7966882    2.1971295  
N    1.8690446    1.5676019    1.6831036  
C    0.0000000    0.0000000    1.4700000  
C   -0.8785127   -0.7372425    2.1869543  
O   -1.8187535   -1.5261249    1.6395491  
C   -0.8723269   -0.7321790    3.6796354  
O   -1.7010379   -1.4274584    4.2670412  
C    0.1115397    0.0933559    4.4024240  
H    2.4028853    2.0163452    4.9860947  
H   -2.2861435   -1.9184361    2.3990168  
H    0.0832434    0.0693689    5.4835595  
H    3.3664920    2.8238276    2.6198634  
