64

C    1.3344204   -0.9822341   -9.4317149  
C    1.7714803   -0.5673096  -10.6683576  
C    1.5243796    0.8352437  -10.7482665  
C    0.9304266    1.2238508   -9.5202062  
N    0.8277617    0.0958840   -8.7444689  
C    0.5520661    2.5417436   -9.2467254  
C    0.7776813    3.4845695  -10.2307763  
O    0.4276753    4.7862667  -10.0160834  
C    1.3688101    3.1162550  -11.4627379  
O    1.5271653    4.1691470  -12.3400560  
C    1.7420739    1.8162613  -11.7333224  
H    2.2129648   -1.1981553  -11.4207666  
H    0.0988066    2.8443411   -8.3128139  
H    0.6678943    5.2693358  -10.8174595  
H    1.9325360    3.8350863  -13.1460838  
H    2.1925528    1.5641187  -12.6861979  
H    1.3427001   -1.9621837   -8.9860824  
C    2.0818086   -2.1200044   -5.0693006  
C    2.0013922   -1.6205814   -6.3485880  
C    0.8747655   -0.7464877   -6.3842578  
C    0.3022093   -0.7523126   -5.0865395  
N    1.0583530   -1.5979707   -4.3134121  
C   -0.8287665    0.0000939   -4.7555305  
C   -1.3918308    0.7726859   -5.7526456  
O   -2.4970631    1.5271116   -5.4837280  
C   -0.8353008    0.7914353   -7.0536990  
O   -1.5105881    1.6099590   -7.9353732  
C    0.2802630    0.0492103   -7.3810303  
H    2.6715814   -1.8580190   -7.1569591  
H    0.8985640   -1.7948529   -3.3419770  
H   -2.7238718    1.9817206   -6.3054050  
H   -1.0706022    1.5652576   -8.7897836  
H    2.7873940   -2.8084002   -4.6366114  
C    1.0672569   -0.0000698   -0.8321910  
C    0.0000000    0.0000000    0.0000000  
C   -1.1601223   -0.0000736   -0.8778472  
C   -0.5938729   -0.0000768   -2.2438435  
N    0.7113367   -0.0001553   -2.2234123  
C   -1.4286985   -0.0001877   -3.4135239  
C   -2.7683113   -0.0006798   -3.2270524  
O   -3.6653902   -0.0008302   -4.2276970  
C   -3.3702024   -0.0010610   -1.8610774  
O   -4.5974910   -0.0013779   -1.7662963  
C   -2.4926825   -0.0008943   -0.6770658  
H   -4.5324245   -0.0012258   -3.7833954  
H   -2.9677772   -0.0012974    0.2947961  
H    2.1134391   -0.0000547   -0.5705119  
C    0.0000000    0.0000000    1.4700000  
C    1.0521667    0.0011902    2.3562342  
C    0.4917218    0.0011957    3.6679131  
C   -0.9187428   -0.0003148    3.5178682  
N   -1.1833171    0.0009411    2.1707914  
C   -1.7951701   -0.0010350    4.6072090  
C   -1.2375837   -0.0005224    5.8710424  
O   -2.0474215   -0.0015360    6.9697579  
C    0.1673580    0.0013566    6.0411963  
O    0.5673524    0.0020687    7.3615553  
C    1.0325770    0.0023412    4.9669890  
H    2.0953057    0.0030649    2.0900562  
H   -2.0989778   -0.0102372    1.7591824  
H   -2.8710934   -0.0020419    4.4995513  
H   -1.4634884   -0.0006497    7.7393593  
H    1.5290710    0.0033153    7.3880045  
H    2.1042148    0.0039609    5.1284455  
