62

C    0.0655761   -0.9821951   -9.5736053  
C   -0.0437703   -0.5673168  -10.8806586  
C   -0.3016762    0.8352767  -10.8520965  
C   -0.3387834    1.2239549   -9.4884689  
N   -0.1139545    0.0959899   -8.7389591  
C   -0.5712386    2.5419021   -9.0837845  
C   -0.7695505    3.4847104  -10.0737157  
O   -1.0003005    4.7864587   -9.7342768  
C   -0.7366179    3.1163257  -11.4397414  
O   -0.9524019    4.1692086  -12.3047381  
C   -0.5076171    1.8162781  -11.8396927  
H    0.0496409   -1.1982180  -11.7479717  
H   -0.6008898    2.8445538   -8.0461319  
H   -1.1103396    5.2695046  -10.5636275  
H   -0.9138952    3.8350989  -13.2061208  
H   -0.4882823    1.5640820  -12.8934964  
H    0.2560044   -1.9621541   -9.1706469  
C    2.5385454   -2.1201622   -5.9030165  
C    1.9398804   -1.6207032   -7.0364216  
C    0.8981434   -0.7464320   -6.6062662  
C    0.9090951   -0.7521905   -5.1878960  
N    1.9159261   -1.5979815   -4.7935027  
C    0.0139741    0.0003876   -4.4216236  
C   -0.9088193    0.7730861   -5.0995376  
O   -1.8059698    1.5276806   -4.4004515  
C   -0.9357512    0.7917718   -6.5143672  
O   -1.9134458    1.6104178   -7.0409369  
C   -0.0531703    0.0493775   -7.2709569  
H    2.2188913   -1.8582314   -8.0487102  
H    2.1691871   -1.7948563   -3.8421456  
H   -2.3501706    1.9823401   -5.0564961  
H   -1.8632060    1.5656629   -8.0006639  
H    3.3594807   -2.8086769   -5.7982655  
C    3.2798085    0.0005853   -1.4499648  
C    2.5571144    0.0005562   -2.5996554  
C    1.1637436    0.0001546   -2.2210360  
C    1.1336965   -0.0000201   -0.7459470  
N    2.4483513   -0.0001430   -0.3402717  
C    0.0000000    0.0000000    0.0000000  
C   -1.2757367   -0.0000188   -0.6964414  
O   -2.3524597   -0.0000640   -0.1142313  
C   -1.2676494   -0.0000875   -2.2584081  
O   -2.3355762   -0.0004102   -2.8557294  
C    0.0181562    0.0001757   -2.9516296  
H    2.9547357    0.0006072   -3.5989105  
H    4.3498550    0.0008609   -1.3200021  
H    2.7563627    0.0012824    0.6148063  
C    2.4951002    2.0940188    2.9809380  
C    1.9440701    1.6314916    1.8291961  
C    0.8759964    0.7350050    2.2038498  
C    0.8497377    0.7130254    3.6788474  
N    1.8560616    1.5571714    4.0882609  
C   -0.0205033   -0.0168748    4.4215661  
C   -0.9962600   -0.8356168    3.7214979  
O   -1.8224391   -1.5286685    4.3006425  
C   -0.9864710   -0.8277881    2.1595606  
O   -1.8030528   -1.5133726    1.5592035  
C    0.0000000    0.0000000    1.4700000  
H    2.2509283    1.8888011    0.8310761  
H   -0.0229599   -0.0187323    5.5027230  
H    3.3143982    2.7817323    3.1139444  
H    2.0889452    1.7545833    5.0442112  
