62

C    7.4152526   -3.5898898   -3.5375472  
C    7.0012384   -2.9390989   -4.6766398  
C    7.8831535   -3.3342506   -5.7257728  
C    8.8228503   -4.2351018   -5.1624236  
N    8.5112893   -4.3666756   -3.8319218  
C    9.8451143   -4.8271822   -5.9102254  
C    9.9199397   -4.5042052   -7.2512192  
O   10.8984682   -5.0540983   -8.0278226  
C    8.9918180   -3.6071626   -7.8314954  
O    9.1990182   -3.3865690   -9.1775083  
C    7.9832386   -3.0224775   -7.0943141  
H    8.9987474   -4.9506942   -3.1767203  
H   10.5645363   -5.5144406   -5.4867739  
H   10.7717633   -4.7003773   -8.9178186  
H    8.5303101   -2.7700782   -9.4911514  
H    7.2871488   -2.3389729   -7.5662880  
H    7.0163149   -3.5603205   -2.5380810  
C    5.8620742   -2.0144359   -4.7672089  
C    5.0189108   -1.6315682   -3.7802605  
C    4.0871662   -0.7140654   -4.4178657  
C    4.5266955   -0.6571076   -5.8285938  
N    5.5666613   -1.4173876   -6.0393882  
C    3.8516110    0.1544275   -6.8036620  
C    2.7856471    0.8759519   -6.3883810  
O    2.0623763    1.6758896   -7.1902661  
C    2.3174901    0.8393081   -4.9714660  
O    1.3403412    1.5218320   -4.6639569  
C    3.0267438   -0.0008951   -3.9901699  
H    5.0280462   -1.9344358   -2.7471761  
H    4.1945960    0.1771766   -7.8277483  
H    1.3751545    2.0517830   -6.6109711  
C    3.3003547    0.0005277   -1.4738986  
C    2.5232816    0.0003497   -2.6090746  
C    1.1623203   -0.0001319   -2.1820102  
C    1.1711884    0.0000584   -0.7636141  
N    2.4852301   -0.0014919   -0.3662359  
C    0.0000000    0.0000000    0.0000000  
C   -1.2020383    0.0000520   -0.6806479  
O   -2.3759248    0.0003493    0.0157745  
C   -1.2314655   -0.0005115   -2.0955511  
O   -2.5054388   -0.0008040   -2.6250184  
C   -0.0764513   -0.0007274   -2.8495195  
H    2.8036266    0.0088183    0.5858662  
H   -3.0835639    0.0000346   -0.6418822  
H   -2.4360043   -0.0011529   -3.5845924  
H   -0.1304091   -0.0013423   -3.9319089  
H    4.3715553    0.0004897   -1.3667133  
C    2.5128556    2.1077716    2.9199648  
C    1.9592212    1.6432552    4.0696553  
C    0.8915788    0.7479214    3.6910360  
C    0.8684491    0.7287414    2.2159470  
N    1.8754542    1.5738793    1.8102719  
C    0.0000000    0.0000000    1.4700000  
C   -0.9772830   -0.8200135    2.1664417  
O   -1.8021297   -1.5120829    1.5842315  
C   -0.9711318   -0.8147624    3.7284083  
O   -1.7894187   -1.5009653    4.3257297  
C    0.0140216    0.0115358    4.4216297  
H    2.2638494    1.8988021    5.0689105  
H    0.0117648    0.0094386    5.5031631  
H    3.3327358    2.7953732    2.7900019  
H    2.1123206    1.7707734    0.8551938  
