60

C    8.7120167   -0.0001560    0.2818446  
C    8.0076925   -0.0002501    1.4635356  
C    8.9664256   -0.0004540    2.5196761  
C   10.2501820   -0.0001887    1.9164391  
N   10.0594849   -0.0019631    0.5569364  
C   11.4347679    0.0000134    2.6591003  
C   11.3213434    0.0002534    4.0358038  
O   12.4460711    0.0008081    4.8091075  
C   10.0493831   -0.0003809    4.6562355  
O   10.1033711   -0.0004638    6.0347956  
C    8.8803398   -0.0008537    3.9242093  
H    6.9348749   -0.0012855    1.5532808  
H   10.7901020    0.0083389   -0.1315946  
H   12.4162617    0.0000719    2.2053664  
H   12.1460552    0.0005902    5.7273969  
H    9.2032290   -0.0008777    6.3744269  
H    7.9204971   -0.0015171    4.4273790  
C    4.7161325   -0.0005435   -1.6923264  
C    5.6747634   -0.0008962   -0.7370219  
C    6.9326496   -0.0010016   -1.4679270  
C    6.5359796   -0.0007815   -2.8924396  
N    5.2379004   -0.0004318   -3.0302104  
C    7.5063013   -0.0007605   -3.9524218  
C    8.8134762   -0.0005618   -3.6051048  
O    9.8251237   -0.0005265   -4.4897563  
C    9.2455283   -0.0004050   -2.1762969  
O   10.4523083   -0.0003512   -1.9335978  
C    8.2310902   -0.0004738   -1.1072595  
H    5.5443945   -0.0009738    0.3316593  
H    7.1881021   -0.0008042   -4.9847295  
H   10.6319770   -0.0003440   -3.9437328  
C    3.2573665   -0.0002920   -1.5109385  
C    2.5379463   -0.0001709   -0.3591964  
C    1.1435038    0.0000331   -0.7338500  
C    1.1092599   -0.0000083   -2.2088477  
N    2.4227553    0.0001909   -2.6182613  
C   -0.0265539   -0.0002524   -2.9515660  
C   -1.3003040   -0.0002640   -2.2514977  
O   -2.3786790   -0.0004133   -2.8306421  
C   -1.2877727    0.0000311   -0.6895603  
O   -2.3539959    0.0003306   -0.0892030  
C    0.0000000    0.0000000    0.0000000  
H    2.9384091   -0.0000367    0.6389234  
H   -0.0296303   -0.0004086   -4.0327229  
H    2.7280482   -0.0013407   -3.5742119  
C    0.8175213    0.6860729    2.3021913  
C    0.0000000    0.0000000    1.4700000  
C   -0.8887526   -0.7456559    2.3478473  
C   -0.4549825   -0.3816753    3.7138435  
N    0.5448156    0.4573574    3.6934124  
C   -1.0945674   -0.9182058    4.8835240  
C   -2.1210866   -1.7789155    4.6970523  
O   -2.8083856   -2.3554314    5.6976972  
C   -2.5824069   -2.1655116    3.3310774  
O   -3.5227682   -2.9541547    3.2362962  
C   -1.9100805   -1.6015804    2.1470656  
H   -0.7567140   -0.6349833    5.8697035  
H   -3.4728268   -2.9124471    5.2533954  
H   -2.2742832   -1.9066565    1.1752040  
H    1.6189533    1.3585343    2.0405121  
