60

C    9.1358928    0.0016675   -0.3242240  
C   10.1945426    0.0015610   -1.2027043  
C   11.3861568    0.0024815   -0.4187046  
C   10.9885563    0.0028398    0.9428534  
N    9.6159164    0.0042804    0.9645430  
C   11.9053601    0.0034296    1.9984384  
C   13.2479968    0.0033548    1.6736214  
O   14.1858257    0.0035633    2.6653323  
C   13.6644064    0.0033749    0.3210612  
O   15.0347504    0.0037177    0.1613580  
C   12.7605133    0.0030665   -0.7208114  
H   10.1174166    0.0020060   -2.2765038  
H    9.0485681   -0.0057241    1.7927925  
H   11.6087572    0.0038491    3.0382601  
H   15.0467189    0.0037649    2.2270090  
H   15.2311948    0.0036805   -0.7804560  
H   13.1093032    0.0032722   -1.7468835  
C    6.7793179   -0.0000202   -4.0582542  
C    7.7853560    0.0004712   -3.1461346  
C    7.1695417    0.0010651   -1.8401458  
C    5.7118171    0.0008489   -2.0678072  
N    5.5416278    0.0005849   -3.4330638  
C    4.7795901    0.0008674   -1.0815733  
C    5.2428770    0.0013430    0.2960696  
O    4.4818135    0.0014588    1.2547581  
C    6.7823178    0.0018306    0.5605054  
O    7.1842444    0.0025397    1.7162367  
C    7.6891546    0.0014826   -0.5847016  
H    8.8386420    0.0006054   -3.3633972  
H    6.8379581   -0.0005566   -5.1345681  
H    4.6549019   -0.0011625   -3.9029158  
C    3.3321168    0.0004716   -1.3379341  
C    2.6974177    0.0000118   -2.5332316  
C    1.2800432   -0.0002116   -2.2052842  
C    1.2395033    0.0000644   -0.7271298  
N    2.4394059    0.0005460   -0.2131041  
C    0.0000000    0.0000000    0.0000000  
C   -1.1468704    0.0000635   -0.7169542  
O   -2.3742206    0.0000074   -0.1695488  
C   -1.1388774    0.0001608   -2.2096352  
O   -2.2206238    0.0000906   -2.7970409  
C    0.1454514    0.0001818   -2.9324241  
H    3.1367978   -0.0000649   -3.5160956  
H   -2.9844350    0.0001027   -0.9290164  
H    0.1083567    0.0003684   -4.0135594  
C    2.5528530    2.1414826    2.8079335  
C    2.0663498    1.7338582    4.0032312  
C    0.9804344    0.8229586    3.6752840  
C    0.9495562    0.7966882    2.1971295  
N    1.8690446    1.5676019    1.6831036  
C    0.0000000    0.0000000    1.4700000  
C   -0.8785127   -0.7372425    2.1869543  
O   -1.8187535   -1.5261249    1.6395491  
C   -0.8723269   -0.7321790    3.6796354  
O   -1.7010379   -1.4274584    4.2670412  
C    0.1115397    0.0933559    4.4024240  
H    2.4028853    2.0163452    4.9860947  
H   -2.2861435   -1.9184361    2.3990168  
H    0.0832434    0.0693689    5.4835595  
H    3.3664920    2.8238276    2.6198634  
