60

C    5.7428254   -4.5628615   -6.0283660  
C    6.6225856   -4.3536316   -7.0650488  
C    6.4766762   -2.9927604   -7.4667196  
C    5.4853150   -2.4163998   -6.6318915  
N    5.0593226   -3.3974894   -5.7713040  
C    5.0833961   -1.0820965   -6.7454068  
C    5.6935792   -0.3155820   -7.7192185  
O    5.3391366    0.9934997   -7.8731325  
C    6.6845441   -0.8727014   -8.5620859  
O    7.1969796    0.0186125   -9.4820376  
C    7.0813471   -2.1890216   -8.4508433  
H    7.2869067   -5.0914335   -7.4813660  
H    4.3660204   -3.2799540   -5.0547161  
H    5.8775482    1.3388487   -8.5970882  
H    7.8590385   -0.4370559  -10.0108549  
H    7.8428237   -2.5878784   -9.1108009  
H    5.5477914   -5.4515618   -5.4529263  
C    3.9135205   -0.7081243   -4.5250692  
C    2.8699641   -0.0020530   -4.0185824  
C    2.2916400    0.7390435   -5.1145535  
C    3.0895145    0.4044296   -6.3096355  
N    4.0568589   -0.4768159   -5.8847345  
C    2.8606213    0.9024529   -7.5511207  
C    1.7547619    1.8301062   -7.7216203  
O    1.4676782    2.3333354   -8.7998802  
C    0.8966364    2.1987794   -6.4696198  
O   -0.0368097    2.9789838   -6.6008455  
C    1.2404684    1.5971819   -5.1836520  
H    3.4577919    0.6439616   -8.4145320  
H    0.6412571    1.8574785   -4.3217268  
H    4.5900518   -1.3778176   -4.0193959  
C    3.2573670   -0.0002921   -1.5109382  
C    2.5379468   -0.0001711   -0.3591962  
C    1.1435043    0.0000330   -0.7338498  
C    1.1092608   -0.0000085   -2.2088474  
N    2.4227562    0.0001906   -2.6182610  
C   -0.0265533   -0.0002525   -2.9515663  
C   -1.3003033   -0.0002641   -2.2514979  
O   -2.3786785   -0.0004132   -2.8306425  
C   -1.2877724    0.0000310   -0.6895608  
O   -2.3539956    0.0003306   -0.0892035  
C    0.0000000    0.0000000    0.0000000  
H    2.9384091   -0.0000370    0.6389240  
H   -0.0296290   -0.0004088   -4.0327231  
H    4.3270394   -0.0004767   -1.6439445  
C    2.4951002    2.0940188    2.9809380  
C    1.9440701    1.6314916    1.8291961  
C    0.8759964    0.7350050    2.2038498  
C    0.8497377    0.7130254    3.6788474  
N    1.8560616    1.5571714    4.0882609  
C   -0.0205033   -0.0168748    4.4215661  
C   -0.9962600   -0.8356168    3.7214979  
O   -1.8224391   -1.5286685    4.3006425  
C   -0.9864710   -0.8277881    2.1595606  
O   -1.8030528   -1.5133726    1.5592035  
C    0.0000000    0.0000000    1.4700000  
H    2.2509283    1.8888011    0.8310761  
H   -0.0229599   -0.0187323    5.5027230  
H    3.3143982    2.7817323    3.1139444  
H    2.0889452    1.7545833    5.0442112  
