66

C    3.9370007    0.6238504   -8.6578168  
C    5.0283977   -0.2071057   -8.7618923  
C    5.4612773   -0.1577310  -10.1201186  
C    4.5885845    0.7275814  -10.8031665  
N    3.6737369    1.1828757   -9.8864470  
C    4.7188438    1.0171406  -12.1647758  
C    5.7490287    0.4020073  -12.8492516  
O    5.9220110    0.6495454  -14.1803477  
C    6.6298495   -0.4846821  -12.1853598  
O    7.6039939   -1.0173187  -13.0043125  
C    6.5017759   -0.7710132  -10.8421780  
H    5.4588340   -0.7793960   -7.9580260  
H    2.9346261    1.8346101  -10.0786426  
H    4.0569206    1.6908619  -12.6912365  
H    6.6855712    0.1270492  -14.4582665  
H    8.1557562   -1.6044282  -12.4785143  
H    7.1915351   -1.4544634  -10.3609228  
C    4.1066122   -0.7198885   -4.4477718  
C    3.0267438   -0.0008951   -3.9901699  
C    2.5093616    0.7266865   -5.1026180  
C    3.3209995    0.4088812   -6.2216217  
N    4.2823367   -0.4703596   -5.7887433  
C    3.1008512    0.9475209   -7.4929165  
C    2.0418866    1.8226951   -7.6372801  
O    1.7817962    2.3774851   -8.8569418  
C    1.2209708    2.1524233   -6.5326559  
O    0.2080045    3.0379820   -6.8376636  
C    1.4377316    1.6216300   -5.2781442  
H    4.9956199   -0.8800294   -6.3643990  
H    1.0124320    2.9495424   -8.7382251  
H   -0.2987951    3.2076336   -6.0376784  
H    0.7922748    1.8929860   -4.4509624  
H    4.7662578   -1.3898549   -3.9233937  
C    3.3003547    0.0005277   -1.4738986  
C    2.5232816    0.0003497   -2.6090746  
C    1.1623203   -0.0001319   -2.1820102  
C    1.1711884    0.0000584   -0.7636141  
N    2.4852301   -0.0014919   -0.3662359  
C    0.0000000    0.0000000    0.0000000  
C   -1.2020383    0.0000520   -0.6806479  
O   -2.3759248    0.0003493    0.0157745  
C   -1.2314655   -0.0005115   -2.0955511  
O   -2.5054388   -0.0008040   -2.6250184  
C   -0.0764513   -0.0007274   -2.8495195  
H    2.8036266    0.0088183    0.5858662  
H   -3.0835639    0.0000346   -0.6418822  
H   -2.4360043   -0.0011529   -3.5845924  
H   -0.1304091   -0.0013423   -3.9319089  
H    4.3715553    0.0004897   -1.3667133  
C    0.8576279    0.7185626    2.2703808  
C    0.0000000    0.0000000    1.4700000  
C   -0.8668858   -0.7285659    2.3373528  
C   -0.4876752   -0.4117774    3.6669281  
N    0.5635254    0.4678311    3.5902241  
C   -1.1297612   -0.9515493    4.7854808  
C   -2.1738724   -1.8268314    4.5576857  
O   -2.8357962   -2.3827064    5.6140350  
C   -2.5667212   -2.1555554    3.2384331  
O   -3.6226318   -3.0413663    3.1773122  
C   -1.9335634   -1.6236449    2.1344818  
H    1.0363952    0.8769718    4.3757045  
H   -0.8454472   -0.7142436    5.8013813  
H   -3.5178062   -2.9546422    5.2385129  
H   -3.8247440   -3.2102924    2.2519915  
H   -2.2566033   -1.8942483    1.1360343  
H    1.6567807    1.3889844    2.0042067  
