62

C    1.0181702   -1.1136852   -7.6293533  
C    2.0699312   -1.9980323   -7.6941268  
C    2.3114938   -2.2572176   -9.0758181  
C    1.3683305   -1.4964371   -9.8130973  
N    0.5972612   -0.8153188   -8.9041717  
C    1.3139727   -1.5076811  -11.2101334  
C    2.2285877   -2.3011521  -11.8750099  
O    2.2200213   -2.3489704  -13.2390679  
C    3.1771257   -3.0677078  -11.1570371  
O    4.0190846   -3.8064422  -11.9624681  
C    3.2311538   -3.0573096   -9.7788139  
H    2.5973675   -2.4069690   -6.8493932  
H   -0.1497964   -0.1850668   -9.1336671  
H    0.5974780   -0.9302392  -11.7779345  
H    2.9285008   -2.9535742  -13.4955375  
H    4.6279218   -4.2943087  -11.3995222  
H    3.9687866   -3.6551092   -9.2563088  
C    0.6776452   -0.7282729   -5.1604456  
C    0.3570662   -0.5122898   -6.4622349  
C   -0.7499175    0.4146732   -6.4749881  
C   -1.0501128    0.7232608   -5.0638015  
N   -0.1496415   -0.0015615   -4.3176961  
C   -2.0330248    1.5639237   -4.6528578  
C   -2.8499160    2.2075899   -5.6681992  
O   -3.7597005    2.9811071   -5.3993803  
C   -2.5498364    1.8951554   -7.1689130  
O   -3.2311609    2.4309175   -8.0326357  
C   -1.4636365    0.9719958   -7.4879705  
H   -2.2366041    1.7767220   -3.6125778  
H   -1.2621733    0.7611268   -8.5294454  
H    1.4485160   -1.3573553   -4.7458345  
C    3.3003543    0.0005276   -1.4738987  
C    2.5232814    0.0003497   -2.6090747  
C    1.1623200   -0.0001320   -2.1820103  
C    1.1711883    0.0000582   -0.7636140  
N    2.4852300   -0.0014919   -0.3662360  
C    0.0000000    0.0000000    0.0000000  
C   -1.2020384    0.0000519   -0.6806477  
O   -2.3759249    0.0003493    0.0157743  
C   -1.2314656   -0.0005115   -2.0955510  
O   -2.5054392   -0.0008039   -2.6250180  
C   -0.0764516   -0.0007274   -2.8495195  
H    2.8919955   -0.0005620   -3.6205304  
H    2.8036267    0.0088183    0.5858662  
H   -3.0835638    0.0000347   -0.6418818  
H   -2.4360047   -0.0011529   -3.5845921  
H    4.3715549    0.0004895   -1.3667136  
C    2.3971438    2.0127888    3.1728260  
C    1.9431056    1.6308205    1.9564670  
C    0.8496017    0.7127664    2.2356185  
C    0.7794028    0.6545384    3.7115134  
N    1.6840587    1.4146091    4.2663826  
C   -0.1885723   -0.1578550    4.3957118  
C   -1.0476298   -0.8789867    3.6398520  
O   -2.0015663   -1.6796266    4.1448486  
C   -1.0022026   -0.8410666    2.1483229  
O   -1.8147390   -1.5232959    1.5241687  
C    0.0000000    0.0000000    1.4700000  
H    2.3054237    1.9346118    0.9892483  
H   -0.2170646   -0.1815267    5.4753125  
H   -2.4487139   -2.0549881    3.3649027  
H    3.2048689    2.6911772    3.3971983  
