64

C    3.1670382   -3.5264673   -4.4972899  
C    4.2434641   -4.2966649   -4.8722185  
C    4.4147238   -4.1172030   -6.2768760  
C    3.4052225   -3.2188054   -6.7078248  
N    2.6640389   -2.8811873   -5.6027104  
C    3.2717393   -2.8134135   -8.0392263  
C    4.1739612   -3.3240176   -8.9521650  
O    4.0893168   -2.9610537  -10.2652175  
C    5.1879245   -4.2218582   -8.5415827  
O    6.0077392   -4.6418296   -9.5686506  
C    5.3200354   -4.6224321   -7.2283366  
H    4.8320747   -4.9129853   -4.2144344  
H    2.5044278   -2.1290930   -8.3740992  
H    4.8025864   -3.4245341  -10.7231445  
H    6.6642466   -5.2447712   -9.2066224  
H    6.1065625   -5.3115041   -6.9436749  
H    2.7173938   -3.3874754   -3.5290649  
C    1.5214681   -1.9563162   -5.5959991  
C    0.7564344   -1.5844073   -4.5433899  
C   -0.2212177   -0.6607930   -5.0980362  
C    0.1090029   -0.5886732   -6.5375977  
N    1.1296218   -1.3460487   -6.8354367  
C   -0.6386058    0.2326998   -7.4494710  
C   -1.6694953    0.9491468   -6.9461763  
O   -2.4518892    1.7570649   -7.6818187  
C   -2.0277815    0.8972570   -5.4980401  
O   -2.9783775    1.5758982   -5.1094083  
C   -1.2456329    0.0471727   -4.5828766  
H    0.8445932   -1.8981613   -3.5172991  
H   -0.3750446    0.2664711   -8.4965174  
H   -3.0926575    2.1264000   -7.0476575  
C    1.1243410    0.0099923   -0.7919003  
C    0.7474076    0.0234544   -2.1148543  
C   -0.6787381    0.0234490   -2.1414700  
C   -1.1201745    0.0098592   -0.7935546  
N    0.0000000    0.0000000    0.0000000  
C   -2.4730816    0.0063709   -0.4408240  
C   -3.3971958    0.0170982   -1.4675058  
O   -4.7313517    0.0146259   -1.1793471  
C   -2.9763648    0.0303504   -2.8186324  
O   -4.0166480    0.0395118   -3.7247624  
C   -1.6418562    0.0335260   -3.1673481  
H    1.4178717    0.0310972   -2.9571209  
H   -2.8160166   -0.0041111    0.5845966  
H   -5.1938818    0.0230867   -2.0274384  
H   -3.6464675    0.0482293   -4.6127343  
H    2.1062467    0.0052819   -0.3505407  
C    2.5285572    2.1210227    2.9438989  
C    1.9331703    1.6216660    4.0790748  
C    0.8903039    0.7472258    3.6520102  
C    0.8972198    0.7527806    2.2336141  
N    1.9028376    1.5986179    1.8362361  
C    0.0000000    0.0000000    1.4700000  
C   -0.9207814   -0.7726952    2.1506477  
O   -1.8198395   -1.5274828    1.4542253  
C   -0.9436862   -0.7911793    3.5655508  
O   -1.9197945   -1.6098497    4.0950179  
C   -0.0590329   -0.0485852    4.3195194  
H    2.2150357    1.8593692    5.0905303  
H    2.1533708    1.7953814    0.8841339  
H   -2.3621246   -1.9821033    2.1118817  
H   -1.8668290   -1.5649508    5.0545920  
H   -0.1007624   -0.0827977    5.4019087  
H    3.3491200    2.8096064    2.8367138  
