62

C    2.2183895   -1.8168392   -7.8093923  
C    3.3038186   -2.6233254   -8.0621598  
C    3.5880264   -2.5142674   -9.4556915  
C    2.6349733   -1.6194418  -10.0060586  
N    1.8173137   -1.2161355   -8.9797095  
C    2.6146266   -1.2757609  -11.3611447  
C    3.5740442   -1.8455496  -12.1754172  
O    3.6000233   -1.5442450  -13.5064141  
C    4.5331458   -2.7408721  -11.6450027  
O    5.4213010   -3.2241134  -12.5836196  
C    4.5536464   -3.0805837  -10.3083274  
H    3.8257858   -3.2180284   -7.3321784  
H    1.0528764   -0.5710162   -9.0659519  
H    1.8908234   -0.5945063  -11.7868246  
H    4.3366244   -2.0418376  -13.8846807  
H    6.0343118   -3.8208023  -12.1434106  
H    5.3004176   -3.7693278   -9.9309122  
C    1.8159014   -2.1156536   -5.3336806  
C    0.9337940   -1.6549082   -4.3839084  
C    0.0359165   -0.7660300   -5.0459592  
C    0.4223296   -0.7238312   -6.4100819  
N    1.5073772   -1.5530972   -6.5501064  
C   -0.2444663    0.0542444   -7.3612762  
C   -1.3211419    0.8031322   -6.9275550  
O   -2.0081614    1.5803928   -7.8146201  
C   -1.7216871    0.7745411   -5.5705127  
O   -2.8111773    1.5750119   -5.2955536  
C   -1.0641734    0.0073898   -4.6315339  
H    0.9377500   -1.9252651   -3.3418506  
H    0.0451694    0.0908672   -8.4024158  
H   -2.7106168    2.0128236   -7.3118043  
H   -3.0163348    1.4981863   -4.3587441  
H    2.6416168   -2.7999476   -5.2393631  
C    1.1319248    0.0015675   -0.8009270  
C    0.7969916    0.0034959   -2.1169404  
C   -0.6453336    0.0035703   -2.1842672  
C   -1.1266831    0.0015415   -0.7896027  
N    0.0000000    0.0000000    0.0000000  
C   -2.4346129    0.0013924   -0.4276297  
C   -3.4350110    0.0031352   -1.4820184  
O   -4.6384610    0.0030897   -1.2583919  
C   -2.9478958    0.0050460   -2.9661075  
O   -3.7809377    0.0062160   -3.8623775  
C   -1.5113821    0.0053068   -3.2312125  
H    1.4821240    0.0045436   -2.9459192  
H   -2.7664565    0.0000185    0.6013447  
H    2.1104318    0.0009428   -0.3488058  
C    0.8681109    0.7263879    2.2709268  
C    0.6127770    0.5096195    3.5869401  
C   -0.4920590   -0.4175482    3.6542670  
C   -0.8620974   -0.7254003    2.2596025  
N    0.0000000    0.0000000    1.4700000  
C   -1.8641242   -1.5660088    1.8976294  
C   -2.6293522   -2.2103885    2.9520183  
O   -3.5512764   -2.9839180    2.7283916  
C   -2.2549728   -1.8987399    4.4361073  
O   -2.8923672   -2.4351063    5.3323774  
C   -1.1543735   -0.9755647    4.7012123  
H    1.1382914    0.9492124    4.4159191  
H   -2.1192137   -1.7782617    0.8686553  
H   -0.9013378   -0.7652422    5.7314848  
H    1.6172880    1.3558399    1.8188057  
