64

C    4.9016403   -1.0418973   -7.2526444  
C    5.6358268   -0.6394862   -8.3442049  
C    5.4256850    0.7634680   -8.4930672  
C    4.5469932    1.1652041   -7.4545891  
N    4.2468104    0.0443338   -6.7209975  
C    4.1211087    2.4871014   -7.2933479  
C    4.5910555    3.4205063   -8.1967216  
O    4.2071731    4.7255799   -8.0852279  
C    5.4681173    3.0390424   -9.2398242  
O    5.8470539    4.0837230  -10.0573776  
C    5.8884638    1.7350911   -9.3996584  
H    6.2467270   -1.2787161   -8.9583535  
H    3.4514076    2.7996900   -6.5040501  
H    4.6427070    5.2007293   -8.8048169  
H    6.4382995    3.7409771  -10.7345457  
H    6.5605295    1.4728073  -10.2083684  
H    4.7921410   -2.0180657   -6.8121174  
C    4.5307437   -2.1461282   -2.8337207  
C    4.7749780   -1.6571900   -4.0961615  
C    3.6985736   -0.7782284   -4.4176895  
C    2.8206438   -0.7704151   -3.3036404  
N    3.3546632   -1.6129838   -2.3604976  
C    1.6478437   -0.0100096   -3.2702997  
C    1.3561473    0.7567065   -4.3817119  
O    0.2237653    1.5184862   -4.4020986  
C    2.2194734    0.7618630   -5.5030772  
O    1.7906298    1.5760057   -6.5309919  
C    3.3764986    0.0117409   -5.5367696  
H    5.6239013   -1.9045621   -4.7102708  
H    2.9565238   -1.8008911   -1.4581911  
H    0.2118899    1.9671646   -5.2575585  
H    2.4293626    1.5220358   -7.2484259  
H    5.1016806   -2.8340909   -2.2339731  
C    1.1188642    0.0008224   -0.8003808  
C    0.0000000    0.0000000    0.0000000  
C   -1.1323861    0.0008899   -0.8673529  
C   -0.6382661    0.0019681   -2.1969282  
N    0.7324017    0.0038483   -2.1202240  
C   -1.4770912    0.0027320   -3.3154810  
C   -2.8395474    0.0020946   -3.0876860  
O   -3.7039199    0.0024426   -4.1440353  
C   -3.3517867    0.0013927   -1.7684331  
O   -4.7300496    0.0012363   -1.7073125  
C   -2.5248543    0.0009121   -0.6644818  
H   -1.1067568    0.0036992   -4.3313814  
H   -4.5940031    0.0021828   -3.7685133  
H   -4.9934602    0.0007260   -0.7819919  
H   -2.9462579    0.0005600    0.3339656  
H    2.1619896    0.0009357   -0.5342065  
C    2.5528530    2.1414826    2.8079335  
C    2.0663498    1.7338582    4.0032312  
C    0.9804344    0.8229586    3.6752840  
C    0.9495562    0.7966882    2.1971295  
N    1.8690446    1.5676019    1.6831036  
C    0.0000000    0.0000000    1.4700000  
C   -0.8785127   -0.7372425    2.1869543  
O   -1.8187535   -1.5261249    1.6395491  
C   -0.8723269   -0.7321790    3.6796354  
O   -1.7010379   -1.4274584    4.2670412  
C    0.1115397    0.0933559    4.4024240  
H    2.4028853    2.0163452    4.9860947  
H   -2.2861435   -1.9184361    2.3990168  
H    0.0832434    0.0693689    5.4835595  
H    3.3664920    2.8238276    2.6198634  
