64

C    7.1254955   -3.2485652   -7.1532943  
C    7.8967711   -3.2036936   -8.2915332  
C    7.8642820   -1.8581118   -8.7637135  
C    7.0507514   -1.1212812   -7.8652837  
N    6.6167817   -1.9961200   -6.9004290  
C    6.7962376    0.2445448   -8.0219091  
C    7.3737411    0.8781507   -9.1050582  
O    7.1584145    2.2110266   -9.3052812  
C    8.1881806    0.1600165  -10.0126867  
O    8.6900575    0.9321446  -11.0399542  
C    8.4394745   -1.1874777   -9.8589418  
H    8.4177226   -4.0383821   -8.7284521  
H    6.1769915    0.8117992   -7.3407635  
H    7.6452694    2.4491538  -10.1049880  
H    9.2284737    0.3714473  -11.6068148  
H    9.0672756   -1.7109668  -10.5704922  
H    6.8968452   -4.0751792   -6.5026121  
C    5.8841829   -2.1091711   -4.4899267  
C    5.7577999   -1.6457874   -5.7601149  
C    4.6250714   -0.7504403   -5.7708530  
C    4.0981361   -0.7300180   -4.3929151  
N    4.9052815   -1.5745225   -3.6661288  
C    3.0267438   -0.0008951   -3.9901699  
C    2.3471072    0.8182474   -4.9799352  
O    1.3727582    1.5105723   -4.7160578  
C    2.8878461    0.8116754   -6.4453235  
O    2.3236394    1.4971368   -7.2873889  
C    4.0508242   -0.0149262   -6.7584744  
H    4.4191196   -0.0137453   -7.7753717  
H    6.6099527   -2.7964260   -4.0864079  
H    4.8007125   -1.7705397   -2.6875125  
C    3.3003547    0.0005277   -1.4738986  
C    2.5232816    0.0003497   -2.6090746  
C    1.1623203   -0.0001319   -2.1820102  
C    1.1711884    0.0000584   -0.7636141  
N    2.4852301   -0.0014919   -0.3662359  
C    0.0000000    0.0000000    0.0000000  
C   -1.2020383    0.0000520   -0.6806479  
O   -2.3759248    0.0003493    0.0157745  
C   -1.2314655   -0.0005115   -2.0955511  
O   -2.5054388   -0.0008040   -2.6250184  
C   -0.0764513   -0.0007274   -2.8495195  
H    2.8036266    0.0088183    0.5858662  
H   -3.0835639    0.0000346   -0.6418822  
H   -2.4360043   -0.0011529   -3.5845924  
H   -0.1304091   -0.0013423   -3.9319089  
H    4.3715553    0.0004897   -1.3667133  
C    2.5285572    2.1210227    2.9438989  
C    1.9331703    1.6216660    4.0790748  
C    0.8903039    0.7472258    3.6520102  
C    0.8972198    0.7527806    2.2336141  
N    1.9028376    1.5986179    1.8362361  
C    0.0000000    0.0000000    1.4700000  
C   -0.9207814   -0.7726952    2.1506477  
O   -1.8198395   -1.5274828    1.4542253  
C   -0.9436862   -0.7911793    3.5655508  
O   -1.9197945   -1.6098497    4.0950179  
C   -0.0590329   -0.0485852    4.3195194  
H    2.2150357    1.8593692    5.0905303  
H    2.1533708    1.7953814    0.8841339  
H   -2.3621246   -1.9821033    2.1118817  
H   -1.8668290   -1.5649508    5.0545920  
H   -0.1007624   -0.0827977    5.4019087  
H    3.3491200    2.8096064    2.8367138  
