60

C    4.7283676   -0.7006413   -7.4296689  
C    4.1680873    0.5526793   -7.3416864  
C    4.9607756    1.4207581   -8.1495756  
C    5.9992942    0.6342084   -8.7105956  
N    5.8298071   -0.6484250   -8.2515281  
C    6.9721609    1.1635359   -9.5639029  
C    6.8950686    2.5113723   -9.8564289  
O    7.8193282    3.0797309  -10.6845147  
C    5.8665640    3.3127351   -9.3061462  
O    5.9260117    4.6358576   -9.6923540  
C    4.9066305    2.7912685   -8.4640490  
H    6.4110978   -1.4316146   -8.4896399  
H    7.7663258    0.5694262   -9.9946458  
H    7.5854195    4.0144555  -10.7540909  
H    5.1970248    5.1069041   -9.2772683  
H    4.1310016    3.4298195   -8.0576873  
H    4.4302940   -1.6273935   -6.9700595  
C    2.8279729   -0.7071295   -3.3541666  
C    1.6707636   -0.0012343   -3.2725974  
C    1.5420226    0.7399976   -4.5050083  
C    2.7275726    0.4056547   -5.3170904  
N    3.4672607   -0.4755791   -4.5626514  
C    2.9773525    0.9038683   -6.5544659  
C    2.0143742    1.8314548   -7.1243708  
O    2.1493679    2.3348416   -8.2319262  
C    0.7517065    2.1998421   -6.2818940  
O   -0.0658604    2.9799880   -6.7511674  
C    0.5920511    1.5980568   -4.9604493  
H   -0.2850560    1.8581560   -4.3835995  
H    3.2676543   -1.3768500   -2.6330256  
H    4.3364880   -0.8886230   -4.8470555  
C    1.0965514    0.0001358   -0.8010306  
C    0.0000000    0.0000000    0.0000000  
C   -1.1546565    0.0001470   -0.8669508  
C   -0.6372019    0.0003520   -2.2486278  
N    0.7342867    0.0007338   -2.1395012  
C   -1.4147744    0.0001354   -3.3608712  
C   -2.8576052   -0.0001047   -3.1854454  
O   -3.6427785   -0.0002490   -4.1244896  
C   -3.4275841   -0.0000727   -1.7311660  
O   -4.6406832    0.0000333   -1.5710049  
C   -2.4891868   -0.0001090   -0.6116739  
H   -1.0150456    0.0001617   -4.3654239  
H   -2.8919122   -0.0002919    0.3920871  
H    2.1388270    0.0000663   -0.5261650  
C    0.8681109    0.7263879    2.2709268  
C    0.6127770    0.5096195    3.5869401  
C   -0.4920590   -0.4175482    3.6542670  
C   -0.8620974   -0.7254003    2.2596025  
N    0.0000000    0.0000000    1.4700000  
C   -1.8641242   -1.5660088    1.8976294  
C   -2.6293522   -2.2103885    2.9520183  
O   -3.5512764   -2.9839180    2.7283916  
C   -2.2549728   -1.8987399    4.4361073  
O   -2.8923672   -2.4351063    5.3323774  
C   -1.1543735   -0.9755647    4.7012123  
H    1.1382914    0.9492124    4.4159191  
H   -2.1192137   -1.7782617    0.8686553  
H   -0.9013378   -0.7652422    5.7314848  
H    1.6172880    1.3558399    1.8188057  
