60

C   -6.7557347    4.2818566    3.0026523  
C   -6.3584395    3.4782480    1.9591788  
C   -4.9411534    3.6011287    1.8552563  
C   -4.5258241    4.5005919    2.8703398  
N   -5.6525909    4.8965002    3.5472966  
C   -3.1877990    4.8570194    3.0638274  
C   -2.2519648    4.2949748    2.2173661  
O   -0.9314147    4.6082662    2.3623152  
C   -2.6468089    3.3957739    1.1983699  
O   -1.5976802    2.9219498    0.4380001  
C   -3.9666550    3.0439077    1.0067384  
H   -7.0101156    2.8782381    1.3473793  
H   -5.6687534    5.5264582    4.3288792  
H   -2.8647873    5.5420890    3.8355427  
H   -0.4572892    4.1148551    1.6803945  
H   -1.9501713    2.3218198   -0.2262272  
H   -7.7388822    4.4663320    3.4005830  
C   -4.3359710    2.1064013   -0.0635825  
C   -5.5644962    1.6417178   -0.4083578  
C   -5.3776814    0.7467246   -1.5259097  
C   -3.9292266    0.7279262   -1.8059385  
N   -3.3543300    1.5729376   -0.8848850  
C   -3.3460097   -0.0004262   -2.7913647  
C   -4.2020389   -0.8203942   -3.6324365  
O   -3.7724535   -1.5121265   -4.5463638  
C   -5.7389979   -0.8155429   -3.3539791  
O   -6.4697255   -1.5017114   -4.0557416  
C   -6.2499652    0.0103534   -2.2628055  
H   -6.4953667    1.8969402    0.0659363  
H   -7.3153181    0.0079806   -2.0764144  
H   -2.3726212    1.7700215   -0.8181562  
C    0.0000000    0.0000000    0.0000000  
C    1.0662919   -0.0000103   -0.8334272  
C    0.4961868    0.0000066   -2.1718889  
C   -0.9663860   -0.0000849   -1.9540248  
N   -1.2632775   -0.0000084   -0.6828659  
C   -1.8985364   -0.0000515   -3.0477258  
C   -1.3925778    0.0004567   -4.3020543  
O   -2.1456385    0.0005412   -5.4151314  
C    0.0786229    0.0009326   -4.5544999  
O    0.4683756    0.0012594   -5.7221104  
C    1.0143162    0.0008443   -3.4159034  
H    2.1107195    0.0000631   -0.5721869  
H   -1.5042277    0.0009692   -6.1484420  
H    2.0724151    0.0013151   -3.6409746  
C    3.2798086   -0.0005857    2.9199648  
C    2.5571146   -0.0005566    4.0696553  
C    1.1637436   -0.0001548    3.6910360  
C    1.1336965    0.0000200    2.2159470  
N    2.4483514    0.0001428    1.8102719  
C    0.0000000    0.0000000    1.4700000  
C   -1.2757367    0.0000186    2.1664417  
O   -2.3524596    0.0000640    1.5842315  
C   -1.2676493    0.0000873    3.7284083  
O   -2.3355761    0.0004100    4.3257297  
C    0.0181563   -0.0001760    4.4216297  
H    2.9547357   -0.0006076    5.0689105  
H    0.0150794   -0.0003319    5.5031631  
H    4.3498549   -0.0008612    2.7900019  
H    2.7563627   -0.0012824    0.8551938  
