62

C    1.1243406    0.0100271   -0.7919009  
C    0.7474067    0.0234775   -2.1148547  
C   -0.6787391    0.0234277   -2.1414699  
C   -1.1201748    0.0098244   -0.7935551  
N    0.0000000    0.0000000    0.0000000  
C   -2.4730817    0.0062939   -0.4408239  
C   -3.3971961    0.0169924   -1.4675061  
O   -4.7313523    0.0144787   -1.1793462  
C   -2.9763663    0.0302582   -2.8186321  
O   -4.0166494    0.0393869   -3.7247617  
C   -1.6418577    0.0334749   -3.1673480  
H    1.4178701    0.0311413   -2.9571216  
H   -2.8160163   -0.0041987    0.5845971  
H   -5.1938826    0.0229252   -2.0274381  
H   -3.6464693    0.0481160   -4.6127338  
H    2.1062464    0.0053472   -0.3505415  
C   -0.1936615   -0.6738984   -5.1271222  
C   -0.0848611   -0.4442883   -6.4611075  
C   -1.1308009    0.4861604   -6.8148175  
C   -1.8631077    0.7819431   -5.5686114  
N   -1.2456351    0.0471339   -4.5828768  
C   -2.9257429    1.6215964   -5.4820504  
C   -3.3785490    2.2776124   -6.6974291  
O   -4.3267464    3.0512799   -6.7231432  
C   -2.6179578    1.9788537   -8.0286122  
O   -2.9902637    2.5250802   -9.0583145  
C   -1.4864951    1.0554967   -7.9961199  
H   -3.4487728    1.8249014   -4.5579205  
H   -0.9650934    0.8541393   -8.9220355  
H    0.4060201   -1.3093520   -4.4958769  
C    0.9123628   -1.0363468   -7.3643852  
C    1.9004344   -1.9089209   -7.0579396  
C    2.5824372   -2.1609319   -8.3180438  
C    1.8547986   -1.3368268   -9.3069713  
N    0.8748205   -0.6753059   -8.7537789  
C    2.2272493   -1.3079496  -10.6946069  
C    3.2790495   -2.0675136  -11.0768552  
O    3.7356704   -2.1365755  -12.3389048  
C    4.0338052   -2.9095969  -10.1024832  
O    4.9805986   -3.5758613  -10.5206870  
C    3.6322691   -2.9222181   -8.6845512  
H    2.1372858   -2.3295325   -6.0956177  
H    1.6776200   -0.6967047  -11.3954613  
H    4.4876663   -2.7545572  -12.2970317  
H    4.2046911   -3.5452769   -8.0104884  
C    2.5311839    2.1237619    3.0120429  
C    1.9795631    1.6616747    1.8395852  
C    0.9223175    0.7739173    2.1983588  
C    0.8753926    0.7337535    3.6154372  
N    1.8668922    1.5631002    4.0777464  
C   -0.0496243   -0.0427881    4.3197917  
C   -0.9437528   -0.7922060    3.5801400  
O   -1.8685244   -1.5680278    4.2172520  
C   -0.9124520   -0.7656372    2.1655264  
O   -1.8671164   -1.5663939    1.5732860  
C    0.0000000    0.0000000    1.4700000  
H    2.3005065    1.9304404    0.8477417  
H    2.0679347    1.7444845    5.0445261  
H   -0.0904770   -0.0778569    5.3997470  
H   -2.3849669   -2.0011402    3.5251786  
H   -1.7775064   -1.4909735    0.6183591  
H    3.3468514    2.8078103    3.1724291  
