60

C   -4.4516595    2.1220205   -0.2154630  
C   -5.6505107    1.6231913   -0.6697669  
C   -5.3525996    0.7489266   -1.7567399  
C   -3.9437155    0.7540398   -1.9208881  
N   -3.4276992    1.5994572   -0.9703017  
C   -3.2941075    0.0012873   -2.9038235  
C   -4.0810730   -0.7709252   -3.7360196  
O   -3.4983893   -1.5256630   -4.7126791  
C   -5.4884223   -0.7889639   -3.5881684  
O   -6.1319964   -1.6071818   -4.4935272  
C   -6.1299737   -0.0463973   -2.6188732  
H   -6.6205215    1.8611249   -0.2679462  
H   -2.4522689    1.7958516   -0.8363403  
H   -4.2167866   -1.9799196   -5.1718314  
H   -7.0781684   -1.5620013   -4.3252413  
H   -7.2095094   -0.0802620   -2.5298041  
H   -4.2460853    2.8103285    0.5863659  
C    0.0000000    0.0000000    0.0000000  
C    1.0541688   -0.0001722   -0.8560392  
C    0.5103135   -0.0000454   -2.1935954  
C   -0.9576375    0.0002459   -2.0455728  
N   -1.2018462   -0.0001392   -0.6915966  
C   -1.8348315    0.0008316   -3.0810604  
C   -1.2972851    0.0009737   -4.4314603  
O   -2.0050681    0.0014265   -5.4301316  
C    0.2542617    0.0004185   -4.6117570  
O    0.7184664    0.0002257   -5.7439119  
C    1.0974549    0.0000874   -3.4189129  
H    2.0940751   -0.0005482   -0.5817983  
H   -2.1128195    0.0014911   -0.2706785  
C    3.4546596   -0.7051950   -2.8655885  
C    2.5562209   -0.0001551   -3.6003007  
C    3.3075545    0.7421839   -4.5848140  
C    4.7275383    0.4094228   -4.3618654  
N    4.7487496   -0.4720453   -3.3057149  
C    5.7578589    0.9090023   -5.0902642  
C    5.4475459    1.8364946   -6.1654382  
O    6.3052792    2.3410445   -6.8781962  
C    3.9505741    2.2032189   -6.4191997  
O    3.6771245    2.9832708   -7.3214220  
C    2.9282233    1.6000469   -5.5678283  
H    6.7924729    0.6518568   -4.9103761  
H    1.8940995    1.8589988   -5.7501916  
H    3.2802835   -1.3753189   -2.0395033  
H    5.5766091   -0.8842306   -2.9161006  
C    3.2798086   -0.0005857    2.9199648  
C    2.5571146   -0.0005566    4.0696553  
C    1.1637436   -0.0001548    3.6910360  
C    1.1336965    0.0000200    2.2159470  
N    2.4483514    0.0001428    1.8102719  
C    0.0000000    0.0000000    1.4700000  
C   -1.2757367    0.0000186    2.1664417  
O   -2.3524596    0.0000640    1.5842315  
C   -1.2676493    0.0000873    3.7284083  
O   -2.3355761    0.0004100    4.3257297  
C    0.0181563   -0.0001760    4.4216297  
H    2.9547357   -0.0006076    5.0689105  
H    0.0150794   -0.0003319    5.5031631  
H    4.3498549   -0.0008612    2.7900019  
H    2.7563627   -0.0012824    0.8551938  
