62

C    4.3986925   -2.1219534   -1.2768490  
C    3.1671542   -1.6601561   -1.6799920  
C    3.3927791   -0.7733837   -2.7742173  
C    4.7932402   -0.7334947   -2.9956763  
N    5.3743139   -1.5620494   -2.0680625  
C    5.3781140    0.0421207   -4.0012263  
C    4.5338274    0.7908774   -4.7979200  
O    5.0520044    1.5657842   -5.7949293  
C    3.1338858    0.7645692   -4.5922822  
O    2.4284169    1.5645872   -5.4672842  
C    2.5562222   -0.0001542   -3.6002998  
H    2.2224780   -1.9284770   -1.2388763  
H    6.3585028   -1.7434167   -1.9876889  
H    6.4447778    0.0769756   -4.1750569  
H    4.3015179    1.9985585   -6.2224131  
H    1.4918408    1.4894028   -5.2604613  
H    4.6584630   -2.8053140   -0.4865975  
C    0.0000000    0.0000000    0.0000000  
C    1.0541691   -0.0001719   -0.8560389  
C    0.5103143   -0.0000448   -2.1935953  
C   -0.9576364    0.0002464   -2.0455731  
N   -1.2018458   -0.0001389   -0.6915972  
C   -1.8348303    0.0008322   -3.0810611  
C   -1.2972837    0.0009745   -4.4314603  
O   -2.0050658    0.0014276   -5.4301322  
C    0.2542633    0.0004194   -4.6117570  
O    0.7184681    0.0002269   -5.7439118  
C    1.0974560    0.0000881   -3.4189126  
H    2.0940754   -0.0005481   -0.5817976  
H   -2.1128195    0.0014913   -0.2706792  
C   -4.3137498    2.1424310   -0.2077338  
C   -5.5591243    1.7353210   -0.5466765  
C   -5.3648104    0.8246404   -1.6644432  
C   -3.9011710    0.7979210   -1.8733226  
N   -3.2797686    1.5684038   -1.0223203  
C   -3.2941065    0.0012879   -2.9038247  
C   -4.1120049   -0.7354729   -3.6896746  
O   -3.6822277   -1.5242473   -4.6892582  
C   -5.5930492   -0.7299485   -3.5035618  
O   -6.2763252   -1.4248011   -4.2555822  
C   -6.1916575    0.0955198   -2.4395154  
H   -6.4941450    2.0180131   -0.0940210  
H   -4.4926426   -1.9161849   -5.0617706  
H   -7.2683262    0.0718762   -2.3372599  
H   -4.0287176    2.8244773    0.5774687  
C    1.1188642   -0.0008217    2.2703808  
C    0.0000000    0.0000000    1.4700000  
C   -1.1323862   -0.0008904    2.3373528  
C   -0.6382662   -0.0019682    3.6669281  
N    0.7324016   -0.0038477    3.5902241  
C   -1.4770914   -0.0027325    4.7854808  
C   -2.8395474   -0.0020958    4.5576857  
O   -3.7039201   -0.0024443    5.6140350  
C   -3.3517868   -0.0013946    3.2384331  
O   -4.7300496   -0.0012389    3.1773122  
C   -2.5248543   -0.0009135    2.1344818  
H    1.3576314    0.0056174    4.3757045  
H   -1.1067570   -0.0036993    5.8013813  
H   -4.5940033   -0.0021850    5.2385129  
H   -4.9934601   -0.0007286    2.2519915  
H   -2.9462578   -0.0005617    1.1360343  
H    2.1619896   -0.0009344    2.0042067  
