62

C    7.9513671   -0.7101429    1.3815441  
C    8.5489081   -0.4602950    2.5952121  
C    9.6218486    0.4475829    2.3519955  
C    9.6302209    0.7186246    0.9597334  
N    8.6043389   -0.0017929    0.4001080  
C   10.5576445    1.5773336    0.3619936  
C   11.4934787    2.1735208    1.1847666  
O   12.4220666    3.0210522    0.6533280  
C   11.5015095    1.9153353    2.5762024  
O   12.4956517    2.5843133    3.2599358  
C   10.5870529    1.0680993    3.1665299  
H    8.2491136   -0.8815353    3.5394966  
H   10.5694228    1.7879458   -0.6985278  
H   12.9704070    3.3217109    1.3896657  
H   12.4309285    2.3550470    4.1920583  
H   10.6179863    0.8895118    4.2349995  
H    7.1119521   -1.3386977    1.1381107  
C    4.7161325   -0.0005435   -1.6923264  
C    5.6957067   -0.0010595   -0.7518430  
C    6.9559334   -0.0010594   -1.4565867  
C    6.6279075   -0.0004678   -2.8950543  
N    5.2541447   -0.0005756   -2.9703260  
C    7.5472423    0.0001052   -3.8933165  
C    8.9536518   -0.0000843   -3.5265082  
O    9.8573560    0.0003304   -4.3521108  
C    9.3240200   -0.0009609   -2.0090658  
O   10.5048029   -0.0014343   -1.6881086  
C    8.2443356   -0.0012461   -1.0251280  
H    5.5518787   -0.0015835    0.3139556  
H    7.2854490    0.0006637   -4.9423041  
H    4.7240364    0.0012972   -3.8223992  
C    3.2573665   -0.0002920   -1.5109385  
C    2.5379463   -0.0001709   -0.3591964  
C    1.1435038    0.0000331   -0.7338500  
C    1.1092599   -0.0000083   -2.2088477  
N    2.4227553    0.0001909   -2.6182613  
C   -0.0265539   -0.0002524   -2.9515660  
C   -1.3003040   -0.0002640   -2.2514977  
O   -2.3786790   -0.0004133   -2.8306421  
C   -1.2877727    0.0000311   -0.6895603  
O   -2.3539959    0.0003306   -0.0892030  
C    0.0000000    0.0000000    0.0000000  
H    2.9384091   -0.0000367    0.6389234  
H   -0.0296303   -0.0004086   -4.0327229  
H    2.7280482   -0.0013407   -3.5742119  
C    2.5311839    2.1237619    3.0120429  
C    1.9795631    1.6616747    1.8395852  
C    0.9223175    0.7739173    2.1983588  
C    0.8753926    0.7337535    3.6154372  
N    1.8668922    1.5631002    4.0777464  
C   -0.0496243   -0.0427881    4.3197917  
C   -0.9437528   -0.7922060    3.5801400  
O   -1.8685244   -1.5680278    4.2172520  
C   -0.9124520   -0.7656372    2.1655264  
O   -1.8671164   -1.5663939    1.5732860  
C    0.0000000    0.0000000    1.4700000  
H    2.3005065    1.9304404    0.8477417  
H    2.0679347    1.7444845    5.0445261  
H   -0.0904770   -0.0778569    5.3997470  
H   -2.3849669   -2.0011402    3.5251786  
H   -1.7775064   -1.4909735    0.6183591  
H    3.3468514    2.8078103    3.1724291  
