64

C    6.5505903   -0.0057860   -1.5916569  
C    5.7766163   -0.0082551   -0.4543684  
C    6.6702360   -0.0106295    0.6574041  
C    7.9878816   -0.0091794    0.1323011  
N    7.8791200   -0.0081914   -1.2361964  
C    9.1257626   -0.0105188    0.9447155  
C    8.9299172   -0.0130671    2.3121279  
O   10.0062084   -0.0141143    3.1515389  
C    7.6230159   -0.0149214    2.8551017  
O    7.5941707   -0.0178013    4.2344145  
C    6.5000126   -0.0138748    2.0542354  
H    4.7003465   -0.0094402   -0.4291731  
H    8.6497407    0.0034850   -1.8796156  
H   10.1327164   -0.0095697    0.5507063  
H    9.6516233   -0.0161854    4.0501654  
H    6.6752692   -0.0188770    4.5194097  
H    5.5117022   -0.0155296    2.4988899  
C    2.5562217   -0.0001551   -3.6003001  
C    3.5655126   -0.0016944   -2.6655291  
C    4.7980129   -0.0018082   -3.3835430  
C    4.4750742   -0.0000008   -4.7647141  
N    3.1056446   -0.0009834   -4.8610468  
C    5.4479449    0.0007089   -5.7688602  
C    6.7709221   -0.0001197   -5.3714827  
O    7.7613130    0.0008689   -6.3107046  
C    7.1131347   -0.0022981   -3.9982737  
O    8.4727595   -0.0033052   -3.7642590  
C    6.1538987   -0.0032724   -3.0071177  
H    3.4300844   -0.0037267   -1.5975178  
H    2.5841976    0.0104394   -5.7189186  
H    5.2083492    0.0019413   -6.8232765  
H    8.5970864   -0.0002571   -5.8261982  
H    8.6176764   -0.0047416   -2.8131540  
C    0.0000000    0.0000000    0.0000000  
C    1.0541688   -0.0001722   -0.8560390  
C    0.5103141   -0.0000453   -2.1935955  
C   -0.9576367    0.0002460   -2.0455731  
N   -1.2018459   -0.0001392   -0.6915969  
C   -1.8348307    0.0008318   -3.0810611  
C   -1.2972843    0.0009738   -4.4314606  
O   -2.0050665    0.0014267   -5.4301321  
C    0.2542628    0.0004186   -4.6117570  
O    0.7184676    0.0002258   -5.7439117  
C    1.0974555    0.0000874   -3.4189127  
H    2.0940752   -0.0005483   -0.5817978  
H   -2.9081051    0.0011670   -2.9507061  
H   -2.1128194    0.0014912   -0.2706792  
C    3.3041272   -0.0001177    3.0120429  
C    2.5845372    0.0004780    1.8395852  
C    1.2040006    0.0000008    2.1983588  
C    1.1422373   -0.0006037    3.6154372  
N    2.4348639   -0.0026109    4.0777464  
C   -0.0655181   -0.0008797    4.3197917  
C   -1.2321768   -0.0002324    3.5801400  
O   -2.4392816   -0.0001146    4.2172520  
C   -1.1911209    0.0000007    2.1655264  
O   -2.4371527    0.0002320    1.5732860  
C    0.0000000    0.0000000    1.4700000  
H    3.0031534    0.0000661    0.8477417  
H    2.7054629    0.0071099    5.0445261  
H   -0.1193549   -0.0014844    5.3997470  
H   -3.1132988    0.0000648    3.5251786  
H   -2.3200282    0.0004071    0.6183591  
H    4.3686625   -0.0004071    3.1724291  
