64

C   -8.4137590    0.6998174   -2.7677555  
C   -8.0280572   -0.5532763   -3.1842378  
C   -9.1402506   -1.4218210   -2.9762598  
C  -10.1850406   -0.6357759   -2.4262835  
N   -9.7098871    0.6470178   -2.3110148  
C  -11.4354666   -1.1656457   -2.0939232  
C  -11.6349155   -2.5135152   -2.3211782  
O  -12.8373009   -3.0823928   -2.0151373  
C  -10.6046154   -3.3143795   -2.8688239  
O  -10.9579424   -4.6376058   -3.0348844  
C   -9.3707020   -2.7923778   -3.1966914  
H  -10.2317829    1.4299410   -1.9608190  
H  -12.2358568   -0.5719223   -1.6743143  
H  -12.7643976   -4.0170453   -2.2483199  
H  -10.2069151   -5.1082938   -3.4090691  
H   -8.6008676   -3.4305547   -3.6145006  
H   -7.8663763    1.6267778   -2.7590324  
C   -3.9706103    0.7078764   -2.0752018  
C   -3.2578655    0.0024282   -2.9908505  
C   -4.2092627   -0.7390177   -3.7845364  
C   -5.5442815   -0.4052871   -3.2524286  
N   -5.3302410    0.4758321   -2.2176800  
C   -6.7107872   -0.9038561   -3.7345060  
C   -6.6471651   -1.8312060   -4.8518735  
O   -7.6419124   -2.3348780   -5.3569421  
C   -5.2439270   -2.1989459   -5.4310929  
O   -5.1778117   -2.9788878   -6.3716140  
C   -4.0578617   -1.5968206   -4.8273161  
H   -3.0900594   -1.8564716   -5.2343343  
H   -3.6169908    1.3775867   -1.3081744  
H   -6.0508612    0.8884930   -1.6542400  
C    0.0000000    0.0000000    0.0000000  
C    1.0521666   -0.0011982   -0.8862343  
C    0.4917215   -0.0011996   -2.1979132  
C   -0.9187429    0.0003215   -2.0478682  
N   -1.1833171   -0.0009323   -0.7007913  
C   -1.7951703    0.0010483   -3.1372089  
C   -1.2375841    0.0005313   -4.4010422  
O   -2.0474218    0.0015510   -5.4997578  
C    0.1673576   -0.0013585   -4.5711963  
O    0.5673520   -0.0020735   -5.8915554  
C    1.0325768   -0.0023493   -3.4969892  
H    2.0953056   -0.0030808   -0.6200564  
H   -2.0989778    0.0102529   -0.2891822  
H   -1.4634888    0.0006601   -6.2693595  
H    1.5290707   -0.0033271   -5.9180047  
H    2.1042146   -0.0039770   -3.6584456  
C    3.3041272   -0.0001177    3.0120429  
C    2.5845372    0.0004780    1.8395852  
C    1.2040006    0.0000008    2.1983588  
C    1.1422373   -0.0006037    3.6154372  
N    2.4348639   -0.0026109    4.0777464  
C   -0.0655181   -0.0008797    4.3197917  
C   -1.2321768   -0.0002324    3.5801400  
O   -2.4392816   -0.0001146    4.2172520  
C   -1.1911209    0.0000007    2.1655264  
O   -2.4371527    0.0002320    1.5732860  
C    0.0000000    0.0000000    1.4700000  
H    3.0031534    0.0000661    0.8477417  
H    2.7054629    0.0071099    5.0445261  
H   -0.1193549   -0.0014844    5.3997470  
H   -3.1132988    0.0000648    3.5251786  
H   -2.3200282    0.0004071    0.6183591  
H    4.3686625   -0.0004071    3.1724291  
