60

C    0.2352182   -0.6774228   -9.6131199  
C    0.9601119   -0.6297893  -10.7813353  
C    0.9098134    0.7171953  -11.2479211  
C    0.1337254    1.4519951  -10.3153527  
N   -0.2618283    0.5746544   -9.3363593  
C   -0.1257044    2.8184639  -10.4576493  
C    0.4082993    3.4548122  -11.5613156  
O    0.1862424    4.7884300  -11.7488460  
C    1.1849411    2.7387353  -12.5030568  
O    1.6457470    3.5134986  -13.5474428  
C    1.4410540    1.3906093  -12.3634581  
H    1.4623421   -1.4635811  -11.2412813  
H   -0.7165539    3.3841802   -9.7504968  
H    0.6407334    5.0285384  -12.5668016  
H    2.1604358    2.9540640  -14.1371320  
H    2.0392657    0.8687407  -13.1012064  
H    0.0322187   -1.5057705   -8.9561644  
C   -0.0202922   -0.6967075   -5.1400949  
C   -1.0641734    0.0073898   -4.6315339  
C   -1.6428383    0.7514419   -5.7253206  
C   -0.8448100    0.4207134   -6.9213806  
N    0.1229399   -0.4613334   -6.4990734  
C   -1.0739325    0.9222824   -8.1613952  
C   -2.1802186    1.8499243   -8.3291660  
O   -2.4675341    2.3561921   -9.4059403  
C   -3.0385139    2.2145169   -7.0760867  
O   -3.9723190    2.9946743   -7.2050177  
C   -2.6944048    1.6092960   -5.7918949  
H   -3.2937358    1.8667796   -4.9292082  
H    0.6565474   -1.3675747   -4.6363936  
H    0.8239109   -0.8724841   -7.0878369  
C    1.1319248    0.0015675   -0.8009270  
C    0.7969916    0.0034959   -2.1169404  
C   -0.6453336    0.0035703   -2.1842672  
C   -1.1266831    0.0015415   -0.7896027  
N    0.0000000    0.0000000    0.0000000  
C   -2.4346129    0.0013924   -0.4276297  
C   -3.4350110    0.0031352   -1.4820184  
O   -4.6384610    0.0030897   -1.2583919  
C   -2.9478958    0.0050460   -2.9661075  
O   -3.7809377    0.0062160   -3.8623775  
C   -1.5113821    0.0053068   -3.2312125  
H    1.4821240    0.0045436   -2.9459192  
H   -2.7664565    0.0000185    0.6013447  
H    2.1104318    0.0009428   -0.3488058  
C    0.8400945    0.7047457    2.2710304  
C    0.0000000    0.0000000    1.4700000  
C   -0.8844236   -0.7423113    2.3369512  
C   -0.4878984   -0.4098547    3.7186280  
N    0.5629682    0.4714286    3.6095011  
C   -1.0836927   -0.9095027    4.8308716  
C   -2.1891196   -1.8367527    4.6554461  
O   -2.7906899   -2.3413415    5.5944904  
C   -2.6257283   -2.2031529    3.2011665  
O   -3.5549479   -2.9829990    3.0410059  
C   -1.9068976   -1.5999348    2.0816745  
H   -0.7774656   -0.6525820    5.8354244  
H   -2.2155208   -1.8586617    1.0779135  
H    1.6384792    1.3747609    1.9961646  
H    1.0518368    0.8833920    4.3830260  
