60

C   -0.2867263   -2.9263360   -9.5589325  
C   -0.1119171   -2.4582463  -10.8406500  
C   -0.4125648   -1.0640591  -10.8193711  
C   -0.7673948   -0.7351046   -9.4860248  
N   -0.6824249   -1.8890589   -8.7472505  
C   -1.1252706    0.5589541   -9.0959918  
C   -1.1246476    1.5388467  -10.0696389  
O   -1.4656880    2.8195599   -9.7433279  
C   -0.7739663    1.2301752  -11.4055133  
O   -0.8218433    2.3142809  -12.2574318  
C   -0.4210687   -0.0462820  -11.7910605  
H    0.1935307   -3.0492128  -11.6870865  
H   -0.8665665   -1.9629561   -7.7630700  
H   -1.4011094    3.3352388  -10.5576797  
H   -0.5713117    2.0200403  -13.1384875  
H   -0.1574342   -0.2525812  -12.8217963  
H   -0.1618417   -3.9183358   -9.1598103  
C    0.5157023   -0.7055389   -5.2240925  
C   -0.2963293   -0.0005341   -4.3948471  
C   -1.2098550    0.7417636   -5.2310892  
C   -0.8609894    0.4090166   -6.6254931  
N    0.1928751   -0.4724048   -6.5523137  
C   -1.4945017    0.9085670   -7.7167385  
C   -2.5931304    1.8360108   -7.5036702  
O   -3.2264753    2.3405317   -8.4216212  
C   -2.9795613    2.2027195   -6.0353376  
O   -3.9026313    2.9827310   -5.8435417  
C   -2.2228516    1.5995820   -4.9410487  
H   -2.4968364    1.8585230   -3.9273399  
H    1.3229472   -1.3756269   -4.9766502  
H    0.6548727   -0.8845706   -7.3420756  
C    3.1301146   -0.0010313   -1.7028256  
C    2.5367765   -0.0002766   -0.4864669  
C    1.1089901    0.0001027   -0.7656184  
C    1.0177865   -0.0004150   -2.2415133  
N    2.1993571   -0.0011612   -2.7963824  
C   -0.2459219   -0.0002879   -2.9257116  
C   -1.3675326   -0.0000606   -2.1698520  
O   -2.6129318    0.0000865   -2.6748483  
C   -1.3083588    0.0000910   -0.6783229  
O   -2.3693264    0.0004206   -0.0541685  
C    0.0000000    0.0000000    0.0000000  
H    3.0096016   -0.0001007    0.4807518  
H   -3.1967444    0.0002093   -1.8949026  
H    4.1849275   -0.0015114   -1.9271979  
C    2.3971438    2.0127888    3.1728260  
C    1.9431056    1.6308205    1.9564670  
C    0.8496017    0.7127664    2.2356185  
C    0.7794028    0.6545384    3.7115134  
N    1.6840587    1.4146091    4.2663826  
C   -0.1885723   -0.1578550    4.3957118  
C   -1.0476298   -0.8789867    3.6398520  
O   -2.0015663   -1.6796266    4.1448486  
C   -1.0022026   -0.8410666    2.1483229  
O   -1.8147390   -1.5232959    1.5241687  
C    0.0000000    0.0000000    1.4700000  
H    2.3054237    1.9346118    0.9892483  
H   -0.2170646   -0.1815267    5.4753125  
H   -2.4487139   -2.0549881    3.3649027  
H    3.2048689    2.6911772    3.3971983  
