60

C    4.2067255   -0.7398476   -8.9677212  
C    4.9688806   -0.7313867  -10.1129361  
C    4.9454905    0.6020898  -10.6187957  
C    4.1466561    1.3694012   -9.7327792  
N    3.7122943    0.5235593   -8.7425785  
C    3.9040870    2.7332847   -9.9219119  
C    4.4786479    3.3335729  -11.0254127  
O    4.2745803    4.6630291  -11.2576098  
C    5.2784954    2.5847095  -11.9211054  
O    5.7792436    3.3256302  -12.9716439  
C    5.5179985    1.2391105  -11.7352908  
H    5.4780607   -1.5819626  -10.5327570  
H    3.2960670    3.3236692   -9.2503770  
H    4.7570332    4.8760436  -12.0670099  
H    6.3074570    2.7454875  -13.5284463  
H    6.1347432    0.6916219  -12.4383988  
H    3.9755133   -1.5474527   -8.2944659  
C    3.9015080   -0.6894964   -4.5616462  
C    2.8699641   -0.0020530   -4.0185824  
C    2.2908331    0.7423718   -5.1262549  
C    3.1193986    0.3762533   -6.2950239  
N    4.0651029   -0.4628707   -5.9702103  
C    2.8662857    0.9110770   -7.6045979  
C    1.8321947    1.7721969   -7.7404752  
O    1.4822278    2.3472700   -8.9035981  
C    0.9774045    2.1609344   -6.5801402  
O    0.0532404    2.9498372   -6.7770489  
C    1.2573313    1.5987279   -5.2469150  
H    0.7144384    2.9050451   -8.6832841  
H    0.6149062    1.9053321   -4.4323510  
H    4.5849522   -1.3616566   -4.0676039  
C    3.2573670   -0.0002921   -1.5109382  
C    2.5379468   -0.0001711   -0.3591962  
C    1.1435043    0.0000330   -0.7338498  
C    1.1092608   -0.0000085   -2.2088474  
N    2.4227562    0.0001906   -2.6182610  
C   -0.0265533   -0.0002525   -2.9515663  
C   -1.3003033   -0.0002641   -2.2514979  
O   -2.3786785   -0.0004132   -2.8306425  
C   -1.2877724    0.0000310   -0.6895608  
O   -2.3539956    0.0003306   -0.0892035  
C    0.0000000    0.0000000    0.0000000  
H    2.9384091   -0.0000370    0.6389240  
H   -0.0296290   -0.0004088   -4.0327231  
H    4.3270394   -0.0004767   -1.6439445  
C    0.0000000    0.0000000    1.4700000  
C    1.0541688    0.0001722    2.3260392  
C    0.5103138    0.0000454    3.6635956  
C   -0.9576371   -0.0002459    3.5155732  
N   -1.2018458    0.0001392    2.1615969  
C   -1.8348311   -0.0008317    4.5510609  
C   -1.2972847   -0.0009736    5.9014604  
O   -2.0050672   -0.0014265    6.9001319  
C    0.2542623   -0.0004184    6.0817573  
O    0.7184670   -0.0002256    7.2139121  
C    1.0974552   -0.0000873    4.8889129  
H    2.0940752    0.0005483    2.0517982  
H   -2.9081052   -0.0011668    4.4207061  
H    2.1707277    0.0000911    5.0223670  
H   -2.1128194   -0.0014912    1.7406791  
