62

C    3.4956216   -5.3175483   -8.0901993  
C    2.8158320   -4.3961557   -7.3277084  
C    2.9327387   -3.1390116   -7.9914254  
C    3.7011000   -3.3570785   -9.1636004  
N    4.0282084   -4.6900497   -9.1919910  
C    4.0158150   -2.3337844  -10.0628295  
C    3.5460637   -1.0673399   -9.7736408  
O    3.8238827   -0.0315761  -10.6180480  
C    2.7781733   -0.8297744   -8.6088561  
O    2.3844829    0.4841899   -8.4610414  
C    2.4675464   -1.8387511   -7.7211606  
H    2.3001627   -4.6042834   -6.4058838  
H    4.5617781   -5.1414595   -9.9127626  
H    4.6011169   -2.4934393  -10.9578898  
H    3.4085376    0.7519859  -10.2349222  
H    1.8712108    0.5585900   -7.6507208  
H    3.6439234   -6.3724121   -7.9345471  
C    1.8886554   -2.0886684   -5.2633582  
C    0.9763568   -1.6271610   -4.3696039  
C    0.1009360   -0.7303189   -5.0866450  
C    0.5814323   -0.7070197   -6.4814105  
N    1.6673584   -1.5508186   -6.5221212  
C    0.0179866    0.0235611   -7.4766418  
C   -1.1387602    0.8416958   -7.1524081  
O   -1.7168207    1.5352806   -7.9788978  
C   -1.6645102    0.8324700   -5.6815895  
O   -2.6375206    1.5175330   -5.3966326  
C   -0.9736297    0.0040464   -4.6965763  
H    0.9228835   -1.8853690   -3.3269709  
H    0.3859641    0.0263855   -8.4932504  
H    2.7041548   -2.7762787   -5.1083002  
C    1.1188642    0.0008222   -0.8003808  
C    0.0000000    0.0000000    0.0000000  
C   -1.1323862    0.0008899   -0.8673528  
C   -0.6382663    0.0019679   -2.1969280  
N    0.7324016    0.0038481   -2.1202242  
C   -1.4770914    0.0027318   -3.3154808  
C   -2.8395473    0.0020945   -3.0876857  
O   -3.7039201    0.0024425   -4.1440349  
C   -3.3517868    0.0013931   -1.7684331  
O   -4.7300497    0.0012366   -1.7073121  
C   -2.5248543    0.0009123   -0.6644817  
H    1.3576314   -0.0056167   -2.9057046  
H   -4.5940032    0.0021826   -3.7685128  
H   -4.9934602    0.0007259   -0.7819913  
H   -2.9462577    0.0005603    0.3339659  
H    2.1619895    0.0009355   -0.5342068  
C    2.4951002    2.0940188    2.9809380  
C    1.9440701    1.6314916    1.8291961  
C    0.8759964    0.7350050    2.2038498  
C    0.8497377    0.7130254    3.6788474  
N    1.8560616    1.5571714    4.0882609  
C   -0.0205033   -0.0168748    4.4215661  
C   -0.9962600   -0.8356168    3.7214979  
O   -1.8224391   -1.5286685    4.3006425  
C   -0.9864710   -0.8277881    2.1595606  
O   -1.8030528   -1.5133726    1.5592035  
C    0.0000000    0.0000000    1.4700000  
H    2.2509283    1.8888011    0.8310761  
H   -0.0229599   -0.0187323    5.5027230  
H    3.3143982    2.7817323    3.1139444  
H    2.0889452    1.7545833    5.0442112  
