62

C    0.1046302   -2.9236111   -9.5666395  
C    0.2794419   -2.4550866  -10.8481977  
C   -0.0211977   -1.0609050  -10.8264448  
C   -0.3760256   -0.7324017   -9.4929868  
N   -0.2910623   -1.8866076   -8.7546048  
C   -0.7338938    0.5615265   -9.1025138  
C   -0.7332651    1.5417499  -10.0758277  
O   -1.0742980    2.8223542   -9.7490812  
C   -0.3825858    1.2335306  -11.4118070  
O   -0.4304563    2.3179261  -12.2633569  
C   -0.0296956   -0.0427975  -11.7977882  
H    0.5848862   -3.0457671  -11.6948351  
H   -0.4752043   -1.9608383   -7.7704495  
H   -1.0097163    3.3383095  -10.5632577  
H   -0.1799266    2.0239837  -13.1445126  
H    0.2339376   -0.2487478  -12.8285940  
H    0.2295089   -3.9157472   -9.1678546  
C    0.9070721   -0.7042925   -5.2310448  
C    0.0950446    0.0004351   -4.4015596  
C   -0.8184768    0.7430225   -5.2375492  
C   -0.4696132    0.4107475   -6.6320662  
N    0.5842462   -0.4707050   -6.5591865  
C   -1.1031226    0.9106725   -7.7231417  
C   -2.2017459    1.8380503   -7.5097580  
O   -2.8350879    2.3428870   -8.4275373  
C   -2.5881745    2.2042621   -6.0413008  
O   -3.5112398    2.9842135   -5.8492396  
C   -1.8314683    1.6007480   -4.9472170  
H   -2.1054515    1.8593460   -3.9334203  
H    1.7143130   -1.3744693   -4.9838303  
H    1.0462412   -0.8826050   -7.3490886  
C    3.3321173    0.0004713   -1.3379338  
C    2.6974181    0.0000116   -2.5332314  
C    1.2800438   -0.0002119   -2.2052841  
C    1.2395034    0.0000643   -0.7271299  
N    2.4394062    0.0005460   -0.2131038  
C    0.0000000    0.0000000    0.0000000  
C   -1.1468702    0.0000634   -0.7169543  
O   -2.3742203    0.0000074   -0.1695487  
C   -1.1388770    0.0001607   -2.2096355  
O   -2.2206234    0.0000905   -2.7970411  
C    0.1454522    0.0001815   -2.9324241  
H    3.1367984   -0.0000653   -3.5160950  
H   -2.9844346    0.0001026   -0.9290167  
H    4.3940038    0.0007618   -1.1498640  
C    2.5311839    2.1237619    3.0120429  
C    1.9795631    1.6616747    1.8395852  
C    0.9223175    0.7739173    2.1983588  
C    0.8753926    0.7337535    3.6154372  
N    1.8668922    1.5631002    4.0777464  
C   -0.0496243   -0.0427881    4.3197917  
C   -0.9437528   -0.7922060    3.5801400  
O   -1.8685244   -1.5680278    4.2172520  
C   -0.9124520   -0.7656372    2.1655264  
O   -1.8671164   -1.5663939    1.5732860  
C    0.0000000    0.0000000    1.4700000  
H    2.3005065    1.9304404    0.8477417  
H    2.0679347    1.7444845    5.0445261  
H   -0.0904770   -0.0778569    5.3997470  
H   -2.3849669   -2.0011402    3.5251786  
H   -1.7775064   -1.4909735    0.6183591  
H    3.3468514    2.8078103    3.1724291  
