62

C    8.3414247    0.7063053   -3.8944707  
C    9.5968741    0.4549335   -4.3975871  
C   10.2305554   -0.4548842   -3.5002136  
C    9.3053662   -0.7254841   -2.4596714  
N    8.1695290   -0.0029515   -2.7288137  
C    9.5938661   -1.5857426   -1.3959459  
C   10.8389086   -2.1839618   -1.3825548  
O   11.1726254   -3.0330665   -0.3673376  
C   11.7757204   -1.9262487   -2.4115276  
O   12.9710299   -2.5973229   -2.2558375  
C   11.4918882   -1.0774850   -3.4610824  
H   10.0060677    0.8764279   -5.2997501  
H    8.8931343   -1.7960282   -0.5997315  
H   12.0722300   -3.3349995   -0.5484860  
H   13.5465665   -2.3682411   -2.9919645  
H   12.2296411   -0.8993068   -4.2346789  
H    7.5555175    1.3365202   -4.2741246  
C    5.6726969   -0.0000653   -2.3740975  
C    6.9488241   -0.0023522   -1.9098032  
C    6.8722129   -0.0037731   -0.4679420  
C    5.4365529   -0.0021439   -0.1278407  
N    4.7630507    0.0004755   -1.3275395  
C    4.9461563   -0.0032006    1.1375503  
C    5.8957026   -0.0059129    2.2379545  
O    5.5533672   -0.0069811    3.4131592  
C    7.4209169   -0.0074219    1.9010196  
O    8.2297926   -0.0094000    2.8191572  
C    7.8277290   -0.0063535    0.4980390  
H    3.8892549   -0.0020998    1.3652977  
H    8.8856422   -0.0076158    0.2732212  
H    5.3202459    0.0014871   -3.3927562  
C    3.3003548    0.0005276   -1.4738982  
C    2.5232817    0.0003497   -2.6090743  
C    1.1623204   -0.0001319   -2.1820101  
C    1.1711886    0.0000583   -0.7636140  
N    2.4852302   -0.0014919   -0.3662356  
C    0.0000000    0.0000000    0.0000000  
C   -1.2020379    0.0000520   -0.6806479  
O   -2.3759249    0.0003495    0.0157742  
C   -1.2314652   -0.0005112   -2.0955511  
O   -2.5054384   -0.0008036   -2.6250184  
C   -0.0764510   -0.0007271   -2.8495195  
H    2.8919962   -0.0005619   -3.6205297  
H    2.8036267    0.0088181    0.5858667  
H   -3.0835636    0.0000348   -0.6418823  
H   -2.4360038   -0.0011526   -3.5845925  
H   -0.1304090   -0.0013420   -3.9319089  
C    2.4951002    2.0940188    2.9809380  
C    1.9440701    1.6314916    1.8291961  
C    0.8759964    0.7350050    2.2038498  
C    0.8497377    0.7130254    3.6788474  
N    1.8560616    1.5571714    4.0882609  
C   -0.0205033   -0.0168748    4.4215661  
C   -0.9962600   -0.8356168    3.7214979  
O   -1.8224391   -1.5286685    4.3006425  
C   -0.9864710   -0.8277881    2.1595606  
O   -1.8030528   -1.5133726    1.5592035  
C    0.0000000    0.0000000    1.4700000  
H    2.2509283    1.8888011    0.8310761  
H   -0.0229599   -0.0187323    5.5027230  
H    3.3143982    2.7817323    3.1139444  
H    2.0889452    1.7545833    5.0442112  
