62

C    1.9507171   -3.1051831   -9.9922110  
C    2.2383126   -2.3044352  -11.0732106  
C    1.8423110   -0.9787249  -10.7264028  
C    1.3157464   -1.0324546   -9.4104363  
N    1.3946798   -2.3385218   -8.9950144  
C    0.8277617    0.0958840   -8.7444689  
C    0.8724299    1.3004583   -9.4191421  
O    0.4093257    2.4336475   -8.8154603  
C    1.3937807    1.3742445  -10.7327500  
O    1.3693268    2.6447514  -11.2699248  
C    1.8751120    0.2614693  -11.3904557  
H    2.6782701   -2.6353405  -11.9983766  
H    1.1047997   -2.6802932   -8.0966027  
H    0.5310114    3.1508778   -9.4511009  
H    1.7384666    2.6068257  -12.1575625  
H    2.2683089    0.3488301  -12.3965584  
H    2.0969106   -4.1627857   -9.8541477  
C    2.0818086   -2.1200044   -5.0693006  
C    2.0013922   -1.6205814   -6.3485880  
C    0.8747655   -0.7464877   -6.3842578  
C    0.3022093   -0.7523126   -5.0865395  
N    1.0583530   -1.5979707   -4.3134121  
C   -0.8287665    0.0000939   -4.7555305  
C   -1.3918308    0.7726859   -5.7526456  
O   -2.4970631    1.5271116   -5.4837280  
C   -0.8353008    0.7914353   -7.0536990  
O   -1.5105881    1.6099590   -7.9353732  
C    0.2802630    0.0492103   -7.3810303  
H    2.6715814   -1.8580190   -7.1569591  
H    0.8985640   -1.7948529   -3.3419770  
H   -2.7238718    1.9817206   -6.3054050  
H   -1.0706022    1.5652576   -8.7897836  
H    2.7873940   -2.8084002   -4.6366114  
C    1.0672569   -0.0000698   -0.8321910  
C    0.0000000    0.0000000    0.0000000  
C   -1.1601223   -0.0000736   -0.8778472  
C   -0.5938729   -0.0000768   -2.2438435  
N    0.7113367   -0.0001553   -2.2234123  
C   -1.4286985   -0.0001877   -3.4135239  
C   -2.7683113   -0.0006798   -3.2270524  
O   -3.6653902   -0.0008302   -4.2276970  
C   -3.3702024   -0.0010610   -1.8610774  
O   -4.5974910   -0.0013779   -1.7662963  
C   -2.4926825   -0.0008943   -0.6770658  
H   -4.5324245   -0.0012258   -3.7833954  
H   -2.9677772   -0.0012974    0.2947961  
H    2.1134391   -0.0000547   -0.5705119  
C    2.3971438    2.0127888    3.1728260  
C    1.9431056    1.6308205    1.9564670  
C    0.8496017    0.7127664    2.2356185  
C    0.7794028    0.6545384    3.7115134  
N    1.6840587    1.4146091    4.2663826  
C   -0.1885723   -0.1578550    4.3957118  
C   -1.0476298   -0.8789867    3.6398520  
O   -2.0015663   -1.6796266    4.1448486  
C   -1.0022026   -0.8410666    2.1483229  
O   -1.8147390   -1.5232959    1.5241687  
C    0.0000000    0.0000000    1.4700000  
H    2.3054237    1.9346118    0.9892483  
H   -0.2170646   -0.1815267    5.4753125  
H   -2.4487139   -2.0549881    3.3649027  
H    3.2048689    2.6911772    3.3971983  
