60

C    6.6256384   -3.3902358   -4.6924893  
C    6.0845267   -2.1262219   -4.6484993  
C    6.9171646   -1.2887976   -5.4485216  
C    7.9591820   -2.1042075   -5.9596308  
N    7.7532179   -3.3737855   -5.4796629  
C    8.9674811   -1.6093616   -6.7922460  
C    8.9228888   -0.2669737   -7.1150215  
O    9.8824894    0.2682311   -7.9247981  
C    7.8914735    0.5628498   -6.6146303  
O    7.9858658    1.8762755   -7.0261460  
C    6.8965882    0.0754085   -5.7929669  
H    8.3281635   -4.1713865   -5.6827689  
H    9.7645019   -2.2255800   -7.1849728  
H    9.6670264    1.2050047   -8.0212110  
H    7.2523552    2.3680636   -6.6444272  
H    6.1196259    0.7352260   -5.4249341  
H    6.2972830   -4.3019217   -4.2234801  
C    4.4889027   -2.1447426   -2.6754911  
C    4.8757512   -1.7386739   -3.9071713  
C    3.8306321   -0.8272354   -4.3470646  
C    2.8651831   -0.7989832   -3.2273794  
N    3.2457607   -1.5692932   -2.2446421  
C    1.6707636   -0.0012343   -3.2725974  
C    1.4510169    0.7351291   -4.3856180  
O    0.3782656    1.5248306   -4.5634278  
C    2.4067067    0.7280663   -5.5322517  
O    2.1427791    1.4226352   -6.5136471  
C    3.6247812   -0.0985266   -5.4618018  
H    0.5021831    1.9161680   -5.4469733  
H    4.2917393   -0.0759844   -6.3132055  
H    4.9956247   -2.8269105   -2.0115233  
C    1.0965514    0.0001358   -0.8010306  
C    0.0000000    0.0000000    0.0000000  
C   -1.1546565    0.0001470   -0.8669508  
C   -0.6372019    0.0003520   -2.2486278  
N    0.7342867    0.0007338   -2.1395012  
C   -1.4147744    0.0001354   -3.3608712  
C   -2.8576052   -0.0001047   -3.1854454  
O   -3.6427785   -0.0002490   -4.1244896  
C   -3.4275841   -0.0000727   -1.7311660  
O   -4.6406832    0.0000333   -1.5710049  
C   -2.4891868   -0.0001090   -0.6116739  
H   -1.0150456    0.0001617   -4.3654239  
H   -2.8919122   -0.0002919    0.3920871  
H    2.1388270    0.0000663   -0.5261650  
C    0.8175213    0.6860729    2.3021913  
C    0.0000000    0.0000000    1.4700000  
C   -0.8887526   -0.7456559    2.3478473  
C   -0.4549825   -0.3816753    3.7138435  
N    0.5448156    0.4573574    3.6934124  
C   -1.0945674   -0.9182058    4.8835240  
C   -2.1210866   -1.7789155    4.6970523  
O   -2.8083856   -2.3554314    5.6976972  
C   -2.5824069   -2.1655116    3.3310774  
O   -3.5227682   -2.9541547    3.2362962  
C   -1.9100805   -1.6015804    2.1470656  
H   -0.7567140   -0.6349833    5.8697035  
H   -3.4728268   -2.9124471    5.2533954  
H   -2.2742832   -1.9066565    1.1752040  
H    1.6189533    1.3585343    2.0405121  
