64

C    7.0615270    0.5485825   -5.0802190  
C    7.6387494   -0.2917721   -4.1565927  
C    9.0447223   -0.2709618   -4.3961898  
C    9.2680351    0.6074146   -5.4872961  
N    8.0427809    1.0862310   -5.8798580  
C   10.5427817    0.8704075   -5.9978295  
C   11.6115947    0.2353468   -5.3957381  
O   12.8780345    0.4566028   -5.8542033  
C   11.4090018   -0.6448235   -4.3062092  
O   12.5731340   -1.1995415   -3.8158751  
C   10.1516855   -0.9049503   -3.8022077  
H    7.1112247   -0.8518347   -3.4035715  
H    7.8869150    1.7393735   -6.6262433  
H   10.7196456    1.5387098   -6.8292706  
H   13.4651811   -0.0763369   -5.3023884  
H   12.3479780   -1.7804939   -3.0827974  
H   10.0275591   -1.5840236   -2.9667857  
C    3.4023862   -0.7104236   -3.0044222  
C    2.4861704   -0.0045255   -3.7159919  
C    3.2127707    0.7364518   -4.7199045  
C    4.6376141    0.4019562   -4.5335595  
N    4.6849737   -0.4791136   -3.4779259  
C    5.6494136    0.8999189   -5.2885429  
C    5.3126167    1.8273767   -6.3557474  
O    6.1522969    2.3305377   -7.0906400  
C    3.8100590    2.1959219   -6.5709211  
O    3.5143918    2.9759613   -7.4661189  
C    2.8092700    1.5944060   -5.6931667  
H    1.7711121    1.8546128   -5.8488731  
H    3.2485511   -1.3799907   -2.1738176  
H    5.5220932   -0.8922055   -3.1096434  
C    0.0000000    0.0000000    0.0000000  
C    1.0521669   -0.0011848   -0.8862341  
C    0.4917221   -0.0011931   -2.1979130  
C   -0.9187427    0.0003100   -2.0478683  
N   -1.1833170   -0.0009472   -0.7007915  
C   -1.7951698    0.0010259   -3.1372090  
C   -1.2375835    0.0005161   -4.4010425  
O   -2.0474208    0.0015256   -5.4997580  
C    0.1673584   -0.0013557   -4.5711962  
O    0.5673529   -0.0020659   -5.8915551  
C    1.0325773   -0.0023359   -3.4969890  
H    2.0953059   -0.0030542   -0.6200560  
H   -2.0989777    0.0102265   -0.2891825  
H   -2.8710930    0.0020274   -3.0295514  
H   -1.4634881    0.0006427   -6.2693593  
H    1.5290715   -0.0033076   -5.9180042  
C    1.1243417   -0.0099156    2.2619005  
C    0.7474090   -0.0234034    3.5848544  
C   -0.6787367   -0.0234952    3.6114698  
C   -1.1201739   -0.0099357    2.2635546  
N    0.0000000    0.0000000    1.4700000  
C   -2.4730812   -0.0065396    1.9108239  
C   -3.3971947   -0.0173298    2.9375057  
O   -4.7313508   -0.0149487    2.6493466  
C   -2.9763630   -0.0305536    4.2886322  
O   -4.0166453   -0.0397858    5.1947621  
C   -1.6418541   -0.0336380    4.6373480  
H    1.4178735   -0.0310004    4.4271209  
H   -2.8160170    0.0039190    0.8854031  
H   -5.1938803   -0.0234410    3.4974381  
H   -3.6464643   -0.0484781    6.0827341  
H   -1.3497443   -0.0436789    5.6809233  
H    2.1062470   -0.0051382    1.8205408  
