62

C    7.0548980    0.0018860   -6.2721684  
C    7.7013543    0.0022477   -5.0578530  
C    9.1012669    0.0027060   -5.3314308  
C    9.2496743    0.0028870   -6.7420702  
N    7.9877790    0.0004276   -7.2826535  
C   10.4982879    0.0036366   -7.3711574  
C   11.6174731    0.0045210   -6.5614652  
O   12.8613198    0.0056284   -7.1234777  
C   11.4898850    0.0039812   -5.1520193  
O   12.6973186    0.0045705   -4.4846025  
C   10.2584151    0.0029684   -4.5307234  
H    7.2227987    0.0010833   -4.0935004  
H    7.7768728    0.0105154   -8.2641815  
H   10.6181435    0.0036343   -8.4457918  
H   13.4917000    0.0058044   -6.3914360  
H   12.5219496    0.0041756   -3.5386378  
H   10.1920646    0.0023932   -3.4490236  
C    3.2973507   -0.0000930   -3.8752373  
C    4.6109363    0.0001680   -4.2009254  
C    4.6367196   -0.0000873   -5.6555165  
C    3.2125800   -0.0006165   -6.0535231  
N    2.4227569   -0.0005415   -5.0142109  
C    2.8079502   -0.0009500   -7.4324215  
C    3.7817678   -0.0003743   -8.3710445  
O    3.5485418   -0.0006025   -9.6945417  
C    5.2278981    0.0005395   -8.0010881  
O    6.0602363    0.0009038   -8.9079694  
C    5.6174389    0.0008224   -6.5797565  
H    5.4578085    0.0005838   -3.5361826  
H    1.7599988   -0.0015416   -7.6945430  
H    4.4333818   -0.0000277  -10.1022329  
C    3.3321175    0.0004715   -1.3379331  
C    2.6974186    0.0000117   -2.5332308  
C    1.2800441   -0.0002117   -2.2052838  
C    1.2395036    0.0000644   -0.7271292  
N    2.4394065    0.0005460   -0.2131033  
C    0.0000000    0.0000000    0.0000000  
C   -1.1468701    0.0000635   -0.7169542  
O   -2.3742199    0.0000073   -0.1695491  
C   -1.1388766    0.0001607   -2.2096354  
O   -2.2206227    0.0000905   -2.7970412  
C    0.1454526    0.0001817   -2.9324239  
H   -2.9844344    0.0001026   -0.9290168  
H    0.1083579    0.0003683   -4.0135594  
H    4.3940038    0.0007619   -1.1498630  
C    0.8576279    0.7185626    2.2703808  
C    0.0000000    0.0000000    1.4700000  
C   -0.8668858   -0.7285659    2.3373528  
C   -0.4876752   -0.4117774    3.6669281  
N    0.5635254    0.4678311    3.5902241  
C   -1.1297612   -0.9515493    4.7854808  
C   -2.1738724   -1.8268314    4.5576857  
O   -2.8357962   -2.3827064    5.6140350  
C   -2.5667212   -2.1555554    3.2384331  
O   -3.6226318   -3.0413663    3.1773122  
C   -1.9335634   -1.6236449    2.1344818  
H    1.0363952    0.8769718    4.3757045  
H   -0.8454472   -0.7142436    5.8013813  
H   -3.5178062   -2.9546422    5.2385129  
H   -3.8247440   -3.2102924    2.2519915  
H   -2.2566033   -1.8942483    1.1360343  
H    1.6567807    1.3889844    2.0042067  
