62

C    5.0669477   -0.9824491   -8.7276487  
C    5.4521472   -0.5677059   -9.9814742  
C    5.2020960    0.8348692  -10.0511694  
C    4.6598759    1.2236757   -8.7994686  
N    4.5894920    0.0958017   -8.0200047  
C    4.2933941    2.5416429   -8.5106026  
C    4.4779199    3.4843394   -9.5033022  
O    4.1373165    4.7861014   -9.2743527  
C    5.0171575    3.1158256  -10.7587855  
O    5.1389423    4.1686073  -11.6420543  
C    5.3786702    1.8157583  -11.0445472  
H    5.8618225   -1.1986830  -10.7515573  
H    3.8794788    2.8443923   -7.5586483  
H    4.3439908    5.2690586  -10.0850950  
H    5.5103355    3.8344138  -12.4642370  
H    5.7890231    1.5634623  -12.0153387  
H    5.0936743   -1.9623535   -8.2826419  
C    5.9953298   -2.1198587   -4.4000425  
C    5.8617355   -1.6205583   -5.6749221  
C    4.7347034   -0.7463313   -5.6637107  
C    4.2167179   -0.7519520   -4.3432613  
N    5.0043209   -1.5976220   -3.6022211  
C    3.1006054    0.0006263   -3.9654951  
C    2.4965723    0.7731834   -4.9383657  
O    1.4035938    1.5277714   -4.6237102  
C    2.9984077    0.7917304   -6.2614812  
O    2.2870645    1.6102452   -7.1143401  
C    4.0992761    0.0493358   -6.6349318  
H    6.4976311   -1.8581611   -6.5104917  
H    4.8851262   -1.7943842   -2.6249501  
H    1.1427970    1.9823229   -5.4352719  
H    2.6910609    1.5654018   -7.9863372  
H    6.7182510   -2.8082954   -3.9970553  
C    3.2798083    0.0005857   -1.4499652  
C    2.5571142    0.0005565   -2.5996556  
C    1.1637432    0.0001548   -2.2210361  
C    1.1336964   -0.0000200   -0.7459473  
N    2.4483512   -0.0001428   -0.3402723  
C    0.0000000    0.0000000    0.0000000  
C   -1.2757368   -0.0000186   -0.6964415  
O   -2.3524598   -0.0000639   -0.1142311  
C   -1.2676497   -0.0000872   -2.2584083  
O   -2.3355766   -0.0004101   -2.8557295  
C    0.0181558    0.0001758   -2.9516296  
H    0.0150788    0.0003319   -4.0331631  
H    4.3498547    0.0008612   -1.3200026  
H    2.7563626    0.0012823    0.6148059  
C    2.5128556    2.1077716    2.9199648  
C    1.9592212    1.6432552    4.0696553  
C    0.8915788    0.7479214    3.6910360  
C    0.8684491    0.7287414    2.2159470  
N    1.8754542    1.5738793    1.8102719  
C    0.0000000    0.0000000    1.4700000  
C   -0.9772830   -0.8200135    2.1664417  
O   -1.8021297   -1.5120829    1.5842315  
C   -0.9711318   -0.8147624    3.7284083  
O   -1.7894187   -1.5009653    4.3257297  
C    0.0140216    0.0115358    4.4216297  
H    2.2638494    1.8988021    5.0689105  
H    0.0117648    0.0094386    5.5031631  
H    3.3327358    2.7953732    2.7900019  
H    2.1123206    1.7707734    0.8551938  
