60

C   -6.3769111    2.4149630   -0.7482224  
C   -6.3595653    1.1123801   -1.1903132  
C   -7.5256035    0.4793864   -0.6666021  
C   -8.2221602    1.4535225    0.0935252  
N   -7.4964281    2.6167866    0.0246274  
C   -9.4220189    1.1792296    0.7567702  
C   -9.9280789   -0.1017014    0.6504887  
O  -11.0967253   -0.4235897    1.2779192  
C   -9.2474839   -1.0875175   -0.1030189  
O   -9.8787262   -2.3142166   -0.1122495  
C   -8.0636103   -0.8177008   -0.7573648  
H   -7.7500308    3.4856329    0.4591080  
H   -9.9576974    1.9172196    1.3378214  
H  -11.2671667   -1.3531412    1.0775519  
H   -9.3544620   -2.9220663   -0.6425977  
H   -7.5649261   -1.5932491   -1.3268527  
H   -5.6785437    3.2156447   -0.9218636  
C   -3.9842745    0.7276660   -1.9452914  
C   -5.3215475    0.5113816   -2.0401478  
C   -5.5219108   -0.4154368   -3.1290451  
C   -4.1821416   -0.7236113   -3.6646171  
N   -3.2941076    0.0012878   -2.9038237  
C   -3.9439115   -1.5640342   -4.7031937  
C   -5.0830927   -2.2078593   -5.3358780  
O   -4.9725191   -2.9811841   -6.2782386  
C   -6.5111098   -1.8958617   -4.7852141  
O   -7.4778756   -2.4317610   -5.3100340  
C   -6.6412648   -0.9729317   -3.6604425  
H   -2.9532728   -1.7765304   -5.0805396  
H   -7.6334407   -0.7623650   -3.2849791  
H   -3.4449077    1.3567548   -1.2559294  
C    0.0000000    0.0000000    0.0000000  
C    1.0541688   -0.0001723   -0.8560392  
C    0.5103136   -0.0000455   -2.1935956  
C   -0.9576373    0.0002461   -2.0455730  
N   -1.2018460   -0.0001389   -0.6915968  
C   -1.8348314    0.0008319   -3.0810607  
C   -1.2972851    0.0009739   -4.4314603  
O   -2.0050676    0.0014268   -5.4301316  
C    0.2542619    0.0004184   -4.6117572  
O    0.7184666    0.0002257   -5.7439122  
C    1.0974551    0.0000873   -3.4189129  
H    2.0940752   -0.0005484   -0.5817983  
H    2.1707276   -0.0000912   -3.5523673  
H   -2.1128194    0.0014915   -0.2706789  
C    1.1319247   -0.0015655    2.2709268  
C    0.7969915   -0.0034943    3.5869401  
C   -0.6453339   -0.0035710    3.6542670  
C   -1.1266833   -0.0015433    2.2596025  
N    0.0000000    0.0000000    1.4700000  
C   -2.4346130   -0.0013964    1.8976294  
C   -3.4350110   -0.0031408    2.9520183  
O   -4.6384611   -0.0030974    2.7283916  
C   -2.9478959   -0.0050506    4.4361073  
O   -3.7809380   -0.0062218    5.3323774  
C   -1.5113823   -0.0053090    4.7012123  
H    1.4821238   -0.0045407    4.4159191  
H   -2.7664565   -0.0000232    0.8686553  
H   -1.1823530   -0.0068408    5.7314848  
H    2.1104316   -0.0009391    1.8188057  
