60

C    5.0852554   -4.3488502    0.7275530  
C    4.6132698   -3.5162637   -0.2606250  
C    5.5585190   -3.5592890   -1.3279828  
C    6.5948460   -4.4425871   -0.9308212  
N    6.2771961   -4.9028403    0.3229269  
C    7.6986911   -4.7261094   -1.7407148  
C    7.7572896   -4.1068987   -2.9741336  
O    8.8129188   -4.3484855   -3.8049739  
C    6.7332535   -3.2221316   -3.3880822  
O    6.9363182   -2.6848953   -4.6424687  
C    5.6441270   -2.9417550   -2.5895087  
H    3.7005719   -2.9469888   -0.2170202  
H    6.8227526   -5.5545412    0.8573751  
H    8.4919321   -5.3982666   -1.4437702  
H    8.6590811   -3.8239608   -4.6015112  
H    6.2003174   -2.0994662   -4.8453956  
H    4.6666886   -4.5902456    1.6895763  
C    4.6014569   -2.0165232   -3.0560759  
C    3.4769382   -1.6328847   -2.4081112  
C    2.8127343   -0.7151039   -3.3208056  
C    3.6989105   -0.6588457   -4.5032229  
N    4.7490138   -1.4197422   -4.3538640  
C    3.3894076    0.1527205   -5.6480612  
C    2.2463729    0.8749431   -5.6134072  
O    1.8335177    1.6749946   -6.6111594  
C    1.3311611    0.8390159   -4.4347392  
O    0.3078539    1.5221556   -4.4719311  
C    1.6707636   -0.0012343   -3.2725974  
H    3.1397616   -1.9354141   -1.4314516  
H    4.0552368    0.1749493   -6.4984067  
H    0.9923250    2.0514417   -6.2951915  
C    1.0965514    0.0001358   -0.8010306  
C    0.0000000    0.0000000    0.0000000  
C   -1.1546565    0.0001470   -0.8669508  
C   -0.6372019    0.0003520   -2.2486278  
N    0.7342867    0.0007338   -2.1395012  
C   -1.4147744    0.0001354   -3.3608712  
C   -2.8576052   -0.0001047   -3.1854454  
O   -3.6427785   -0.0002490   -4.1244896  
C   -3.4275841   -0.0000727   -1.7311660  
O   -4.6406832    0.0000333   -1.5710049  
C   -2.4891868   -0.0001090   -0.6116739  
H   -1.0150456    0.0001617   -4.3654239  
H   -2.8919122   -0.0002919    0.3920871  
H    2.1388270    0.0000663   -0.5261650  
C    0.8175213    0.6860729    2.3021913  
C    0.0000000    0.0000000    1.4700000  
C   -0.8887526   -0.7456559    2.3478473  
C   -0.4549825   -0.3816753    3.7138435  
N    0.5448156    0.4573574    3.6934124  
C   -1.0945674   -0.9182058    4.8835240  
C   -2.1210866   -1.7789155    4.6970523  
O   -2.8083856   -2.3554314    5.6976972  
C   -2.5824069   -2.1655116    3.3310774  
O   -3.5227682   -2.9541547    3.2362962  
C   -1.9100805   -1.6015804    2.1470656  
H   -0.7567140   -0.6349833    5.8697035  
H   -3.4728268   -2.9124471    5.2533954  
H   -2.2742832   -1.9066565    1.1752040  
H    1.6189533    1.3585343    2.0405121  
