60

C    4.8833646    0.1895904   -7.9802429  
C    5.9729944   -0.4677663   -8.5027899  
C    6.0768040   -0.0791638   -9.8712975  
C    5.0144374    0.8246429  -10.1290514  
N    4.3080610    0.9642018   -8.9602187  
C    4.8080447    1.4118986  -11.3809786  
C    5.6903548    1.0809689  -12.3910257  
O    5.5352104    1.6258845  -13.6328028  
C    6.7562843    0.1808663  -12.1534840  
O    7.5478074   -0.0477625  -13.2600844  
C    6.9603388   -0.3990627  -10.9187495  
H    6.6134996   -1.1450106   -7.9641934  
H    3.5037786    1.5518977   -8.8348201  
H    4.0001802    2.1013731  -11.5839133  
H    6.2464037    1.2669552  -14.1792814  
H    8.2429360   -0.6658412  -13.0143635  
H    7.7854355   -1.0850793  -10.7668459  
C    6.1812373   -2.0122605   -4.4510963  
C    5.2702187   -1.6303461   -3.5260204  
C    4.3856200   -0.7126510   -4.2273195  
C    4.9238565   -0.6545500   -5.6033682  
N    5.9763881   -1.4143797   -5.7405736  
C    4.3191902    0.1574946   -6.6231959  
C    3.2262690    0.8784138   -6.2838837  
O    2.5612864    1.6787220   -7.1343809  
C    2.6590319    0.8406141   -4.9036753  
O    1.6623422    1.5226360   -4.6656073  
C    3.2973506   -0.0000934   -3.8752374  
H    5.2063283   -1.9339562   -2.4950917  
H    1.8346675    2.0540005   -6.6049052  
H    7.0103754   -2.6904142   -4.3261564  
C    3.3321174    0.0004714   -1.3379332  
C    2.6974186    0.0000115   -2.5332308  
C    1.2800441   -0.0002119   -2.2052838  
C    1.2395035    0.0000643   -0.7271293  
N    2.4394063    0.0005458   -0.2131034  
C    0.0000000    0.0000000    0.0000000  
C   -1.1468701    0.0000634   -0.7169542  
O   -2.3742201    0.0000072   -0.1695492  
C   -1.1388767    0.0001606   -2.2096354  
O   -2.2206229    0.0000903   -2.7970413  
C    0.1454526    0.0001815   -2.9324239  
H   -2.9844344    0.0001023   -0.9290168  
H    0.1083580    0.0003680   -4.0135594  
H    4.3940040    0.0007617   -1.1498630  
C    0.8175213    0.6860729    2.3021913  
C    0.0000000    0.0000000    1.4700000  
C   -0.8887526   -0.7456559    2.3478473  
C   -0.4549825   -0.3816753    3.7138435  
N    0.5448156    0.4573574    3.6934124  
C   -1.0945674   -0.9182058    4.8835240  
C   -2.1210866   -1.7789155    4.6970523  
O   -2.8083856   -2.3554314    5.6976972  
C   -2.5824069   -2.1655116    3.3310774  
O   -3.5227682   -2.9541547    3.2362962  
C   -1.9100805   -1.6015804    2.1470656  
H   -0.7567140   -0.6349833    5.8697035  
H   -3.4728268   -2.9124471    5.2533954  
H   -2.2742832   -1.9066565    1.1752040  
H    1.6189533    1.3585343    2.0405121  
