60

C    2.1440030   -2.4087544   -7.0472947  
C    3.2186351   -2.6173716   -7.8804285  
C    3.4645661   -1.3869535   -8.5588009  
C    2.5003685   -0.4558805   -8.0947396  
N    1.7131570   -1.1094228   -7.1794268  
C    2.4439089    0.8647884   -8.5501893  
C    3.3780048    1.2526954   -9.4910250  
O    3.3683440    2.5309466   -9.9695572  
C    4.3476939    0.3381525   -9.9665580  
O    5.2074713    0.8759825  -10.9019009  
C    4.4038133   -0.9649487   -9.5178891  
H    3.7581467   -3.5428761   -7.9870263  
H    1.7114355    1.5792507   -8.2005789  
H    4.0920959    2.5894257  -10.6067606  
H    5.8299512    0.1934657  -11.1707753  
H    5.1578771   -1.6427047   -9.9006594  
H    1.6498650   -3.0843970   -6.3703218  
C    0.2908560   -0.7259183   -5.1324811  
C    0.5947738   -0.5089631   -6.4380995  
C   -0.3866757    0.4179347   -6.9504009  
C   -1.2937770    0.7254250   -5.8281674  
N   -0.8287665    0.0000939   -4.7555305  
C   -2.3565462    1.5657074   -5.9065966  
C   -2.6250328    2.2100934   -7.1814363  
O   -3.5581917    2.9833442   -7.3534793  
C   -1.6774718    1.8988250   -8.3835369  
O   -1.8937523    2.4352001   -9.4618618  
C   -0.5642202    0.9759821   -8.1764506  
H   -3.0094333    1.7776982   -5.0713069  
H    0.0873206    0.7659220   -9.0137631  
H    0.7904799   -1.3552650   -4.4140186  
C    1.0672569   -0.0000698   -0.8321910  
C    0.0000000    0.0000000    0.0000000  
C   -1.1601223   -0.0000736   -0.8778472  
C   -0.5938729   -0.0000768   -2.2438435  
N    0.7113367   -0.0001553   -2.2234123  
C   -1.4286985   -0.0001877   -3.4135239  
C   -2.7683113   -0.0006798   -3.2270524  
O   -3.6653902   -0.0008302   -4.2276970  
C   -3.3702024   -0.0010610   -1.8610774  
O   -4.5974910   -0.0013779   -1.7662963  
C   -2.4926825   -0.0008943   -0.6770658  
H   -4.5324245   -0.0012258   -3.7833954  
H   -2.9677772   -0.0012974    0.2947961  
H    2.1134391   -0.0000547   -0.5705119  
C    0.8400945    0.7047457    2.2710304  
C    0.0000000    0.0000000    1.4700000  
C   -0.8844236   -0.7423113    2.3369512  
C   -0.4878984   -0.4098547    3.7186280  
N    0.5629682    0.4714286    3.6095011  
C   -1.0836927   -0.9095027    4.8308716  
C   -2.1891196   -1.8367527    4.6554461  
O   -2.7906899   -2.3413415    5.5944904  
C   -2.6257283   -2.2031529    3.2011665  
O   -3.5549479   -2.9829990    3.0410059  
C   -1.9068976   -1.5999348    2.0816745  
H   -0.7774656   -0.6525820    5.8354244  
H   -2.2155208   -1.8586617    1.0779135  
H    1.6384792    1.3747609    1.9961646  
H    1.0518368    0.8833920    4.3830260  
