64

C    0.8680466   -1.0008105   -7.3998672  
C    1.8847708   -1.8894753   -7.1371623  
C    2.5500930   -2.1384634   -8.3740742  
C    1.8896227   -1.3673001   -9.3645352  
N    0.8720875   -0.6900681   -8.7395577  
C    2.2794884   -1.3668573  -10.7072164  
C    3.3558900   -2.1591011  -11.0563393  
O    3.7787134   -2.1957138  -12.3536029  
C    4.0275497   -2.9359061  -10.0825507  
O    5.0795328   -3.6719282  -10.5874714  
C    3.6433146   -2.9370392   -8.7578292  
H    2.1175023   -2.3077580   -6.1728654  
H    0.2369785   -0.0544946   -9.1875131  
H    1.7801834   -0.7814647  -11.4669619  
H    4.5308310   -2.8014837  -12.3786471  
H    5.4783944   -4.1672091   -9.8655229  
H    4.1769509   -3.5425163   -8.0345665  
C   -0.2208272   -0.6524174   -5.1346212  
C   -1.2456329    0.0471727   -4.5828766  
C   -1.8635343    0.7999336   -5.6488900  
C   -1.1093181    0.4792275   -6.8757132  
N   -0.1268911   -0.4059221   -6.4959277  
C   -1.3831929    0.9908187   -8.1024863  
C   -2.4948519    1.9194410   -8.2225242  
O   -2.8209726    2.4343809   -9.2840247  
C   -3.3072326    2.2735259   -6.9362630  
O   -4.2451139    3.0544078   -7.0249348  
C   -2.9168445    1.6579633   -5.6703515  
H   -0.8175714    0.7423924   -8.9897665  
H   -3.4845597    1.9082094   -4.7844623  
H    0.4738208   -1.3271517   -4.6612429  
C    1.1243410    0.0099923   -0.7919003  
C    0.7474076    0.0234544   -2.1148543  
C   -0.6787381    0.0234490   -2.1414700  
C   -1.1201745    0.0098592   -0.7935546  
N    0.0000000    0.0000000    0.0000000  
C   -2.4730816    0.0063709   -0.4408240  
C   -3.3971958    0.0170982   -1.4675058  
O   -4.7313517    0.0146259   -1.1793471  
C   -2.9763648    0.0303504   -2.8186324  
O   -4.0166480    0.0395118   -3.7247624  
C   -1.6418562    0.0335260   -3.1673481  
H    1.4178717    0.0310972   -2.9571209  
H   -2.8160166   -0.0041111    0.5845966  
H   -5.1938818    0.0230867   -2.0274384  
H   -3.6464675    0.0482293   -4.6127343  
H    2.1062467    0.0052819   -0.3505407  
C    2.5285572    2.1210227    2.9438989  
C    1.9331703    1.6216660    4.0790748  
C    0.8903039    0.7472258    3.6520102  
C    0.8972198    0.7527806    2.2336141  
N    1.9028376    1.5986179    1.8362361  
C    0.0000000    0.0000000    1.4700000  
C   -0.9207814   -0.7726952    2.1506477  
O   -1.8198395   -1.5274828    1.4542253  
C   -0.9436862   -0.7911793    3.5655508  
O   -1.9197945   -1.6098497    4.0950179  
C   -0.0590329   -0.0485852    4.3195194  
H    2.2150357    1.8593692    5.0905303  
H    2.1533708    1.7953814    0.8841339  
H   -2.3621246   -1.9821033    2.1118817  
H   -1.8668290   -1.5649508    5.0545920  
H   -0.1007624   -0.0827977    5.4019087  
H    3.3491200    2.8096064    2.8367138  
