62

C    4.3183490    0.1853854   -8.1972533  
C    5.3680812   -0.4727034   -8.7951227  
C    5.3749007   -0.0850924  -10.1678254  
C    4.2972167    0.8188918  -10.3504074  
N    3.6753623    0.9595055   -9.1346189  
C    4.0029182    1.4053418  -11.5850141  
C    4.8114461    1.0734091  -12.6547251  
O    4.5689735    1.6175089  -13.8828031  
C    5.8912548    0.1731137  -12.4925592  
O    6.6024208   -0.0565551  -13.6522326  
C    6.1820068   -0.4060209  -11.2749429  
H    6.0448995   -1.1497868   -8.3027121  
H    2.8821386    1.5475597   -8.9530452  
H    3.1829158    2.0949463  -11.7307685  
H    5.2396102    1.2579583  -14.4779805  
H    7.3130180   -0.6746961  -13.4558721  
H    7.0155875   -1.0922092  -11.1813117  
C    5.8620736   -2.0144354   -4.7672096  
C    5.0189108   -1.6315680   -3.7802610  
C    4.0871658   -0.7140652   -4.4178658  
C    4.5266949   -0.6571074   -5.8285941  
N    5.5666609   -1.4173873   -6.0393889  
C    3.8516099    0.1544280   -6.8036619  
C    2.7856461    0.8759523   -6.3883803  
O    2.0623754    1.6758899   -7.1902654  
C    2.3174897    0.8393084   -4.9714657  
O    1.3403408    1.5218322   -4.6639565  
C    3.0267438   -0.0008951   -3.9901699  
H    5.0280461   -1.9344356   -2.7471771  
H    1.3751539    2.0517831   -6.6109703  
H    6.6977803   -2.6927812   -4.7007669  
C    3.3003547    0.0005277   -1.4738986  
C    2.5232816    0.0003497   -2.6090746  
C    1.1623203   -0.0001319   -2.1820102  
C    1.1711884    0.0000584   -0.7636141  
N    2.4852301   -0.0014919   -0.3662359  
C    0.0000000    0.0000000    0.0000000  
C   -1.2020383    0.0000520   -0.6806479  
O   -2.3759248    0.0003493    0.0157745  
C   -1.2314655   -0.0005115   -2.0955511  
O   -2.5054388   -0.0008040   -2.6250184  
C   -0.0764513   -0.0007274   -2.8495195  
H    2.8036266    0.0088183    0.5858662  
H   -3.0835639    0.0000346   -0.6418822  
H   -2.4360043   -0.0011529   -3.5845924  
H   -0.1304091   -0.0013423   -3.9319089  
H    4.3715553    0.0004897   -1.3667133  
C    2.3971438    2.0127888    3.1728260  
C    1.9431056    1.6308205    1.9564670  
C    0.8496017    0.7127664    2.2356185  
C    0.7794028    0.6545384    3.7115134  
N    1.6840587    1.4146091    4.2663826  
C   -0.1885723   -0.1578550    4.3957118  
C   -1.0476298   -0.8789867    3.6398520  
O   -2.0015663   -1.6796266    4.1448486  
C   -1.0022026   -0.8410666    2.1483229  
O   -1.8147390   -1.5232959    1.5241687  
C    0.0000000    0.0000000    1.4700000  
H    2.3054237    1.9346118    0.9892483  
H   -0.2170646   -0.1815267    5.4753125  
H   -2.4487139   -2.0549881    3.3649027  
H    3.2048689    2.6911772    3.3971983  
