64

C    9.6219360   -0.7081045   -2.9630727  
C   10.9711450   -0.4568304   -3.0577434  
C   11.1503487    0.4516413   -4.1427160  
C    9.8641418    0.7215585   -4.6763305  
N    8.9591746   -0.0000700   -3.9381542  
C    9.6601711    1.5804663   -5.7605183  
C   10.7748941    2.1780115   -6.3159532  
O   10.6327636    3.0257960   -7.3761764  
C   12.0665199    1.9209619   -5.7978331  
O   13.0744598    2.5912283   -6.4597557  
C   12.2685142    1.0735307   -4.7284480  
H   11.7326339   -0.8775247   -2.4235944  
H    8.6824698    1.7902252   -6.1719837  
H   11.5213753    3.3274572   -7.6055973  
H   13.9132946    2.3626712   -6.0477807  
H   13.2696764    0.8958337   -4.3535135  
H    9.0800769   -1.3374760   -2.2780613  
C    5.5836005   -0.0008277   -1.0808164  
C    4.5679461   -0.0016854   -2.0086701  
C    5.1807168   -0.0015779   -3.2967356  
C    6.5840019   -0.0009186   -3.0900577  
N    6.7941554    0.0014756   -1.7334268  
C    7.5035523   -0.0009462   -4.1432500  
C    6.9972727   -0.0019591   -5.4284959  
O    7.8506653   -0.0023839   -6.4937351  
C    5.6003144   -0.0022527   -5.6550445  
O    5.2537724   -0.0028645   -6.9904295  
C    4.6925710   -0.0019527   -4.6165225  
H    7.6925274   -0.0081199   -1.2853004  
H    7.2981725   -0.0027882   -7.2862094  
H    4.2938963   -0.0030557   -7.0555554  
H    3.6282967   -0.0020079   -4.8209692  
H    5.5402820   -0.0002307   -0.0051390  
C    3.1301149   -0.0010311   -1.7028252  
C    2.5367768   -0.0002767   -0.4864665  
C    1.1089904    0.0001028   -0.7656183  
C    1.0177872   -0.0004148   -2.2415132  
N    2.1993578   -0.0011611   -2.7963820  
C   -0.2459209   -0.0002877   -2.9257118  
C   -1.3675319   -0.0000605   -2.1698524  
O   -2.6129313    0.0000867   -2.6748490  
C   -1.3083584    0.0000910   -0.6783232  
O   -2.3693261    0.0004206   -0.0541692  
C    0.0000000    0.0000000    0.0000000  
H    3.0096017   -0.0001007    0.4807525  
H   -0.2829630   -0.0004687   -4.0053125  
H   -3.1967441    0.0002094   -1.8949034  
C    0.8576279    0.7185626    2.2703808  
C    0.0000000    0.0000000    1.4700000  
C   -0.8668858   -0.7285659    2.3373528  
C   -0.4876752   -0.4117774    3.6669281  
N    0.5635254    0.4678311    3.5902241  
C   -1.1297612   -0.9515493    4.7854808  
C   -2.1738724   -1.8268314    4.5576857  
O   -2.8357962   -2.3827064    5.6140350  
C   -2.5667212   -2.1555554    3.2384331  
O   -3.6226318   -3.0413663    3.1773122  
C   -1.9335634   -1.6236449    2.1344818  
H    1.0363952    0.8769718    4.3757045  
H   -0.8454472   -0.7142436    5.8013813  
H   -3.5178062   -2.9546422    5.2385129  
H   -3.8247440   -3.2102924    2.2519915  
H   -2.2566033   -1.8942483    1.1360343  
H    1.6567807    1.3889844    2.0042067  
