64

C    4.7299891   -0.6048472   -7.4454823  
C    5.8190809   -0.5319058   -8.2827546  
C    5.9203763    0.8229832   -8.7170533  
C    4.8571007    1.5362997   -8.1066820  
N    4.1526244    0.6391263   -7.3428688  
C    4.6482864    2.9035961   -8.3108551  
C    5.5290641    3.5628755   -9.1461749  
O    5.3715374    4.8983605   -9.3800082  
C    6.5958666    2.8684476   -9.7646570  
O    7.3856400    3.6646219  -10.5682153  
C    6.8023092    1.5195204   -9.5639019  
H    6.4608504   -1.3543263   -8.5487437  
H    3.8397181    3.4530062   -7.8487222  
H    6.0819955    5.1558448   -9.9818515  
H    8.0815079    3.1189273  -10.9471492  
H    7.6280221    1.0145454  -10.0514228  
H    4.3185081   -1.4460998   -6.9145052  
C    2.9043671   -0.7136449   -3.3215830  
C    1.7334695    0.0049281   -3.2500363  
C    1.6178827    0.7351380   -4.4698861  
C    2.7571741    0.4192955   -5.2535852  
N    3.5185106   -0.4613564   -4.5259612  
C    2.9748791    0.9607488   -6.5241055  
C    2.0250227    1.8367711   -7.0125066  
O    2.1878105    2.3942851   -8.2476961  
C    0.8817962    2.1645717   -6.2454371  
O    0.0290273    3.0512960   -6.8698162  
C    0.6665122    1.6310020   -4.9918491  
H    4.3833664   -0.8701675   -4.8307216  
H    1.4229285    2.9664834   -8.3919534  
H   -0.7162336    3.2195065   -6.2850975  
H   -0.2185382    1.9009302   -4.4276651  
H    3.3507361   -1.3850621   -2.6082019  
C    1.1319246    0.0015678   -0.8009268  
C    0.7969914    0.0034958   -2.1169401  
C   -0.6453340    0.0035696   -2.1842669  
C   -1.1266832    0.0015410   -0.7896025  
N    0.0000000    0.0000000    0.0000000  
C   -2.4346129    0.0013913   -0.4276292  
C   -3.4350111    0.0031335   -1.4820181  
O   -4.6384614    0.0030875   -1.2583914  
C   -2.9478961    0.0050442   -2.9661074  
O   -3.7809382    0.0062135   -3.8623773  
C   -1.5113825    0.0053055   -3.2312122  
H   -2.7664565    0.0000174    0.6013448  
H   -1.1823533    0.0068381   -4.2614848  
H    2.1104316    0.0009435   -0.3488059  
C    2.5311839    2.1237619    3.0120429  
C    1.9795631    1.6616747    1.8395852  
C    0.9223175    0.7739173    2.1983588  
C    0.8753926    0.7337535    3.6154372  
N    1.8668922    1.5631002    4.0777464  
C   -0.0496243   -0.0427881    4.3197917  
C   -0.9437528   -0.7922060    3.5801400  
O   -1.8685244   -1.5680278    4.2172520  
C   -0.9124520   -0.7656372    2.1655264  
O   -1.8671164   -1.5663939    1.5732860  
C    0.0000000    0.0000000    1.4700000  
H    2.3005065    1.9304404    0.8477417  
H    2.0679347    1.7444845    5.0445261  
H   -0.0904770   -0.0778569    5.3997470  
H   -2.3849669   -2.0011402    3.5251786  
H   -1.7775064   -1.4909735    0.6183591  
H    3.3468514    2.8078103    3.1724291  
