66

C    6.1521454   -0.7542624   -3.4731113  
C    7.4410234   -0.5107901   -3.0584032  
C    8.0196319    0.3877774   -4.0030667  
C    7.0279577    0.6599733   -4.9800099  
N    5.9071179   -0.0508430   -4.6291871  
C    7.2504466    1.5109769   -6.0667853  
C    8.4966295    2.0981296   -6.1690411  
O    8.7674440    2.9378867   -7.2104261  
C    9.4992188    1.8386453   -5.2045204  
O   10.6866930    2.4981945   -5.4458545  
C    9.2805153    0.9990060   -4.1322793  
H    7.9072282   -0.9302023   -2.1833378  
H    6.4988508    1.7224197   -6.8148475  
H    9.6797909    3.2330279   -7.0930419  
H   11.3091370    2.2686803   -4.7490822  
H   10.0677719    0.8192015   -3.4095232  
H    5.3887128   -1.3751506   -3.0365020  
C    1.6478440   -0.0100107   -3.2702995  
C    3.0229497   -0.0200898   -3.3083794  
C    3.4013075   -0.0321766   -4.6836245  
C    2.2043347   -0.0285354   -5.4446566  
N    1.1584333   -0.0169575   -4.5555146  
C    2.1970126   -0.0376398   -6.8427446  
C    3.4203148   -0.0503503   -7.4842655  
O    3.4709320   -0.0592836   -8.8482193  
C    4.6254871   -0.0545466   -6.7424032  
O    5.7606900   -0.0679095   -7.5262912  
C    4.6334625   -0.0458435   -5.3631329  
H    3.6733234   -0.0199847   -2.4504707  
H    0.1857646   -0.0014344   -4.8038216  
H    1.2881770   -0.0350719   -7.4285891  
H    4.4070625   -0.0677213   -9.0866598  
H    6.5295982   -0.0698935   -6.9480352  
C    1.1188644    0.0008217   -0.8003806  
C    0.0000000    0.0000000    0.0000000  
C   -1.1323859    0.0008905   -0.8673530  
C   -0.6382659    0.0019682   -2.1969281  
N    0.7324019    0.0038478   -2.1202239  
C   -1.4770907    0.0027326   -3.3154809  
C   -2.8395470    0.0020959   -3.0876861  
O   -3.7039194    0.0024444   -4.1440354  
C   -3.3517867    0.0013946   -1.7684335  
O   -4.7300493    0.0012389   -1.7073127  
C   -2.5248543    0.0009135   -0.6644820  
H   -1.1067564    0.0036994   -4.3313814  
H   -4.5940025    0.0021851   -3.7685133  
H   -4.9934599    0.0007285   -0.7819921  
H   -2.9462578    0.0005616    0.3339655  
H    2.1619897    0.0009344   -0.5342063  
C    0.8576279    0.7185626    2.2703808  
C    0.0000000    0.0000000    1.4700000  
C   -0.8668858   -0.7285659    2.3373528  
C   -0.4876752   -0.4117774    3.6669281  
N    0.5635254    0.4678311    3.5902241  
C   -1.1297612   -0.9515493    4.7854808  
C   -2.1738724   -1.8268314    4.5576857  
O   -2.8357962   -2.3827064    5.6140350  
C   -2.5667212   -2.1555554    3.2384331  
O   -3.6226318   -3.0413663    3.1773122  
C   -1.9335634   -1.6236449    2.1344818  
H    1.0363952    0.8769718    4.3757045  
H   -0.8454472   -0.7142436    5.8013813  
H   -3.5178062   -2.9546422    5.2385129  
H   -3.8247440   -3.2102924    2.2519915  
H   -2.2566033   -1.8942483    1.1360343  
H    1.6567807    1.3889844    2.0042067  
