64

C    5.0840583   -2.3311194   -4.8349703  
C    4.7012961   -1.0255996   -5.0388769  
C    5.7589261   -0.3883109   -5.7529369  
C    6.7687167   -1.3629719   -5.9585660  
N    6.3277138   -2.5306857   -5.3870961  
C    7.9621027   -1.0851185   -6.6319288  
C    8.1392072    0.1999817   -7.1066180  
O    9.2858595    0.5254657   -7.7716451  
C    7.1434329    1.1863850   -6.9110215  
O    7.4685867    2.4174318   -7.4421912  
C    5.9660011    0.9130549   -6.2465882  
H    6.8285693   -3.4008111   -5.3844077  
H    8.7357019   -1.8234877   -6.7917982  
H    9.2064306    1.4575589   -8.0128040  
H    6.7438613    3.0253878   -7.2667861  
H    5.2216934    1.6891537   -6.1118484  
H    4.5689560   -3.1353409   -4.3381245  
C    2.8187457   -0.6703163   -3.3751030  
C    1.6628945    0.0339172   -3.2649299  
C    1.5111624    0.7878481   -4.4869776  
C    2.6817412    0.4627681   -5.3241510  
N    3.4355960   -0.4257738   -4.5926554  
C    2.9084913    0.9739989   -6.5606511  
C    1.9347547    1.9068213   -7.1030670  
O    2.0491226    2.4217971   -8.2076122  
C    0.6876137    2.2655760   -6.2337337  
O   -0.1388156    3.0500156   -6.6797486  
C    0.5525682    1.6499645   -4.9159183  
H    3.7735880    0.7223309   -7.1582969  
H   -0.3139095    1.9034591   -4.3203673  
H    3.2719311   -1.3472108   -2.6691807  
C    1.1243410    0.0100105   -0.7919003  
C    0.7474072    0.0234665   -2.1148542  
C   -0.6787384    0.0234379   -2.1414698  
C   -1.1201748    0.0098411   -0.7935547  
N    0.0000000    0.0000000    0.0000000  
C   -2.4730818    0.0063307   -0.4408240  
C   -3.3971962    0.0170429   -1.4675058  
O   -4.7313520    0.0145490   -1.1793468  
C   -2.9763654    0.0303020   -2.8186325  
O   -4.0166484    0.0394464   -3.7247625  
C   -1.6418567    0.0334992   -3.1673480  
H   -2.8160166   -0.0041569    0.5845966  
H   -5.1938823    0.0230023   -2.0274386  
H   -3.6464680    0.0481700   -4.6127343  
H   -1.3497475    0.0435647   -4.2109234  
H    2.1062466    0.0053162   -0.3505405  
C    2.5285572    2.1210227    2.9438989  
C    1.9331703    1.6216660    4.0790748  
C    0.8903039    0.7472258    3.6520102  
C    0.8972198    0.7527806    2.2336141  
N    1.9028376    1.5986179    1.8362361  
C    0.0000000    0.0000000    1.4700000  
C   -0.9207814   -0.7726952    2.1506477  
O   -1.8198395   -1.5274828    1.4542253  
C   -0.9436862   -0.7911793    3.5655508  
O   -1.9197945   -1.6098497    4.0950179  
C   -0.0590329   -0.0485852    4.3195194  
H    2.2150357    1.8593692    5.0905303  
H    2.1533708    1.7953814    0.8841339  
H   -2.3621246   -1.9821033    2.1118817  
H   -1.8668290   -1.5649508    5.0545920  
H   -0.1007624   -0.0827977    5.4019087  
H    3.3491200    2.8096064    2.8367138  
