62

C    0.0111366    0.0270755   -8.8022236  
C    1.0127763   -0.6229073   -9.4853828  
C    0.9144299   -0.2209494  -10.8504319  
C   -0.1748842    0.6830292  -10.9406740  
N   -0.7022456    0.8098434   -9.6795540  
C   -0.5631121    1.2818497  -12.1429560  
C    0.1617067    0.9625226  -13.2747017  
O   -0.1743091    1.5190166  -14.4748764  
C    1.2515774    0.0624496  -13.2049383  
O    1.8723556   -0.1538470  -14.4178661  
C    1.6349653   -0.5288843  -12.0192480  
H    1.7258356   -1.3039321   -9.0532429  
H   -1.4798388    1.3945933   -9.4317688  
H   -1.3924865    1.9715214  -12.2184105  
H    0.4492699    1.1668714  -15.1232657  
H    2.5964412   -0.7727775  -14.2828521  
H    2.4738968   -1.2145713  -11.9967628  
C    1.5730419   -2.0888202   -5.2039074  
C    1.4267860   -1.6687787   -6.4820906  
C    0.2928031   -0.7579752   -6.4501587  
C   -0.1353497   -0.7453433   -5.0348464  
N    0.6114415   -1.5235254   -4.2995057  
C   -1.2456329    0.0471727   -4.5828766  
C   -1.8982726    0.7934561   -5.5029077  
O   -2.9511437    1.5798092   -5.2215673  
C   -1.4899798    0.8022328   -6.9386586  
O   -2.1295861    1.5052155   -7.7209247  
C   -0.3478306   -0.0192631   -7.3774794  
H    2.0157446   -1.9430547   -7.3405642  
H   -3.1964698    1.9804402   -6.0750681  
H    2.3057726   -2.7751200   -4.8101162  
C    1.1243410    0.0099923   -0.7919003  
C    0.7474076    0.0234544   -2.1148543  
C   -0.6787381    0.0234490   -2.1414700  
C   -1.1201745    0.0098592   -0.7935546  
N    0.0000000    0.0000000    0.0000000  
C   -2.4730816    0.0063709   -0.4408240  
C   -3.3971958    0.0170982   -1.4675058  
O   -4.7313517    0.0146259   -1.1793471  
C   -2.9763648    0.0303504   -2.8186324  
O   -4.0166480    0.0395118   -3.7247624  
C   -1.6418562    0.0335260   -3.1673481  
H    1.4178717    0.0310972   -2.9571209  
H   -2.8160166   -0.0041111    0.5845966  
H   -5.1938818    0.0230867   -2.0274384  
H   -3.6464675    0.0482293   -4.6127343  
H    2.1062467    0.0052819   -0.3505407  
C    0.0000000    0.0000000    1.4700000  
C    1.0662921    0.0000102    2.3034270  
C    0.4961870   -0.0000064    3.6418889  
C   -0.9663858    0.0000850    3.4240247  
N   -1.2632773    0.0000084    2.1528658  
C   -1.8985362    0.0000517    4.5177257  
C   -1.3925775   -0.0004564    5.7720543  
O   -2.1456383   -0.0005410    6.8851312  
C    0.0786232   -0.0009323    6.0245000  
O    0.4683759   -0.0012588    7.1921102  
C    1.0143166   -0.0008442    4.8859032  
H    2.1107198   -0.0000632    2.0421868  
H   -2.9622183    0.0003270    4.3293377  
H   -1.5042274   -0.0009692    7.6184419  
H    2.0724152   -0.0013148    5.1109744  
