62

C   -0.2520549   -1.1123949   -9.6153577  
C   -0.3553175   -0.7369382  -10.9347657  
C   -0.6149681    0.6655472  -10.9494602  
C   -0.6593603    1.0947895   -9.5982734  
N   -0.4370037   -0.0099613   -8.8142440  
C   -0.8953503    2.4239492   -9.2343604  
C   -1.0897723    3.3364693  -10.2530293  
O   -1.3237114    4.6474878   -9.9538389  
C   -1.0495658    2.9274344  -11.6072420  
O   -1.2622126    3.9536943  -12.5044135  
C   -0.8170744    1.6163035  -11.9669767  
H   -0.2568347   -1.3933771  -11.7823395  
H   -0.9305532    2.7574631   -8.2063871  
H   -1.4301414    5.1053691  -10.7978064  
H   -1.2188021    3.5928237  -13.3951948  
H   -0.7921648    1.3327262  -13.0126546  
H   -0.0625293   -2.0796157   -9.1823187  
C    2.1650265   -2.1089225   -5.9297630  
C    1.5723604   -1.6445161   -7.0598730  
C    0.5184572   -0.7489600   -6.6450207  
C    0.5459257   -0.7295296   -5.1700093  
N    1.5661286   -1.5747494   -4.7989582  
C   -0.2963293   -0.0005341   -4.3948471  
C   -1.2968019    0.8195082   -5.0575088  
O   -2.1011000    1.5117978   -4.4474755  
C   -1.3442162    0.8139947   -6.6187666  
O   -2.1824061    1.5002193   -7.1877951  
C   -0.3835313   -0.0125662   -7.3452196  
H    1.8425077   -1.9002757   -8.0689424  
H    2.9887828   -2.7966241   -5.8278727  
H    1.8355782   -1.7715191   -3.8525301  
C    3.1301146   -0.0010313   -1.7028256  
C    2.5367765   -0.0002766   -0.4864669  
C    1.1089901    0.0001027   -0.7656184  
C    1.0177865   -0.0004150   -2.2415133  
N    2.1993571   -0.0011612   -2.7963824  
C   -0.2459219   -0.0002879   -2.9257116  
C   -1.3675326   -0.0000606   -2.1698520  
O   -2.6129318    0.0000865   -2.6748483  
C   -1.3083588    0.0000910   -0.6783229  
O   -2.3693264    0.0004206   -0.0541685  
C    0.0000000    0.0000000    0.0000000  
H    3.0096016   -0.0001007    0.4807518  
H   -3.1967444    0.0002093   -1.8949026  
H    4.1849275   -0.0015114   -1.9271979  
C    0.0000000    0.0000000    1.4700000  
C    1.0521667    0.0011902    2.3562342  
C    0.4917218    0.0011957    3.6679131  
C   -0.9187428   -0.0003148    3.5178682  
N   -1.1833171    0.0009411    2.1707914  
C   -1.7951701   -0.0010350    4.6072090  
C   -1.2375837   -0.0005224    5.8710424  
O   -2.0474215   -0.0015360    6.9697579  
C    0.1673580    0.0013566    6.0411963  
O    0.5673524    0.0020687    7.3615553  
C    1.0325770    0.0023412    4.9669890  
H    2.0953057    0.0030649    2.0900562  
H   -2.0989778   -0.0102372    1.7591824  
H   -2.8710934   -0.0020419    4.4995513  
H   -1.4634884   -0.0006497    7.7393593  
H    1.5290710    0.0033153    7.3880045  
H    2.1042148    0.0039609    5.1284455  
