60

C    5.1910015   -2.9612688   -8.5897331  
C    5.9049378   -2.5268886   -9.6824707  
C    5.6380136   -1.1331666   -9.8270028  
C    4.7471463   -0.7697404   -8.7847932  
N    4.4946529   -1.9036220   -8.0532344  
C    4.2688977    0.5335272   -8.6187770  
C    4.6980270    1.4873571   -9.5211267  
O    4.2622674    2.7756307   -9.4050321  
C    5.5864362    1.1441322  -10.5679047  
O    5.9204199    2.2052676  -11.3838639  
C    6.0584326   -0.1414302  -10.7324490  
H    6.5391354   -3.1394610  -10.3001617  
H    3.9041831   -1.9518244   -7.2426776  
H    4.6760426    3.2697321  -10.1246968  
H    6.5228431    1.8883044  -12.0637340  
H    6.7379546   -0.3744134  -11.5438958  
H    5.1222847   -3.9421537   -8.1514408  
C    4.1680083   -0.6852559   -4.4364468  
C    3.1006054    0.0006263   -3.9654951  
C    2.5992457    0.7461593   -5.1097496  
C    3.5073877    0.3823239   -6.2185716  
N    4.4289477   -0.4565249   -5.8299206  
C    3.3454770    0.9187916   -7.5418527  
C    2.3225889    1.7793023   -7.7481421  
O    2.0538413    2.3557385   -8.9320071  
C    1.3888525    2.1657481   -6.6495260  
O    0.4799308    2.9542128   -6.9091524  
C    1.5758912    1.6018852   -5.3008232  
H    1.2721072    2.9126104   -8.7648596  
H    0.8781185    1.9068480   -4.5324863  
H    4.8160315   -1.3575814   -3.8969864  
C    3.2798083    0.0005857   -1.4499652  
C    2.5571142    0.0005565   -2.5996556  
C    1.1637432    0.0001548   -2.2210361  
C    1.1336964   -0.0000200   -0.7459473  
N    2.4483512   -0.0001428   -0.3402723  
C    0.0000000    0.0000000    0.0000000  
C   -1.2757368   -0.0000186   -0.6964415  
O   -2.3524598   -0.0000639   -0.1142311  
C   -1.2676497   -0.0000872   -2.2584083  
O   -2.3355766   -0.0004101   -2.8557295  
C    0.0181558    0.0001758   -2.9516296  
H    0.0150788    0.0003319   -4.0331631  
H    4.3498547    0.0008612   -1.3200026  
H    2.7563626    0.0012823    0.6148059  
C    0.8175213    0.6860729    2.3021913  
C    0.0000000    0.0000000    1.4700000  
C   -0.8887526   -0.7456559    2.3478473  
C   -0.4549825   -0.3816753    3.7138435  
N    0.5448156    0.4573574    3.6934124  
C   -1.0945674   -0.9182058    4.8835240  
C   -2.1210866   -1.7789155    4.6970523  
O   -2.8083856   -2.3554314    5.6976972  
C   -2.5824069   -2.1655116    3.3310774  
O   -3.5227682   -2.9541547    3.2362962  
C   -1.9100805   -1.6015804    2.1470656  
H   -0.7567140   -0.6349833    5.8697035  
H   -3.4728268   -2.9124471    5.2533954  
H   -2.2742832   -1.9066565    1.1752040  
H    1.6189533    1.3585343    2.0405121  
