62

C    0.4919318   -0.3795913   -9.6915684  
C    1.2081847   -0.2322962  -10.8567943  
C    1.1203740    1.1419840  -11.2286052  
C    0.3313612    1.7899547  -10.2439629  
N   -0.0354712    0.8369219   -9.3264774  
C    0.0359788    3.1557579  -10.2900109  
C    0.5466507    3.8807031  -11.3491820  
O    0.2891969    5.2178520  -11.4427961  
C    1.3356793    3.2520537  -12.3416797  
O    1.7699806    4.1090202  -13.3317976  
C    1.6272575    1.9046429  -12.2970351  
H    1.7288800   -1.0188537  -11.3756368  
H   -0.5648896    3.6555476   -9.5427701  
H    0.7323344    5.5257893  -12.2440870  
H    2.2952740    3.6053747  -13.9610935  
H    2.2341700    1.4508905  -13.0717903  
H    0.3143512   -1.2564462   -9.0927785  
C    0.2278664   -0.7147031   -5.1416512  
C    0.4566972   -0.4621231   -6.4744326  
C   -0.5487152    0.4543751   -6.9031252  
C   -1.3694346    0.7276158   -5.7789872  
N   -0.8712826    0.0001710   -4.7267111  
C   -2.4650420    1.5943700   -5.8352954  
C   -2.7369115    2.1964888   -7.0484392  
O   -3.7946896    3.0519731   -7.1591910  
C   -1.9298750    1.9362321   -8.1814774  
O   -2.3299487    2.6118028   -9.3158885  
C   -0.8490363    1.0810615   -8.1267245  
H    1.2499573   -0.8871153   -7.0652905  
H   -3.0945512    1.8066988   -4.9821620  
H   -3.8053476    3.3557178   -8.0761917  
H   -1.7329154    2.3806103  -10.0340143  
H    0.7608759   -1.3493368   -4.4545558  
C    1.0965514    0.0001359   -0.8010305  
C    0.0000000    0.0000000    0.0000000  
C   -1.1546563    0.0001470   -0.8669513  
C   -0.6372014    0.0003519   -2.2486282  
N    0.7342871    0.0007337   -2.1395014  
C   -1.4147739    0.0001352   -3.3608717  
C   -2.8576049   -0.0001048   -3.1854462  
O   -3.6427779   -0.0002494   -4.1244907  
C   -3.4275840   -0.0000725   -1.7311666  
O   -4.6406831    0.0000333   -1.5710060  
C   -2.4891867   -0.0001091   -0.6116744  
H   -2.8919122   -0.0002918    0.3920866  
H    2.1388272    0.0000663   -0.5261648  
H    1.3735872   -0.0006099   -2.9130262  
C    2.5528530    2.1414826    2.8079335  
C    2.0663498    1.7338582    4.0032312  
C    0.9804344    0.8229586    3.6752840  
C    0.9495562    0.7966882    2.1971295  
N    1.8690446    1.5676019    1.6831036  
C    0.0000000    0.0000000    1.4700000  
C   -0.8785127   -0.7372425    2.1869543  
O   -1.8187535   -1.5261249    1.6395491  
C   -0.8723269   -0.7321790    3.6796354  
O   -1.7010379   -1.4274584    4.2670412  
C    0.1115397    0.0933559    4.4024240  
H    2.4028853    2.0163452    4.9860947  
H   -2.2861435   -1.9184361    2.3990168  
H    0.0832434    0.0693689    5.4835595  
H    3.3664920    2.8238276    2.6198634  
