60

C    7.0833207   -3.0305128   -4.2022438  
C    7.4552970   -3.6803531   -3.0482038  
C    8.5980876   -4.4724759   -3.3662784  
C    8.8799156   -4.2634948   -4.7406246  
N    7.9400715   -3.3841799   -5.2182389  
C    9.9441614   -4.8881243   -5.3978986  
C   10.7385539   -5.7389874   -4.6541580  
O   11.7914335   -6.3746638   -5.2460800  
C   10.4731684   -5.9606378   -3.2818393  
O   11.3539415   -6.8351823   -2.6795488  
C    9.4232742   -5.3449735   -2.6328360  
H    6.9628115   -3.5949230   -2.0947088  
H    7.8928536   -3.0402834   -6.1603045  
H   10.1641690   -4.7331579   -6.4451736  
H   12.2066031   -6.9126570   -4.5594486  
H   11.1046065   -6.9294542   -1.7551308  
H    9.2445517   -5.5343846   -1.5808568  
C    5.9779324   -2.0928588   -4.4468283  
C    5.0400348   -1.6304881   -3.5804347  
C    4.1859901   -0.7341815   -4.3234535  
C    4.7069268   -0.7121366   -5.7036458  
N    5.7934739   -1.5560768   -5.7119686  
C    4.1728098    0.0176376   -6.7155012  
C    3.0072073    0.8361658   -6.4258168  
O    2.4535601    1.5290921   -7.2693975  
C    2.4388220    0.8282646   -4.9709350  
O    1.4580059    1.5136694   -4.7150422  
C    3.1006054    0.0006263   -3.9654951  
H    4.9561724   -1.8877887   -2.5395805  
H    4.5702538    0.0195463   -7.7209583  
H    6.3633292   -1.7534002   -6.5140761  
C    3.2798083    0.0005857   -1.4499652  
C    2.5571142    0.0005565   -2.5996556  
C    1.1637432    0.0001548   -2.2210361  
C    1.1336964   -0.0000200   -0.7459473  
N    2.4483512   -0.0001428   -0.3402723  
C    0.0000000    0.0000000    0.0000000  
C   -1.2757368   -0.0000186   -0.6964415  
O   -2.3524598   -0.0000639   -0.1142311  
C   -1.2676497   -0.0000872   -2.2584083  
O   -2.3355766   -0.0004101   -2.8557295  
C    0.0181558    0.0001758   -2.9516296  
H    0.0150788    0.0003319   -4.0331631  
H    4.3498547    0.0008612   -1.3200026  
H    2.7563626    0.0012823    0.6148059  
C    0.8175213    0.6860729    2.3021913  
C    0.0000000    0.0000000    1.4700000  
C   -0.8887526   -0.7456559    2.3478473  
C   -0.4549825   -0.3816753    3.7138435  
N    0.5448156    0.4573574    3.6934124  
C   -1.0945674   -0.9182058    4.8835240  
C   -2.1210866   -1.7789155    4.6970523  
O   -2.8083856   -2.3554314    5.6976972  
C   -2.5824069   -2.1655116    3.3310774  
O   -3.5227682   -2.9541547    3.2362962  
C   -1.9100805   -1.6015804    2.1470656  
H   -0.7567140   -0.6349833    5.8697035  
H   -3.4728268   -2.9124471    5.2533954  
H   -2.2742832   -1.9066565    1.1752040  
H    1.6189533    1.3585343    2.0405121  
