62

C    9.7563929   -0.7196113   -2.4184403  
C    8.7625633   -0.0019537   -3.0427301  
C    9.3782945    0.7258603   -4.1037499  
C   10.7607625    0.4095666   -4.0779735  
N   10.9565575   -0.4690353   -3.0414696  
C   11.6770153    0.9488280   -4.9859759  
C   11.1887288    1.8230808   -5.9375200  
O   12.0397643    2.3784199   -6.8487554  
C    9.8127347    2.1512974   -5.9791363  
O    9.4825168    3.0360837   -6.9848462  
C    8.9083032    1.6198905   -5.0835163  
H   11.8371898   -0.8776433   -2.7855247  
H   12.7319350    0.7118950   -4.9715363  
H   11.5016771    2.9496612   -7.4121457  
H    8.5362538    3.2047250   -6.9430059  
H    7.8603075    1.8900852   -5.1398926  
H    9.7043348   -1.3892877   -1.5771425  
C    6.7636933   -0.0010971    0.9023171  
C    5.4671766   -0.0014230    0.4424135  
C    5.5308677   -0.0015887   -0.9825579  
C    6.9040853   -0.0016365   -1.3378040  
N    7.6252192    0.0006176   -0.1696525  
C    7.3417429   -0.0020967   -2.6656758  
C    6.3755446   -0.0028233   -3.6529133  
O    6.7475672   -0.0036472   -4.9661586  
C    5.0004300   -0.0024126   -3.3184347  
O    4.1619031   -0.0028166   -4.4139788  
C    4.5679461   -0.0016854   -2.0086701  
H    4.5841349   -0.0004230    1.0582292  
H    8.6271391   -0.0094387   -0.1061168  
H    5.9304037   -0.0037547   -5.4814348  
H    3.2522420   -0.0025258   -4.1007373  
H    7.1420547   -0.0005063    1.9101867  
C    3.1301149   -0.0010311   -1.7028252  
C    2.5367768   -0.0002767   -0.4864665  
C    1.1089904    0.0001028   -0.7656183  
C    1.0177872   -0.0004148   -2.2415132  
N    2.1993578   -0.0011611   -2.7963820  
C   -0.2459209   -0.0002877   -2.9257118  
C   -1.3675319   -0.0000605   -2.1698524  
O   -2.6129313    0.0000867   -2.6748490  
C   -1.3083584    0.0000910   -0.6783232  
O   -2.3693261    0.0004206   -0.0541692  
C    0.0000000    0.0000000    0.0000000  
H    3.0096017   -0.0001007    0.4807525  
H   -0.2829630   -0.0004687   -4.0053125  
H   -3.1967441    0.0002094   -1.8949034  
C    0.0000000    0.0000000    1.4700000  
C    1.0541688    0.0001722    2.3260392  
C    0.5103138    0.0000454    3.6635956  
C   -0.9576371   -0.0002459    3.5155732  
N   -1.2018458    0.0001392    2.1615969  
C   -1.8348311   -0.0008317    4.5510609  
C   -1.2972847   -0.0009736    5.9014604  
O   -2.0050672   -0.0014265    6.9001319  
C    0.2542623   -0.0004184    6.0817573  
O    0.7184670   -0.0002256    7.2139121  
C    1.0974552   -0.0000873    4.8889129  
H    2.0940752    0.0005483    2.0517982  
H   -2.9081052   -0.0011668    4.4207061  
H    2.1707277    0.0000911    5.0223670  
H   -2.1128194   -0.0014912    1.7406791  
