64

C    4.5894920    0.0958019   -8.0200048  
C    5.6519076   -0.5522696   -8.6063017  
C    5.6804637   -0.1511761   -9.9748448  
C    4.6023555    0.7503302  -10.1669277  
N    3.9593679    0.8765641   -8.9605915  
C    4.3266821    1.3477169  -11.4005905  
C    5.1546143    1.0294713  -12.4595649  
O    4.9308206    1.5846489  -13.6862301  
C    6.2351781    0.1318624  -12.2878211  
O    6.9668741   -0.0836228  -13.4374011  
C    6.5075646   -0.4580563  -11.0711348  
H    6.3230216   -1.2314997   -8.1090643  
H    3.1607803    1.4596965   -8.7868253  
H    3.5064659    2.0355030  -11.5535558  
H    5.6129335    1.2335881  -14.2733785  
H    7.6765503   -0.7008745  -13.2350061  
H    7.3422290   -1.1418612  -10.9700198  
C    5.9953299   -2.1198585   -4.4000425  
C    5.8617352   -1.6205579   -5.6749222  
C    4.7347033   -0.7463311   -5.6637108  
C    4.2167179   -0.7519520   -4.3432613  
N    5.0043210   -1.5976220   -3.6022210  
C    3.1006054    0.0006263   -3.9654951  
C    2.4965723    0.7731834   -4.9383657  
O    1.4035935    1.5277716   -4.6237098  
C    2.9984078    0.7917305   -6.2614812  
O    2.2870646    1.6102453   -7.1143401  
C    4.0992760    0.0493359   -6.6349318  
H    6.4976312   -1.8581611   -6.5104917  
H    4.8851264   -1.7943846   -2.6249500  
H    1.1427971    1.9823230   -5.4352719  
H    2.6910607    1.5654020   -7.9863373  
H    6.7182510   -2.8082950   -3.9970559  
C    3.2798083    0.0005857   -1.4499652  
C    2.5571142    0.0005565   -2.5996556  
C    1.1637432    0.0001548   -2.2210361  
C    1.1336964   -0.0000200   -0.7459473  
N    2.4483512   -0.0001428   -0.3402723  
C    0.0000000    0.0000000    0.0000000  
C   -1.2757368   -0.0000186   -0.6964415  
O   -2.3524598   -0.0000639   -0.1142311  
C   -1.2676497   -0.0000872   -2.2584083  
O   -2.3355766   -0.0004101   -2.8557295  
C    0.0181558    0.0001758   -2.9516296  
H    0.0150788    0.0003319   -4.0331631  
H    4.3498547    0.0008612   -1.3200026  
H    2.7563626    0.0012823    0.6148059  
C    2.5285572    2.1210227    2.9438989  
C    1.9331703    1.6216660    4.0790748  
C    0.8903039    0.7472258    3.6520102  
C    0.8972198    0.7527806    2.2336141  
N    1.9028376    1.5986179    1.8362361  
C    0.0000000    0.0000000    1.4700000  
C   -0.9207814   -0.7726952    2.1506477  
O   -1.8198395   -1.5274828    1.4542253  
C   -0.9436862   -0.7911793    3.5655508  
O   -1.9197945   -1.6098497    4.0950179  
C   -0.0590329   -0.0485852    4.3195194  
H    2.2150357    1.8593692    5.0905303  
H    2.1533708    1.7953814    0.8841339  
H   -2.3621246   -1.9821033    2.1118817  
H   -1.8668290   -1.5649508    5.0545920  
H   -0.1007624   -0.0827977    5.4019087  
H    3.3491200    2.8096064    2.8367138  
