62

C    6.4627918   -3.6559210   -2.2809171  
C    6.8653765   -4.4783657   -1.2542822  
C    5.8803597   -4.3755612   -0.2277476  
C    4.8921276   -3.4683675   -0.6885321  
N    5.2775539   -3.0487596   -1.9375289  
C    3.7670869   -3.1270965    0.0681759  
C    3.6371421   -3.7125265    1.3125897  
O    2.5575825   -3.4147925    2.0929219  
C    4.6127500   -4.6197797    1.7899760  
O    4.3409007   -5.1173639    3.0476921  
C    5.7230213   -4.9567047    1.0441174  
H    7.7596249   -5.0777331   -1.2458031  
H    3.0103845   -2.4362454   -0.2772617  
H    2.6610816   -3.9233465    2.9077388  
H    5.0476173   -5.7214871    3.2950647  
H    6.4535868   -5.6545445    1.4362571  
H    6.9280576   -3.4532766   -3.2303494  
C    4.5294744   -2.1111776   -2.7873616  
C    4.8355746   -1.6481491   -4.0267091  
C    3.7722451   -0.7522106   -4.4158869  
C    2.8147154   -0.7310537   -3.2936214  
N    3.3317096   -1.5757412   -2.3385769  
C    1.6707636   -0.0012343   -3.2725974  
C    1.3618916    0.8179367   -4.4328095  
O    0.3558254    1.5108612   -4.5101837  
C    2.3616931    0.8105942   -5.6328716  
O    2.1121086    1.4960728   -6.6152604  
C    3.5619227   -0.0167226   -5.5388108  
H    5.7067349   -1.9050618   -4.6026342  
H    4.2491855   -0.0160727   -6.3739118  
H    2.9056668   -1.7713787   -1.4512998  
C    1.0965514    0.0001358   -0.8010306  
C    0.0000000    0.0000000    0.0000000  
C   -1.1546565    0.0001470   -0.8669508  
C   -0.6372019    0.0003520   -2.2486278  
N    0.7342867    0.0007338   -2.1395012  
C   -1.4147744    0.0001354   -3.3608712  
C   -2.8576052   -0.0001047   -3.1854454  
O   -3.6427785   -0.0002490   -4.1244896  
C   -3.4275841   -0.0000727   -1.7311660  
O   -4.6406832    0.0000333   -1.5710049  
C   -2.4891868   -0.0001090   -0.6116739  
H   -1.0150456    0.0001617   -4.3654239  
H   -2.8919122   -0.0002919    0.3920871  
H    2.1388270    0.0000663   -0.5261650  
C    0.8676693    0.7151171    2.2619005  
C    0.5875920    0.4624972    3.5848544  
C   -0.5048400   -0.4542819    3.6114698  
C   -0.8517165   -0.7276451    2.2635546  
N    0.0000000    0.0000000    1.4700000  
C   -1.8902865   -1.5946756    1.9108239  
C   -2.5912627   -2.1969500    2.9375057  
O   -3.6148162   -3.0527051    2.6493466  
C   -2.2603868   -1.9365747    4.2886322  
O   -3.0513550   -2.6123276    5.1947621  
C   -1.2361111   -1.0811317    4.6373480  
H    1.1060808    0.8876438    4.4271209  
H   -2.1597133   -1.8070987    0.8854031  
H   -3.9636755   -3.3565188    3.4974381  
H   -2.7621927   -2.3810384    6.0827341  
H   -1.0058879   -0.9010589    5.6809233  
H    1.6167816    1.3499334    1.8205408  
