62

C    5.8528276   -3.2579042   -9.2970478  
C    5.3034639   -2.5518516   -8.2519851  
C    5.2102151   -1.1918219   -8.6717758  
C    5.7218484   -1.1280911   -9.9931749  
N    6.1049824   -2.3995017  -10.3415147  
C    5.7837528    0.0624746  -10.7235913  
C    5.3204507    1.2095482  -10.1089779  
O    5.3573705    2.3992710  -10.7769676  
C    4.8066793    1.1662753   -8.7910315  
O    4.3850000    2.3918623   -8.3183087  
C    4.7455560   -0.0078468   -8.0697627  
H    5.0074786   -2.9659060   -7.3033310  
H    6.4958741   -2.6657054  -11.2271337  
H    6.1726945    0.1177316  -11.7310012  
H    4.9925125    3.0614815  -10.1756176  
H    4.0527786    2.2746181   -7.4230515  
H    6.0860683   -4.3056437   -9.3795141  
C    5.9718891   -2.1066115   -4.3836097  
C    5.8824617   -1.6421429   -5.6565381  
C    4.7503164   -0.7470245   -5.6994995  
C    4.1834492   -0.7279189   -4.3374836  
N    4.9692736   -1.5728897   -3.5882214  
C    3.1006054    0.0006263   -3.9654951  
C    2.4499046    0.8204920   -4.9739315  
O    1.4681174    1.5123812   -4.7379557  
C    3.0331140    0.8153163   -6.4229465  
O    2.4935217    1.5013961   -7.2804980  
C    4.2049177   -0.0107667   -6.7027951  
H    6.5349997   -1.8975860   -6.4723545  
H    6.6857550   -2.7940673   -3.9597116  
H    4.8362804   -1.7697855   -2.6132382  
C    3.2798083    0.0005857   -1.4499652  
C    2.5571142    0.0005565   -2.5996556  
C    1.1637432    0.0001548   -2.2210361  
C    1.1336964   -0.0000200   -0.7459473  
N    2.4483512   -0.0001428   -0.3402723  
C    0.0000000    0.0000000    0.0000000  
C   -1.2757368   -0.0000186   -0.6964415  
O   -2.3524598   -0.0000639   -0.1142311  
C   -1.2676497   -0.0000872   -2.2584083  
O   -2.3355766   -0.0004101   -2.8557295  
C    0.0181558    0.0001758   -2.9516296  
H    0.0150788    0.0003319   -4.0331631  
H    4.3498547    0.0008612   -1.3200026  
H    2.7563626    0.0012823    0.6148059  
C    2.5285572    2.1210227    2.9438989  
C    1.9331703    1.6216660    4.0790748  
C    0.8903039    0.7472258    3.6520102  
C    0.8972198    0.7527806    2.2336141  
N    1.9028376    1.5986179    1.8362361  
C    0.0000000    0.0000000    1.4700000  
C   -0.9207814   -0.7726952    2.1506477  
O   -1.8198395   -1.5274828    1.4542253  
C   -0.9436862   -0.7911793    3.5655508  
O   -1.9197945   -1.6098497    4.0950179  
C   -0.0590329   -0.0485852    4.3195194  
H    2.2150357    1.8593692    5.0905303  
H    2.1533708    1.7953814    0.8841339  
H   -2.3621246   -1.9821033    2.1118817  
H   -1.8668290   -1.5649508    5.0545920  
H   -0.1007624   -0.0827977    5.4019087  
H    3.3491200    2.8096064    2.8367138  
