66

C    1.1188644    0.0008222   -0.8003806  
C    0.0000000    0.0000000    0.0000000  
C   -1.1323860    0.0008898   -0.8673529  
C   -0.6382658    0.0019678   -2.1969281  
N    0.7324021    0.0038481   -2.1202240  
C   -1.4770909    0.0027314   -3.3154811  
C   -2.8395471    0.0020942   -3.0876861  
O   -3.7039190    0.0024420   -4.1440351  
C   -3.3517864    0.0013927   -1.7684337  
O   -4.7300491    0.0012363   -1.7073130  
C   -2.5248541    0.0009122   -0.6644822  
H   -1.1067562    0.0036985   -4.3313812  
H   -4.5940031    0.0021824   -3.7685135  
H   -4.9934598    0.0007258   -0.7819921  
H   -2.9462584    0.0005601    0.3339659  
H    2.1619896    0.0009357   -0.5342067  
C    4.5426439   -2.1280475   -2.8244668  
C    4.7840763   -1.6433670   -4.0890863  
C    3.7027659   -0.7718628   -4.4144294  
C    2.8248675   -0.7639998   -3.3003562  
N    3.3636323   -1.5993775   -2.3535226  
C    1.6478440   -0.0100101   -3.2702997  
C    1.3518127    0.7501216   -4.3850836  
O    0.2151955    1.5054726   -4.4087632  
C    2.2150343    0.7551142   -5.5065290  
O    1.7815979    1.5622770   -6.5380160  
C    3.3762260    0.0113180   -5.5369817  
H    5.6343327   -1.8887237   -4.7021579  
H    2.9665976   -1.7854937   -1.4503584  
H    0.2007697    1.9502732   -5.2662069  
H    2.4205826    1.5086856   -7.2552539  
H    5.1174439   -2.8101427   -2.2217148  
C    4.2462774    0.0435059   -6.7214121  
C    5.4323054   -0.6084841   -6.9678136  
C    5.8559803   -0.2226314   -8.2740362  
C    4.8803788    0.6740458   -8.7800975  
N    3.9159629    0.8121783   -7.8129174  
C    4.9739875    1.2569445  -10.0474791  
C    6.0726251    0.9289091  -10.8179105  
O    6.2138326    1.4698058  -12.0631036  
C    7.0564677    0.0359076  -10.3306531  
O    8.0892937   -0.1906206  -11.2168233  
C    6.9646303   -0.5397211   -9.0805557  
H    5.9302278   -1.2804826   -6.2899606  
H    3.1017810    1.3952688   -7.8842980  
H    4.2337353    1.9409802  -10.4390456  
H    7.0363391    1.1138714  -12.4237388  
H    8.7094952   -0.8038436  -10.8107306  
H    7.7337189   -1.2203199   -8.7344829  
C    2.5311839    2.1237619    3.0120429  
C    1.9795631    1.6616747    1.8395852  
C    0.9223175    0.7739173    2.1983588  
C    0.8753926    0.7337535    3.6154372  
N    1.8668922    1.5631002    4.0777464  
C   -0.0496243   -0.0427881    4.3197917  
C   -0.9437528   -0.7922060    3.5801400  
O   -1.8685244   -1.5680278    4.2172520  
C   -0.9124520   -0.7656372    2.1655264  
O   -1.8671164   -1.5663939    1.5732860  
C    0.0000000    0.0000000    1.4700000  
H    2.3005065    1.9304404    0.8477417  
H    2.0679347    1.7444845    5.0445261  
H   -0.0904770   -0.0778569    5.3997470  
H   -2.3849669   -2.0011402    3.5251786  
H   -1.7775064   -1.4909735    0.6183591  
H    3.3468514    2.8078103    3.1724291  
