62

C    6.3867254   -0.0106544   -6.7693637  
C    7.1485770   -0.0196220   -7.9147768  
C    8.5151020   -0.0093323   -7.5059953  
C    8.5251597    0.0056100   -6.0876852  
N    7.2165414    0.0063485   -5.6727943  
C    9.7064235    0.0183442   -5.3398585  
C   10.8992639    0.0156436   -6.0364955  
O   12.0823296    0.0273139   -5.3558830  
C   10.9098083    0.0011908   -7.4515917  
O   12.1765918    0.0007282   -7.9980341  
C    9.7448446   -0.0111037   -8.1899930  
H    6.7663994   -0.0309459   -8.9211591  
H    9.7208494    0.0299064   -4.2587206  
H   12.7811242    0.0233218   -6.0229174  
H   12.0943599   -0.0094508   -8.9565430  
H    9.7843539   -0.0218550   -9.2729518  
H    5.3170590   -0.0135957   -6.6478580  
C    6.7690605    0.0043645   -4.2725595  
C    5.4996708    0.0031000   -3.8032758  
C    5.6352800    0.0013795   -2.3547914  
C    7.0947609    0.0017598   -2.1170954  
N    7.7645141    0.0035881   -3.2375489  
C    7.6497402    0.0004304   -0.7915457  
C    6.7859648   -0.0008158    0.2492353  
O    7.1644558   -0.0021419    1.5387252  
C    5.3077385   -0.0008593    0.0418536  
O    4.5810519   -0.0021559    1.0354057  
C    4.7630507    0.0004755   -1.3275395  
H    4.5843340    0.0033991   -4.3700509  
H    8.7202891    0.0005386   -0.6471984  
H    6.3302588   -0.0027813    2.0419826  
C    3.3003548    0.0005276   -1.4738982  
C    2.5232817    0.0003497   -2.6090743  
C    1.1623204   -0.0001319   -2.1820101  
C    1.1711886    0.0000583   -0.7636140  
N    2.4852302   -0.0014919   -0.3662356  
C    0.0000000    0.0000000    0.0000000  
C   -1.2020379    0.0000520   -0.6806479  
O   -2.3759249    0.0003495    0.0157742  
C   -1.2314652   -0.0005112   -2.0955511  
O   -2.5054384   -0.0008036   -2.6250184  
C   -0.0764510   -0.0007271   -2.8495195  
H    2.8919962   -0.0005619   -3.6205297  
H    2.8036267    0.0088181    0.5858667  
H   -3.0835636    0.0000348   -0.6418823  
H   -2.4360038   -0.0011526   -3.5845925  
H   -0.1304090   -0.0013420   -3.9319089  
C    0.8175213    0.6860729    2.3021913  
C    0.0000000    0.0000000    1.4700000  
C   -0.8887526   -0.7456559    2.3478473  
C   -0.4549825   -0.3816753    3.7138435  
N    0.5448156    0.4573574    3.6934124  
C   -1.0945674   -0.9182058    4.8835240  
C   -2.1210866   -1.7789155    4.6970523  
O   -2.8083856   -2.3554314    5.6976972  
C   -2.5824069   -2.1655116    3.3310774  
O   -3.5227682   -2.9541547    3.2362962  
C   -1.9100805   -1.6015804    2.1470656  
H   -0.7567140   -0.6349833    5.8697035  
H   -3.4728268   -2.9124471    5.2533954  
H   -2.2742832   -1.9066565    1.1752040  
H    1.6189533    1.3585343    2.0405121  
