62

C    7.6789219   -0.9881730   -4.1597134  
C    8.9632389   -0.5725342   -4.4247444  
C    8.9032664    0.8301386   -4.6767607  
C    7.5448257    1.2180788   -4.5499994  
N    6.8282324    0.0896178   -4.2374497  
C    7.1145361    2.5358886   -4.7317067  
C    8.0730889    3.4793156   -5.0468256  
O    7.7077855    4.7809615   -5.2346663  
C    9.4334000    3.1116716   -5.1780098  
O   10.2657689    4.1651111   -5.4954540  
C    9.8585686    1.8117602   -4.9991574  
H    9.8358122   -1.2029916   -4.4362282  
H    6.0806564    2.8379792   -4.6366488  
H    8.5177277    5.2645054   -5.4431027  
H   11.1654380    3.8314838   -5.5654016  
H   10.9072209    1.5601379   -5.1063712  
H    7.3021832   -1.9684245   -3.9227869  
C    4.3984119   -2.1246588   -1.2791004  
C    3.1669348   -1.6622720   -1.6817537  
C    3.3926768   -0.7743696   -2.7750378  
C    4.7931430   -0.7344303   -2.9964543  
N    5.3741074   -1.5640446   -2.0697194  
C    5.3781196    0.0421739   -4.0011813  
C    4.5339318    0.7918860   -4.7970809  
O    5.0522108    1.5677814   -5.7932673  
C    3.1339865    0.7655444   -4.5914709  
O    2.4286235    1.5665829   -5.4656243  
C    2.5562217   -0.0001543   -3.6003001  
H    2.2222228   -1.9309361   -1.2409228  
H    6.3582720   -1.7456270   -1.9895380  
H    4.3017817    2.0011078   -6.2202927  
H    1.4920370    1.4913025   -5.2588809  
H    4.6580916   -2.8088909   -0.4895741  
C    0.0000000    0.0000000    0.0000000  
C    1.0541688   -0.0001719   -0.8560391  
C    0.5103141   -0.0000449   -2.1935955  
C   -0.9576367    0.0002461   -2.0455733  
N   -1.2018459   -0.0001392   -0.6915970  
C   -1.8348306    0.0008319   -3.0810611  
C   -1.2972842    0.0009739   -4.4314605  
O   -2.0050664    0.0014267   -5.4301321  
C    0.2542628    0.0004190   -4.6117571  
O    0.7184677    0.0002263   -5.7439119  
C    1.0974556    0.0000880   -3.4189127  
H    2.0940752   -0.0005479   -0.5817978  
H   -2.9081050    0.0011669   -2.9507065  
H   -2.1128195    0.0014911   -0.2706793  
C    3.1301144    0.0010313    3.1728260  
C    2.5367765    0.0002768    1.9564670  
C    1.1089900   -0.0001027    2.2356185  
C    1.0177864    0.0004150    3.7115134  
N    2.1993570    0.0011613    4.2663826  
C   -0.2459220    0.0002880    4.3957118  
C   -1.3675327    0.0000606    3.6398520  
O   -2.6129319   -0.0000866    4.1448486  
C   -1.3083589   -0.0000910    2.1483229  
O   -2.3693264   -0.0004206    1.5241687  
C    0.0000000    0.0000000    1.4700000  
H    3.0096015    0.0001008    0.9892483  
H   -0.2829642    0.0004689    5.4753125  
H   -3.1967446   -0.0002093    3.3649027  
H    4.1849273    0.0015113    3.3971983  
