60

C   -1.0937630    0.5315567   -9.1259044  
C   -0.0950872   -0.3191552   -9.5399132  
C   -0.1258057   -0.3345333  -10.9658939  
C   -1.1727045    0.5334584  -11.3690304  
N   -1.7409960    1.0411646  -10.2271478  
C   -1.4907830    0.7623489  -12.7111276  
C   -0.7381182    0.1032307  -13.6636182  
O   -1.0058931    0.2908209  -14.9888049  
C    0.3102610   -0.7670791  -13.2811541  
O    0.9663300   -1.3487285  -14.3463317  
C    0.6244345   -0.9935679  -11.9573258  
H    0.5726165   -0.8627194   -8.8936141  
H   -2.5024466    1.6949113  -10.1990567  
H   -2.2875543    1.4225705  -13.0249202  
H   -0.3736771   -0.2543610  -15.4749578  
H    1.6586805   -1.9208268  -14.0014271  
H    1.4328864   -1.6658608  -11.6948261  
C    0.4920764   -0.6868679   -5.2544642  
C   -0.2963293   -0.0005341   -4.3948471  
C   -1.2145549    0.7451072   -5.2418306  
C   -0.8279331    0.3808331   -6.6218351  
N    0.1718577   -0.4583450   -6.6355552  
C   -1.5071744    0.9172630   -7.7689881  
C   -2.5265725    1.7781565   -7.5475746  
O   -3.2476979    2.3546071   -8.5241627  
C   -2.9407256    2.1650500   -6.1666507  
O   -3.8771709    2.9538488   -6.0398149  
C   -2.2282746    1.6012170   -5.0062924  
H   -3.8964333    2.9117963   -8.0574334  
H   -2.5588936    1.9065101   -4.0225660  
H    1.3019142   -1.3594050   -5.0203046  
C    3.1301146   -0.0010313   -1.7028256  
C    2.5367765   -0.0002766   -0.4864669  
C    1.1089901    0.0001027   -0.7656184  
C    1.0177865   -0.0004150   -2.2415133  
N    2.1993571   -0.0011612   -2.7963824  
C   -0.2459219   -0.0002879   -2.9257116  
C   -1.3675326   -0.0000606   -2.1698520  
O   -2.6129318    0.0000865   -2.6748483  
C   -1.3083588    0.0000910   -0.6783229  
O   -2.3693264    0.0004206   -0.0541685  
C    0.0000000    0.0000000    0.0000000  
H    3.0096016   -0.0001007    0.4807518  
H   -3.1967444    0.0002093   -1.8949026  
H    4.1849275   -0.0015114   -1.9271979  
C    0.0000000    0.0000000    1.4700000  
C    1.0541688    0.0001722    2.3260392  
C    0.5103138    0.0000454    3.6635956  
C   -0.9576371   -0.0002459    3.5155732  
N   -1.2018458    0.0001392    2.1615969  
C   -1.8348311   -0.0008317    4.5510609  
C   -1.2972847   -0.0009736    5.9014604  
O   -2.0050672   -0.0014265    6.9001319  
C    0.2542623   -0.0004184    6.0817573  
O    0.7184670   -0.0002256    7.2139121  
C    1.0974552   -0.0000873    4.8889129  
H    2.0940752    0.0005483    2.0517982  
H   -2.9081052   -0.0011668    4.4207061  
H    2.1707277    0.0000911    5.0223670  
H   -2.1128194   -0.0014912    1.7406791  
