66

C    2.3128795   -2.1207449   -5.9853290  
C    1.8202489   -1.6594120   -4.7865988  
C    0.7463179   -0.7716431   -5.0917846  
C    0.6288901   -0.7306952   -6.5047462  
N    1.5962666   -1.5596058   -7.0163180  
C   -0.3301660    0.0460753   -7.1617300  
C   -1.1864717    0.7949196   -6.3780524  
O   -2.1419344    1.5709322   -6.9678911  
C   -1.0847731    0.7675649   -4.9667673  
O   -2.0088867    1.5678195   -4.3272755  
C   -0.1387079    0.0017019   -4.3179684  
H    2.1902179   -1.9286752   -3.8121179  
H    1.7489518   -1.7404134   -7.9920111  
H   -0.4247433    0.0817407   -8.2382921  
H   -2.6233442    2.0035656   -6.2507168  
H   -1.8718320    1.4918816   -3.3780374  
C    3.4145068   -3.0544730   -6.2600447  
C    4.2486478   -3.7208173   -5.3924832  
C    5.1406706   -4.4993853   -6.1879244  
C    4.8002928   -4.2655089   -7.5448956  
N    3.7470412   -3.3850468   -7.5529059  
C    5.4748798   -4.8715104   -8.6090780  
C    6.5121651   -5.7289981   -8.2977425  
O    7.2047730   -6.3472172   -9.2982997  
C    6.8664801   -5.9753919   -6.9499412  
O    7.9204229   -6.8535839   -6.8039064  
C    6.2012455   -5.3781136   -5.8995851  
H    4.2172587   -3.6548062   -4.3184023  
H    3.2971524   -3.0258256   -8.3754276  
H    5.2202359   -4.6975357   -9.6454622  
H    7.8757135   -6.8936269   -8.8687209  
H    8.0955208   -6.9650336   -5.8644794  
H    6.4951179   -5.5863130   -4.8774446  
C    3.3041273    0.0001178   -1.5420428  
C    2.5845373   -0.0004780   -0.3695851  
C    1.2040007   -0.0000007   -0.7283589  
C    1.1422374    0.0006038   -2.1454372  
N    2.4348641    0.0026111   -2.6077464  
C   -0.0655179    0.0008799   -2.8497918  
C   -1.2321766    0.0002325   -2.1101402  
O   -2.4392814    0.0001148   -2.7472522  
C   -1.1911209   -0.0000007   -0.6955266  
O   -2.4371528   -0.0002320   -0.1032862  
C    0.0000000    0.0000000    0.0000000  
H    3.0031533   -0.0000660    0.6222584  
H    2.7054631   -0.0071097   -3.5745261  
H   -3.1132988   -0.0000648   -2.0551787  
H   -2.3200282   -0.0004072    0.8516409  
H    4.3686625    0.0004073   -1.7024290  
C    2.5285572    2.1210227    2.9438989  
C    1.9331703    1.6216660    4.0790748  
C    0.8903039    0.7472258    3.6520102  
C    0.8972198    0.7527806    2.2336141  
N    1.9028376    1.5986179    1.8362361  
C    0.0000000    0.0000000    1.4700000  
C   -0.9207814   -0.7726952    2.1506477  
O   -1.8198395   -1.5274828    1.4542253  
C   -0.9436862   -0.7911793    3.5655508  
O   -1.9197945   -1.6098497    4.0950179  
C   -0.0590329   -0.0485852    4.3195194  
H    2.2150357    1.8593692    5.0905303  
H    2.1533708    1.7953814    0.8841339  
H   -2.3621246   -1.9821033    2.1118817  
H   -1.8668290   -1.5649508    5.0545920  
H   -0.1007624   -0.0827977    5.4019087  
H    3.3491200    2.8096064    2.8367138  
