60

C    7.0644383    0.0010574    2.6684676  
C    5.7994345   -0.0002480    3.2090507  
C    5.9526744   -0.0004291    4.6271898  
C    7.3455254    0.0010980    4.8953129  
N    7.9917189    0.0000205    3.6840949  
C    7.8658803    0.0016714    6.1930111  
C    6.9637242    0.0009922    7.2390961  
O    7.4176526    0.0018579    8.5263269  
C    5.5702877   -0.0009061    6.9918174  
O    4.8023670   -0.0017928    8.1379591  
C    5.0562367   -0.0017460    5.7118657  
H    4.8793906   -0.0020849    2.6500260  
H    8.9876418    0.0112513    3.5576372  
H    8.9263832    0.0026901    6.4040434  
H    6.6345369    0.0008707    9.0920066  
H    3.8747970   -0.0030406    7.8825853  
H    3.9841321   -0.0033847    5.5535411  
C    4.7795901    0.0008674   -1.0815733  
C    5.8063533    0.0010476   -1.9702985  
C    7.0285665    0.0013958   -1.2015143  
C    6.6268086    0.0013745    0.2181270  
N    5.2509927    0.0014465    0.2224664  
C    7.4934504    0.0012528    1.2624628  
C    8.9169020    0.0013609    0.9686573  
O    9.7768349    0.0013265    1.8397569  
C    9.3650172    0.0016372   -0.5276709  
O   10.5607782    0.0020368   -0.7873195  
C    8.3375015    0.0014690   -1.5659688  
H    5.7176695    0.0011303   -3.0420956  
H    8.6560847    0.0014568   -2.5995201  
H    4.6776560   -0.0001048    1.0460742  
C    3.3321168    0.0004716   -1.3379341  
C    2.6974177    0.0000118   -2.5332316  
C    1.2800432   -0.0002116   -2.2052842  
C    1.2395033    0.0000644   -0.7271298  
N    2.4394059    0.0005460   -0.2131041  
C    0.0000000    0.0000000    0.0000000  
C   -1.1468704    0.0000635   -0.7169542  
O   -2.3742206    0.0000074   -0.1695488  
C   -1.1388774    0.0001608   -2.2096352  
O   -2.2206238    0.0000906   -2.7970409  
C    0.1454514    0.0001818   -2.9324241  
H    3.1367978   -0.0000649   -3.5160956  
H   -2.9844350    0.0001027   -0.9290164  
H    0.1083567    0.0003684   -4.0135594  
C    2.3971438    2.0127888    3.1728260  
C    1.9431056    1.6308205    1.9564670  
C    0.8496017    0.7127664    2.2356185  
C    0.7794028    0.6545384    3.7115134  
N    1.6840587    1.4146091    4.2663826  
C   -0.1885723   -0.1578550    4.3957118  
C   -1.0476298   -0.8789867    3.6398520  
O   -2.0015663   -1.6796266    4.1448486  
C   -1.0022026   -0.8410666    2.1483229  
O   -1.8147390   -1.5232959    1.5241687  
C    0.0000000    0.0000000    1.4700000  
H    2.3054237    1.9346118    0.9892483  
H   -0.2170646   -0.1815267    5.4753125  
H   -2.4487139   -2.0549881    3.3649027  
H    3.2048689    2.6911772    3.3971983  
