64

C   -4.1939266    0.7141675   -6.1615709  
C   -5.5443067    0.4646529   -6.2433226  
C   -5.7350628   -0.4436357   -7.3264773  
C   -4.4543709   -0.7152597   -7.8723482  
N   -3.5414448    0.0052204   -7.1429018  
C   -4.2618977   -1.5744851   -8.9583848  
C   -5.3826609   -2.1705993   -9.5031004  
O   -5.2517808   -3.0186198  -10.5645826  
C   -6.6689357   -1.9118364   -8.9726705  
O   -7.6840341   -2.5808162   -9.6248862  
C   -6.8595897   -1.0640908   -7.9014549  
H   -6.2991467    0.8863731   -5.6019477  
H   -3.2884509   -1.7855425   -9.3791673  
H   -6.1429395   -3.3191299  -10.7854786  
H   -8.5185913   -2.3511429   -9.2049231  
H   -7.8568882   -0.8850671   -7.5169757  
H   -3.6447221    1.3428629   -5.4818098  
C   -0.1387078    0.0017019   -4.3179684  
C    0.8680291    0.0011873   -5.2554904  
C    0.2429719    0.0018192   -6.5376383  
C   -1.1582728    0.0030044   -6.3175531  
N   -1.3554489    0.0009500   -4.9589749  
C   -2.0878506    0.0041837   -7.3619057  
C   -1.5938810    0.0044731   -8.6519335  
O   -2.4574184    0.0059625   -9.7089639  
C   -0.1991533    0.0029294   -8.8918277  
O    0.1346056    0.0030242  -10.2304649  
C    0.7184767    0.0014926   -7.8620323  
H    1.9231275   -0.0006578   -5.0415809  
H   -2.2494821    0.0117414   -4.5022801  
H   -1.9125273    0.0056062  -10.5066850  
H    1.0938149    0.0019573  -10.3047650  
H    1.7807470    0.0001466   -8.0766453  
C    3.3041272    0.0001178   -1.5420428  
C    2.5845372   -0.0004779   -0.3695851  
C    1.2040007   -0.0000007   -0.7283589  
C    1.1422375    0.0006038   -2.1454371  
N    2.4348641    0.0026111   -2.6077464  
C   -0.0655179    0.0008799   -2.8497918  
C   -1.2321766    0.0002325   -2.1101402  
O   -2.4392816    0.0001148   -2.7472523  
C   -1.1911209   -0.0000007   -0.6955266  
O   -2.4371527   -0.0002320   -0.1032863  
C    0.0000000    0.0000000    0.0000000  
H    3.0031533   -0.0000660    0.6222584  
H    2.7054632   -0.0071097   -3.5745261  
H   -3.1132986   -0.0000648   -2.0551788  
H   -2.3200284   -0.0004071    0.8516409  
H    4.3686626    0.0004072   -1.7024289  
C    2.5128556    2.1077716    2.9199648  
C    1.9592212    1.6432552    4.0696553  
C    0.8915788    0.7479214    3.6910360  
C    0.8684491    0.7287414    2.2159470  
N    1.8754542    1.5738793    1.8102719  
C    0.0000000    0.0000000    1.4700000  
C   -0.9772830   -0.8200135    2.1664417  
O   -1.8021297   -1.5120829    1.5842315  
C   -0.9711318   -0.8147624    3.7284083  
O   -1.7894187   -1.5009653    4.3257297  
C    0.0140216    0.0115358    4.4216297  
H    2.2638494    1.8988021    5.0689105  
H    0.0117648    0.0094386    5.5031631  
H    3.3327358    2.7953732    2.7900019  
H    2.1123206    1.7707734    0.8551938  
