60

C   -3.9846534    0.7173437   -1.8067787  
C   -3.3460098   -0.0004261   -2.7913644  
C   -4.3511567   -0.7286177   -3.4942278  
C   -5.5942658   -0.4124284   -2.8887285  
N   -5.3355279    0.4664778   -1.8663802  
C   -6.8075837   -0.9520445   -3.3262933  
C   -6.7652526   -1.8265514   -4.3947613  
O   -7.9207781   -2.3822411   -4.8627191  
C   -5.5346850   -2.1546694   -5.0118978  
O   -5.6585305   -3.0397397   -6.0629245  
C   -4.3373009   -1.6229124   -4.5805841  
H   -6.0265586    0.8750933   -1.2634780  
H   -7.7583635   -0.7151928   -2.8689968  
H   -7.6698755   -2.9536129   -5.6001788  
H   -4.7826150   -3.2082910   -6.4234334  
H   -3.4104553   -1.8930392   -5.0729928  
H   -3.5832772    1.3872843   -1.0658091  
C    0.0000000    0.0000000    0.0000000  
C    1.0662918   -0.0000103   -0.8334272  
C    0.4961866    0.0000066   -2.1718888  
C   -0.9663862   -0.0000848   -1.9540246  
N   -1.2632777   -0.0000084   -0.6828658  
C   -1.8985367   -0.0000514   -3.0477256  
C   -1.3925783    0.0004569   -4.3020543  
O   -2.1456389    0.0005417   -5.4151310  
C    0.0786225    0.0009329   -4.5544999  
O    0.4683752    0.0012595   -5.7221105  
C    1.0143159    0.0008446   -3.4159033  
H    2.1107193    0.0000632   -0.5721869  
H   -1.5042282    0.0009699   -6.1484418  
C    3.4164185   -0.7248698   -3.0395978  
C    4.6504323   -0.5074362   -3.5630547  
C    4.4860915    0.4201612   -4.6573081  
C    3.0448498    0.7275406   -4.7289403  
N    2.4521470    0.0014842   -3.7217487  
C    2.4820235    1.5683548   -5.6333537  
C    3.3539011    2.2134704   -6.6009228  
O    2.9430835    2.9872368   -7.4558002  
C    4.8835147    1.9023321   -6.5436513  
O    5.6273682    2.4393194   -7.3533351  
C    5.3721303    0.9788733   -5.5227058  
H    5.5707622   -0.9468589   -3.2217120  
H    1.4224194    1.7802524   -5.6686799  
H    6.4325766    0.7689074   -5.4896573  
H    3.1302844   -1.3547900   -2.2130282  
C    3.1301144    0.0010313    3.1728260  
C    2.5367765    0.0002768    1.9564670  
C    1.1089900   -0.0001027    2.2356185  
C    1.0177864    0.0004150    3.7115134  
N    2.1993570    0.0011613    4.2663826  
C   -0.2459220    0.0002880    4.3957118  
C   -1.3675327    0.0000606    3.6398520  
O   -2.6129319   -0.0000866    4.1448486  
C   -1.3083589   -0.0000910    2.1483229  
O   -2.3693264   -0.0004206    1.5241687  
C    0.0000000    0.0000000    1.4700000  
H    3.0096015    0.0001008    0.9892483  
H   -0.2829642    0.0004689    5.4753125  
H   -3.1967446   -0.0002093    3.3649027  
H    4.1849273    0.0015113    3.3971983  
