64

C    0.8680466   -1.0008105   -7.3998672  
C    1.8847708   -1.8894753   -7.1371623  
C    2.5500930   -2.1384634   -8.3740742  
C    1.8896227   -1.3673001   -9.3645352  
N    0.8720875   -0.6900681   -8.7395577  
C    2.2794884   -1.3668573  -10.7072164  
C    3.3558900   -2.1591011  -11.0563393  
O    3.7787134   -2.1957138  -12.3536029  
C    4.0275497   -2.9359061  -10.0825507  
O    5.0795328   -3.6719282  -10.5874714  
C    3.6433146   -2.9370392   -8.7578292  
H    2.1175023   -2.3077580   -6.1728654  
H    0.2369785   -0.0544946   -9.1875131  
H    1.7801834   -0.7814647  -11.4669619  
H    4.5308310   -2.8014837  -12.3786471  
H    5.4783944   -4.1672091   -9.8655229  
H    4.1769509   -3.5425163   -8.0345665  
C   -0.2208272   -0.6524174   -5.1346212  
C   -1.2456329    0.0471727   -4.5828766  
C   -1.8635343    0.7999336   -5.6488900  
C   -1.1093181    0.4792275   -6.8757132  
N   -0.1268911   -0.4059221   -6.4959277  
C   -1.3831929    0.9908187   -8.1024863  
C   -2.4948519    1.9194410   -8.2225242  
O   -2.8209726    2.4343809   -9.2840247  
C   -3.3072326    2.2735259   -6.9362630  
O   -4.2451139    3.0544078   -7.0249348  
C   -2.9168445    1.6579633   -5.6703515  
H   -0.8175714    0.7423924   -8.9897665  
H   -3.4845597    1.9082094   -4.7844623  
H    0.4738208   -1.3271517   -4.6612429  
C    1.1243410    0.0099923   -0.7919003  
C    0.7474076    0.0234544   -2.1148543  
C   -0.6787381    0.0234490   -2.1414700  
C   -1.1201745    0.0098592   -0.7935546  
N    0.0000000    0.0000000    0.0000000  
C   -2.4730816    0.0063709   -0.4408240  
C   -3.3971958    0.0170982   -1.4675058  
O   -4.7313517    0.0146259   -1.1793471  
C   -2.9763648    0.0303504   -2.8186324  
O   -4.0166480    0.0395118   -3.7247624  
C   -1.6418562    0.0335260   -3.1673481  
H    1.4178717    0.0310972   -2.9571209  
H   -2.8160166   -0.0041111    0.5845966  
H   -5.1938818    0.0230867   -2.0274384  
H   -3.6464675    0.0482293   -4.6127343  
H    2.1062467    0.0052819   -0.3505407  
C    0.8676693    0.7151171    2.2619005  
C    0.5875920    0.4624972    3.5848544  
C   -0.5048400   -0.4542819    3.6114698  
C   -0.8517165   -0.7276451    2.2635546  
N    0.0000000    0.0000000    1.4700000  
C   -1.8902865   -1.5946756    1.9108239  
C   -2.5912627   -2.1969500    2.9375057  
O   -3.6148162   -3.0527051    2.6493466  
C   -2.2603868   -1.9365747    4.2886322  
O   -3.0513550   -2.6123276    5.1947621  
C   -1.2361111   -1.0811317    4.6373480  
H    1.1060808    0.8876438    4.4271209  
H   -2.1597133   -1.8070987    0.8854031  
H   -3.9636755   -3.3565188    3.4974381  
H   -2.7621927   -2.3810384    6.0827341  
H   -1.0058879   -0.9010589    5.6809233  
H    1.6167816    1.3499334    1.8205408  
