64

C    1.1269575   -1.0555862   -7.3663785  
C    2.1403599   -1.9420398   -7.0840980  
C    2.8249432   -2.1957669   -8.3094833  
C    2.1791033   -1.4296394   -9.3134083  
N    1.1513861   -0.7507217   -8.7072028  
C    2.5896561   -1.4346863  -10.6499009  
C    3.6720838   -2.2273435  -10.9788712  
O    4.1149240   -2.2692123  -12.2692789  
C    4.3293744   -2.9991743   -9.9914184  
O    5.3897384   -3.7363191  -10.4767929  
C    3.9247299   -2.9948906   -8.6727943  
H    2.3585759   -2.3558466   -6.1144904  
H    0.5226578   -0.1177758   -9.1677037  
H    2.1015785   -0.8531489  -11.4198341  
H    4.8679229   -2.8743098  -12.2800422  
H    5.7778815   -4.2280153   -9.7465993  
H    4.4477173   -3.5966366   -7.9387213  
C   -0.0037892   -0.7105356   -5.1341628  
C   -1.0641734    0.0073898   -4.6315339  
C   -1.6260113    0.7376868   -5.7203886  
C   -0.8603254    0.4225624   -6.8720602  
N    0.1176067   -0.4577637   -6.4805350  
C   -1.1316211    0.9642913   -8.1321065  
C   -2.1954362    1.8398557   -8.2314163  
O   -2.5045510    2.3976108   -9.4382177  
C   -2.9709722    2.1669380   -7.0937084  
O   -3.9953198    3.0532739   -7.3553648  
C   -2.7037382    1.6330963   -5.8502752  
H   -0.5517515    0.7282604   -9.0137204  
H   -3.2684069    2.9694093   -9.2871060  
H   -4.4693356    3.2210061   -6.5351346  
H   -3.3151850    1.9024723   -4.9970179  
H    0.6764261   -1.3817974   -4.6385083  
C    1.1319248    0.0015675   -0.8009270  
C    0.7969916    0.0034959   -2.1169404  
C   -0.6453336    0.0035703   -2.1842672  
C   -1.1266831    0.0015415   -0.7896027  
N    0.0000000    0.0000000    0.0000000  
C   -2.4346129    0.0013924   -0.4276297  
C   -3.4350110    0.0031352   -1.4820184  
O   -4.6384610    0.0030897   -1.2583919  
C   -2.9478958    0.0050460   -2.9661075  
O   -3.7809377    0.0062160   -3.8623775  
C   -1.5113821    0.0053068   -3.2312125  
H    1.4821240    0.0045436   -2.9459192  
H   -2.7664565    0.0000185    0.6013447  
H    2.1104318    0.0009428   -0.3488058  
C    0.8576279    0.7185626    2.2703808  
C    0.0000000    0.0000000    1.4700000  
C   -0.8668858   -0.7285659    2.3373528  
C   -0.4876752   -0.4117774    3.6669281  
N    0.5635254    0.4678311    3.5902241  
C   -1.1297612   -0.9515493    4.7854808  
C   -2.1738724   -1.8268314    4.5576857  
O   -2.8357962   -2.3827064    5.6140350  
C   -2.5667212   -2.1555554    3.2384331  
O   -3.6226318   -3.0413663    3.1773122  
C   -1.9335634   -1.6236449    2.1344818  
H    1.0363952    0.8769718    4.3757045  
H   -0.8454472   -0.7142436    5.8013813  
H   -3.5178062   -2.9546422    5.2385129  
H   -3.8247440   -3.2102924    2.2519915  
H   -2.2566033   -1.8942483    1.1360343  
H    1.6567807    1.3889844    2.0042067  
