62

C    1.1276118    0.0132501   -7.6308744  
C   -0.1945410    0.0148187   -7.2509043  
C   -0.9715224    0.0177514   -8.4471030  
C   -0.0610848    0.0175545   -9.5347744  
N    1.2049514    0.0167433   -9.0039570  
C   -0.4773861    0.0197248  -10.8694945  
C   -1.8375469    0.0218308  -11.1106087  
O   -2.2987336    0.0236497  -12.3952557  
C   -2.7616049    0.0224378  -10.0387258  
O   -4.0809037    0.0250187  -10.4421997  
C   -2.3516267    0.0205710   -8.7217451  
H   -0.5546864    0.0150604   -6.2363658  
H    2.0569074    0.0058665   -9.5350266  
H    0.2114634    0.0197317  -11.7029742  
H   -3.2631569    0.0252332  -12.3391308  
H   -4.6386877    0.0252367   -9.6583116  
H   -3.0827633    0.0212760   -7.9217966  
C    1.7334697    0.0049246   -3.2500361  
C    3.1090789    0.0036243   -3.2628664  
C    3.5126980    0.0054131   -4.6309632  
C    2.3299044    0.0080813   -5.4138540  
N    1.2677979    0.0057591   -4.5440599  
C    2.3483171    0.0106716   -6.8118679  
C    3.5832504    0.0108735   -7.4308336  
O    3.6589634    0.0137047   -8.7936512  
C    4.7745974    0.0078613   -6.6669616  
O    5.9240668    0.0080642   -7.4298933  
C    4.7571862    0.0050317   -5.2877534  
H    3.7435741    0.0005264   -2.3931542  
H    0.2997751    0.0173834   -4.8101013  
H    4.5993490    0.0130276   -9.0148713  
H    6.6822229    0.0059545   -6.8376105  
H    5.6860771    0.0025785   -4.7295111  
C    1.1319247    0.0015655   -0.8009267  
C    0.7969916    0.0034943   -2.1169401  
C   -0.6453337    0.0035710   -2.1842668  
C   -1.1266832    0.0015433   -0.7896026  
N    0.0000000    0.0000000    0.0000000  
C   -2.4346130    0.0013964   -0.4276294  
C   -3.4350109    0.0031408   -1.4820183  
O   -4.6384610    0.0030973   -1.2583915  
C   -2.9478956    0.0050505   -2.9661075  
O   -3.7809378    0.0062218   -3.8623775  
C   -1.5113821    0.0053090   -3.2312122  
H   -2.7664565    0.0000232    0.6013446  
H   -1.1823527    0.0068407   -4.2614846  
H    2.1104317    0.0009391   -0.3488056  
C    2.4951002    2.0940188    2.9809380  
C    1.9440701    1.6314916    1.8291961  
C    0.8759964    0.7350050    2.2038498  
C    0.8497377    0.7130254    3.6788474  
N    1.8560616    1.5571714    4.0882609  
C   -0.0205033   -0.0168748    4.4215661  
C   -0.9962600   -0.8356168    3.7214979  
O   -1.8224391   -1.5286685    4.3006425  
C   -0.9864710   -0.8277881    2.1595606  
O   -1.8030528   -1.5133726    1.5592035  
C    0.0000000    0.0000000    1.4700000  
H    2.2509283    1.8888011    0.8310761  
H   -0.0229599   -0.0187323    5.5027230  
H    3.3143982    2.7817323    3.1139444  
H    2.0889452    1.7545833    5.0442112  
