60

C    4.2580380   -2.1201659    3.0569296  
C    4.4962096   -1.6209758    4.3165129  
C    5.6183100   -0.7465194    4.2125107  
C    6.0256463   -0.7518928    2.8538450  
N    5.1797816   -1.5976428    2.1801697  
C    7.1066610    0.0009523    2.3854224  
C    7.7887121    0.7735269    3.3052660  
O    8.8518750    1.5283702    2.9016468  
C    7.3976884    0.7918294    4.6652594  
O    8.1767786    1.6103967    5.4566568  
C    6.3315075    0.0491717    5.1281251  
H    3.9314277   -1.8587981    5.2016431  
H    5.2180208   -1.7942755    1.1963740  
H    9.1786186    1.9828872    3.6889958  
H    7.8460728    1.5653773    6.3589934  
H    6.0555314    0.0832446    6.1755763  
H    3.5044811   -2.8087055    2.7148428  
C    4.7390840    0.0009613   -1.2727298  
C    5.6949931    0.0015506   -2.2307576  
C    6.9549534    0.0016801   -1.5034347  
C    6.5623380    0.0012139   -0.0777990  
N    5.2646567    0.0007106    0.0636644  
C    7.5356720    0.0011400    0.9794176  
C    8.8418533    0.0011261    0.6283828  
O    9.8560149    0.0010676    1.5101523  
C    9.2698380    0.0012197   -0.8016485  
O   10.4759225    0.0013251   -1.0477805  
C    8.2523630    0.0013382   -1.8677951  
H    5.5615837    0.0017690   -3.2990633  
H   10.6613103    0.0010471    0.9618351  
H    8.6033668    0.0012881   -2.8910384  
C    3.2798077    0.0005856   -1.4499661  
C    2.5571132    0.0005565   -2.5996564  
C    1.1637425    0.0001547   -2.2210366  
C    1.1336959   -0.0000200   -0.7459475  
N    2.4483509   -0.0001429   -0.3402730  
C    0.0000000    0.0000000    0.0000000  
C   -1.2757370   -0.0000187   -0.6964411  
O   -2.3524597   -0.0000640   -0.1142306  
C   -1.2676502   -0.0000874   -2.2584078  
O   -2.3355774   -0.0004102   -2.8557287  
C    0.0181551    0.0001758   -2.9516297  
H    2.9547342    0.0006074   -3.5989118  
H    0.0150776    0.0003317   -4.0331632  
H    2.7563626    0.0012823    0.6148051  
C    0.8681109    0.7263879    2.2709268  
C    0.6127770    0.5096195    3.5869401  
C   -0.4920590   -0.4175482    3.6542670  
C   -0.8620974   -0.7254003    2.2596025  
N    0.0000000    0.0000000    1.4700000  
C   -1.8641242   -1.5660088    1.8976294  
C   -2.6293522   -2.2103885    2.9520183  
O   -3.5512764   -2.9839180    2.7283916  
C   -2.2549728   -1.8987399    4.4361073  
O   -2.8923672   -2.4351063    5.3323774  
C   -1.1543735   -0.9755647    4.7012123  
H    1.1382914    0.9492124    4.4159191  
H   -2.1192137   -1.7782617    0.8686553  
H   -0.9013378   -0.7652422    5.7314848  
H    1.6172880    1.3558399    1.8188057  
