64

C    2.1805177   -2.1229470   -8.3127007  
C    3.1730104   -2.9734033   -8.7418281  
C    3.1198344   -2.9897615  -10.1671372  
C    2.0662388   -2.1226033  -10.5543060  
N    1.5157339   -1.6144302   -9.4039493  
C    1.7269267   -1.8947899  -11.8913764  
C    2.4648494   -2.5541485  -12.8551686  
O    2.1761233   -2.3675969  -14.1760957  
C    3.5196006   -3.4236380  -12.4886926  
O    4.1591212   -4.0056552  -13.5636874  
C    3.8547190   -3.6490639  -11.1698280  
H    3.8511124   -3.5161732   -8.1057682  
H    0.7544635   -0.9610728   -9.3642985  
H    0.9249494   -1.2352077  -12.1930145  
H    2.8008982   -2.9127685  -14.6717873  
H    4.8571330   -4.5771492  -13.2293546  
H    4.6675739   -4.3207459  -10.9196517  
C    2.3338140   -2.1434185   -5.7798759  
C    1.7883285   -1.7365456   -6.9496968  
C    0.7199254   -0.8256239   -6.5685991  
C    0.7626765   -0.7985193   -5.0907552  
N    1.7067549   -1.5690025   -4.6227165  
C   -0.1496415   -0.0015615   -4.3176961  
C   -1.0628926    0.7351416   -4.9904329  
O   -1.9748537    1.5241930   -4.3973345  
C   -1.1310326    0.7292320   -6.4815681  
O   -1.9880863    1.4240530   -7.0273731  
C   -0.1842255   -0.0965648   -7.2519836  
H   -2.4795473    1.9160027   -5.1328085  
H   -0.2663196   -0.0731955   -8.3303828  
H    3.1559294   -2.8255340   -5.6321681  
C    3.3003543    0.0005276   -1.4738987  
C    2.5232814    0.0003497   -2.6090747  
C    1.1623200   -0.0001320   -2.1820103  
C    1.1711883    0.0000582   -0.7636140  
N    2.4852300   -0.0014919   -0.3662360  
C    0.0000000    0.0000000    0.0000000  
C   -1.2020384    0.0000519   -0.6806477  
O   -2.3759249    0.0003493    0.0157743  
C   -1.2314656   -0.0005115   -2.0955510  
O   -2.5054392   -0.0008039   -2.6250180  
C   -0.0764516   -0.0007274   -2.8495195  
H    2.8919955   -0.0005620   -3.6205304  
H    2.8036267    0.0088183    0.5858662  
H   -3.0835638    0.0000347   -0.6418818  
H   -2.4360047   -0.0011529   -3.5845921  
H    4.3715549    0.0004895   -1.3667136  
C    2.5285572    2.1210227    2.9438989  
C    1.9331703    1.6216660    4.0790748  
C    0.8903039    0.7472258    3.6520102  
C    0.8972198    0.7527806    2.2336141  
N    1.9028376    1.5986179    1.8362361  
C    0.0000000    0.0000000    1.4700000  
C   -0.9207814   -0.7726952    2.1506477  
O   -1.8198395   -1.5274828    1.4542253  
C   -0.9436862   -0.7911793    3.5655508  
O   -1.9197945   -1.6098497    4.0950179  
C   -0.0590329   -0.0485852    4.3195194  
H    2.2150357    1.8593692    5.0905303  
H    2.1533708    1.7953814    0.8841339  
H   -2.3621246   -1.9821033    2.1118817  
H   -1.8668290   -1.5649508    5.0545920  
H   -0.1007624   -0.0827977    5.4019087  
H    3.3491200    2.8096064    2.8367138  
