60

C   -4.3350621   -2.1241168   -7.2059914  
C   -4.8223444   -1.6622792   -6.0052722  
C   -5.8980451   -0.7751375   -6.3060180  
C   -6.0220140   -0.7350748   -7.7184459  
N   -5.0566633   -1.5638862   -8.2339919  
C   -6.9844183    0.0409076   -8.3714519  
C   -7.8374087    0.7898596   -7.5842701  
O   -8.7959101    1.5651258   -8.1701472  
C   -7.7291830    0.7633833   -6.1734541  
O   -8.6506677    1.5636320   -5.5301729  
C   -6.7798109   -0.0017024   -5.5285796  
H   -4.4477666   -1.9308114   -5.0323514  
H   -4.9084100   -1.7452077   -9.2102717  
H   -7.0839818    0.0758966   -9.4475864  
H   -9.2741838    1.9979834   -7.4510133  
H   -8.5091988    1.4883128   -4.5815336  
H   -3.5289405   -2.8077132   -7.4104990  
C   -3.3460096   -0.0004265   -2.7913646  
C   -4.0050885   -0.0007131   -1.6040609  
C   -5.4169936   -0.0010567   -1.9063186  
C   -5.5272431   -0.0009754   -3.3775888  
N   -4.2366045   -0.0001895   -3.8541818  
C   -6.6998410   -0.0016249   -4.0607563  
C   -7.9358014   -0.0022339   -3.2959439  
O   -9.0426019   -0.0027798   -3.8187170  
C   -7.8427529   -0.0020786   -1.7367304  
O   -8.8766028   -0.0022805   -1.0821970  
C   -6.5211391   -0.0016359   -1.1144848  
H   -3.5536954   -0.0005045   -0.6279167  
H   -6.4653747   -0.0017365   -0.0343859  
H   -3.9810062   -0.0015046   -4.8246018  
C    0.0000000    0.0000000    0.0000000  
C    1.0662919   -0.0000103   -0.8334269  
C    0.4961869    0.0000064   -2.1718889  
C   -0.9663859   -0.0000850   -1.9540246  
N   -1.2632774   -0.0000084   -0.6828657  
C   -1.8985363   -0.0000518   -3.0477257  
C   -1.3925778    0.0004564   -4.3020545  
O   -2.1456384    0.0005409   -5.4151311  
C    0.0786230    0.0009323   -4.5544998  
O    0.4683758    0.0012588   -5.7221098  
C    1.0143164    0.0008442   -3.4159030  
H    2.1107195    0.0000633   -0.5721867  
H   -1.5042275    0.0009691   -6.1484418  
H    2.0724152    0.0013148   -3.6409744  
C    3.3321173   -0.0004715    2.8079335  
C    2.6974184   -0.0000116    4.0032312  
C    1.2800439    0.0002118    3.6752840  
C    1.2395035   -0.0000644    2.1971295  
N    2.4394063   -0.0005460    1.6831036  
C    0.0000000    0.0000000    1.4700000  
C   -1.1468701   -0.0000635    2.1869543  
O   -2.3742202   -0.0000073    1.6395491  
C   -1.1388768   -0.0001607    3.6796354  
O   -2.2206231   -0.0000905    4.2670412  
C    0.1454524   -0.0001816    4.4024240  
H    3.1367986    0.0000651    4.9860947  
H   -2.9844344   -0.0001026    2.3990168  
H    0.1083576   -0.0003682    5.4835595  
H    4.3940039   -0.0007619    2.6198634  
