60

C    7.5541064    0.0021293   -5.2292169  
C    6.9116470    0.0028888   -6.4456514  
C    7.9235589    0.0036491   -7.4509539  
C    9.1745050    0.0030217   -6.7823288  
N    8.9139658    0.0040547   -5.4344668  
C   10.3958065    0.0031985   -7.4629252  
C   10.3535147    0.0037169   -8.8436455  
O   11.5166202    0.0035593   -9.5579308  
C    9.1152375    0.0047223   -9.5288336  
O    9.2402314    0.0055604  -10.9027774  
C    7.9100058    0.0048217   -8.8580574  
H    5.8448834    0.0039994   -6.5905909  
H    9.6081097   -0.0066429   -4.7091871  
H   11.3526006    0.0028672   -6.9591905  
H   11.2643502    0.0042884  -10.4904665  
H    8.3587987    0.0061826  -11.2883676  
H    6.9773828    0.0057845   -9.4100456  
C    7.0021973    0.0016962   -3.8667574  
C    5.7010034    0.0007395   -3.4946387  
C    5.7268785    0.0007366   -2.0400491  
C    7.1642509    0.0016709   -1.6928548  
N    7.9166766    0.0023172   -2.7595521  
C    7.6175803    0.0019949   -0.3291911  
C    6.6777004    0.0018009    0.6434139  
O    6.9577664    0.0020527    1.9577974  
C    5.2193472    0.0012353    0.3250318  
O    4.4197302    0.0009616    1.2608916  
C    4.7795901    0.0008674   -1.0815733  
H    4.8310648    0.0002032   -4.1288958  
H    8.6741765    0.0024744   -0.1044396  
H    6.0879590    0.0018432    2.3966452  
C    3.3321168    0.0004716   -1.3379341  
C    2.6974177    0.0000118   -2.5332316  
C    1.2800432   -0.0002116   -2.2052842  
C    1.2395033    0.0000644   -0.7271298  
N    2.4394059    0.0005460   -0.2131041  
C    0.0000000    0.0000000    0.0000000  
C   -1.1468704    0.0000635   -0.7169542  
O   -2.3742206    0.0000074   -0.1695488  
C   -1.1388774    0.0001608   -2.2096352  
O   -2.2206238    0.0000906   -2.7970409  
C    0.1454514    0.0001818   -2.9324241  
H    3.1367978   -0.0000649   -3.5160956  
H   -2.9844350    0.0001027   -0.9290164  
H    0.1083567    0.0003684   -4.0135594  
C    2.5528530    2.1414826    2.8079335  
C    2.0663498    1.7338582    4.0032312  
C    0.9804344    0.8229586    3.6752840  
C    0.9495562    0.7966882    2.1971295  
N    1.8690446    1.5676019    1.6831036  
C    0.0000000    0.0000000    1.4700000  
C   -0.8785127   -0.7372425    2.1869543  
O   -1.8187535   -1.5261249    1.6395491  
C   -0.8723269   -0.7321790    3.6796354  
O   -1.7010379   -1.4274584    4.2670412  
C    0.1115397    0.0933559    4.4024240  
H    2.4028853    2.0163452    4.9860947  
H   -2.2861435   -1.9184361    2.3990168  
H    0.0832434    0.0693689    5.4835595  
H    3.3664920    2.8238276    2.6198634  
