62

C    2.6603805   -5.3208723   -9.1806383  
C    2.3303803   -4.3992366   -8.2141199  
C    2.1797347   -3.1423378   -8.8714715  
C    2.4318823   -3.3607987  -10.2501024  
N    2.7224947   -4.6937573  -10.4030209  
C    2.3719509   -2.3378263  -11.2012728  
C    2.0513451   -1.0713048  -10.7525935  
O    1.9787358   -0.0358443  -11.6389145  
C    1.7967536   -0.8333484   -9.3809608  
O    1.4912403    0.4806443   -9.0921212  
C    1.8559635   -1.8420074   -8.4420106  
H    2.2137831   -4.6070481   -7.1642571  
H    2.9339035   -5.1454049  -11.2743982  
H    2.5631870   -2.4977820  -12.2534352  
H    1.7448850    0.7478346  -11.1246893  
H    1.3334332    0.5553179   -8.1460123  
H    2.8577621   -6.3756658   -9.0945600  
C    2.2783847   -2.0910255   -5.9524496  
C    1.7853127   -1.6292412   -4.7744386  
C    0.6997749   -0.7327360   -5.0949402  
C    0.6001065   -0.7099363   -6.5667883  
N    1.5849250   -1.5536732   -7.0262771  
C   -0.3061445    0.0202236   -7.2648431  
C   -1.2459586    0.8383997   -6.5165965  
O   -2.1000523    1.5316272   -7.0534947  
C   -1.1584128    0.8296992   -4.9570889  
O   -1.9441938    1.5148019   -4.3164303  
C   -0.1387079    0.0017019   -4.3179684  
H    2.1415246   -1.8870540   -3.7929805  
H   -0.3624283    0.0226852   -8.3445354  
H    3.0901479   -2.7785183   -6.1264735  
C    3.3041273    0.0001178   -1.5420428  
C    2.5845373   -0.0004780   -0.3695851  
C    1.2040007   -0.0000007   -0.7283589  
C    1.1422374    0.0006038   -2.1454372  
N    2.4348641    0.0026111   -2.6077464  
C   -0.0655179    0.0008799   -2.8497918  
C   -1.2321766    0.0002325   -2.1101402  
O   -2.4392814    0.0001148   -2.7472522  
C   -1.1911209   -0.0000007   -0.6955266  
O   -2.4371528   -0.0002320   -0.1032862  
C    0.0000000    0.0000000    0.0000000  
H    3.0031533   -0.0000660    0.6222584  
H    2.7054631   -0.0071097   -3.5745261  
H   -3.1132988   -0.0000648   -2.0551787  
H   -2.3200282   -0.0004072    0.8516409  
H    4.3686625    0.0004073   -1.7024290  
C    2.4951002    2.0940188    2.9809380  
C    1.9440701    1.6314916    1.8291961  
C    0.8759964    0.7350050    2.2038498  
C    0.8497377    0.7130254    3.6788474  
N    1.8560616    1.5571714    4.0882609  
C   -0.0205033   -0.0168748    4.4215661  
C   -0.9962600   -0.8356168    3.7214979  
O   -1.8224391   -1.5286685    4.3006425  
C   -0.9864710   -0.8277881    2.1595606  
O   -1.8030528   -1.5133726    1.5592035  
C    0.0000000    0.0000000    1.4700000  
H    2.2509283    1.8888011    0.8310761  
H   -0.0229599   -0.0187323    5.5027230  
H    3.3143982    2.7817323    3.1139444  
H    2.0889452    1.7545833    5.0442112  
