62

C    6.5860086   -0.0008870    1.4009375  
C    7.6166236   -0.0011135    0.4897300  
C    7.0248897   -0.0012667   -0.8081339  
C    5.6184275   -0.0008356   -0.6243128  
N    5.3862300   -0.0025642    0.7287201  
C    4.7161324   -0.0005436   -1.6923263  
C    5.2432558   -0.0003826   -2.9691656  
O    4.4073059    0.0002540   -4.0481475  
C    6.6437146   -0.0011825   -3.1729575  
O    7.0119354   -0.0013267   -4.5025276  
C    7.5344423   -0.0017440   -2.1198051  
H    8.6658465   -0.0022673    0.7308197  
H    4.4806936    0.0078491    1.1621678  
H    4.9726184   -0.0000404   -4.8315290  
H    7.9727441   -0.0018529   -4.5520289  
H    8.6019008   -0.0025340   -2.3069101  
H    6.6118211   -0.0011076    2.4771772  
C    3.2573666   -0.0002920   -1.5109384  
C    2.5379463   -0.0001710   -0.3591964  
C    1.1435039    0.0000331   -0.7338498  
C    1.1092600   -0.0000083   -2.2088476  
N    2.4227554    0.0001909   -2.6182613  
C   -0.0265538   -0.0002524   -2.9515660  
C   -1.3003040   -0.0002640   -2.2514976  
O   -2.3786789   -0.0004133   -2.8306420  
C   -1.2877727    0.0000311   -0.6895603  
O   -2.3539960    0.0003306   -0.0892032  
C    0.0000000    0.0000000    0.0000000  
H    2.9384090   -0.0000368    0.6389236  
H    2.7280484   -0.0013407   -3.5742118  
C    2.3617595   -2.0132535   -6.1309099  
C    1.9111448   -1.6311560   -4.9133192  
C    0.8167565   -0.7132545   -5.1894903  
C    0.7423523   -0.6552469   -6.6651879  
N    1.6455039   -1.4153048   -7.2225195  
C   -0.2276495    0.1569483   -7.3467463  
C   -1.0846271    0.8781010   -6.5885490  
O   -2.0400792    1.6785701   -7.0909447  
C   -1.0349520    0.8404010   -5.0971498  
O   -1.8457794    1.5226371   -4.4707846  
C   -0.0307367   -0.0004647   -4.4215603  
H    2.2762450   -1.9347704   -3.9470915  
H   -0.2592161    0.1804612   -8.4262655  
H   -2.4850444    2.0539983   -6.3097833  
H    3.1689126   -2.6915914   -6.3574819  
C    2.5311839    2.1237619    3.0120429  
C    1.9795631    1.6616747    1.8395852  
C    0.9223175    0.7739173    2.1983588  
C    0.8753926    0.7337535    3.6154372  
N    1.8668922    1.5631002    4.0777464  
C   -0.0496243   -0.0427881    4.3197917  
C   -0.9437528   -0.7922060    3.5801400  
O   -1.8685244   -1.5680278    4.2172520  
C   -0.9124520   -0.7656372    2.1655264  
O   -1.8671164   -1.5663939    1.5732860  
C    0.0000000    0.0000000    1.4700000  
H    2.3005065    1.9304404    0.8477417  
H    2.0679347    1.7444845    5.0445261  
H   -0.0904770   -0.0778569    5.3997470  
H   -2.3849669   -2.0011402    3.5251786  
H   -1.7775064   -1.4909735    0.6183591  
H    3.3468514    2.8078103    3.1724291  
