62

C    8.7625634   -0.0019537   -3.0427300  
C    9.8890284   -0.0025251   -2.2530824  
C   11.0130700   -0.0026867   -3.1312220  
C   10.5062624   -0.0019048   -4.4560130  
N    9.1363894   -0.0034257   -4.3662106  
C   11.3343552   -0.0015223   -5.5825343  
C   12.6989269   -0.0016297   -5.3677748  
O   13.5531607   -0.0009191   -6.4323391  
C   13.2237546   -0.0027810   -4.0534798  
O   14.6025390   -0.0031622   -4.0055387  
C   12.4074142   -0.0034321   -2.9416734  
H    9.8993203   -0.0038977   -1.1765670  
H    8.5036822    0.0072491   -5.1456650  
H   10.9543245   -0.0010704   -6.5948484  
H   14.4467934   -0.0014351   -6.0653440  
H   14.8747835   -0.0039194   -3.0827787  
H   12.8383439   -0.0044937   -1.9473007  
C    6.7636933   -0.0010971    0.9023171  
C    5.4671766   -0.0014229    0.4424135  
C    5.5308677   -0.0015887   -0.9825579  
C    6.9040854   -0.0016365   -1.3378039  
N    7.6252192    0.0006176   -0.1696525  
C    7.3417429   -0.0020967   -2.6656758  
C    6.3755446   -0.0028233   -3.6529133  
O    6.7475671   -0.0036472   -4.9661589  
C    5.0004300   -0.0024126   -3.3184347  
O    4.1619032   -0.0028166   -4.4139786  
C    4.5679461   -0.0016854   -2.0086701  
H    4.5841349   -0.0004230    1.0582292  
H    8.6271391   -0.0094387   -0.1061168  
H    5.9304038   -0.0037547   -5.4814343  
H    3.2522420   -0.0025257   -4.1007373  
H    7.1420548   -0.0005064    1.9101872  
C    3.1301149   -0.0010311   -1.7028252  
C    2.5367768   -0.0002767   -0.4864665  
C    1.1089904    0.0001028   -0.7656183  
C    1.0177872   -0.0004148   -2.2415132  
N    2.1993578   -0.0011611   -2.7963820  
C   -0.2459209   -0.0002877   -2.9257118  
C   -1.3675319   -0.0000605   -2.1698524  
O   -2.6129313    0.0000867   -2.6748490  
C   -1.3083584    0.0000910   -0.6783232  
O   -2.3693261    0.0004206   -0.0541692  
C    0.0000000    0.0000000    0.0000000  
H    3.0096017   -0.0001007    0.4807525  
H   -0.2829630   -0.0004687   -4.0053125  
H   -3.1967441    0.0002094   -1.8949034  
C    2.5528530    2.1414826    2.8079335  
C    2.0663498    1.7338582    4.0032312  
C    0.9804344    0.8229586    3.6752840  
C    0.9495562    0.7966882    2.1971295  
N    1.8690446    1.5676019    1.6831036  
C    0.0000000    0.0000000    1.4700000  
C   -0.8785127   -0.7372425    2.1869543  
O   -1.8187535   -1.5261249    1.6395491  
C   -0.8723269   -0.7321790    3.6796354  
O   -1.7010379   -1.4274584    4.2670412  
C    0.1115397    0.0933559    4.4024240  
H    2.4028853    2.0163452    4.9860947  
H   -2.2861435   -1.9184361    2.3990168  
H    0.0832434    0.0693689    5.4835595  
H    3.3664920    2.8238276    2.6198634  
