64

C    7.4282239   -3.0492244   -2.2265738  
C    6.8376860   -1.8262261   -2.4456796  
C    7.8899733   -0.8905802   -2.6734037  
C    9.1108943   -1.6065596   -2.5803966  
N    8.7944983   -2.9139924   -2.3062986  
C   10.3586356   -0.9992923   -2.7511564  
C   10.3741323    0.3553712   -3.0210174  
O   11.5651652    0.9984073   -3.1969685  
C    9.1665660    1.0870332   -3.1172967  
O    9.3488027    2.4269765   -3.3905829  
C    7.9352899    0.4886554   -2.9486854  
H    9.4567708   -3.6603292   -2.1951317  
H   11.2927886   -1.5393750   -2.6813819  
H   11.3523104    1.9243088   -3.3720783  
H    8.4849591    2.8477162   -3.4391126  
H    7.0273071    1.0749522   -3.0280674  
H    6.9829909   -4.0070117   -2.0183183  
C    4.4878226   -2.1225239   -1.5677348  
C    3.2260915   -1.6607473   -1.8631397  
C    3.3567347   -0.7724505   -2.9714995  
C    4.7330253   -0.7316533   -3.3122139  
N    5.3917970   -1.5611581   -2.4389681  
C    5.2292372    0.0455300   -4.3631888  
C    4.3194782    0.7949501   -5.0835269  
O    4.7499703    1.5713841   -6.1202719  
C    2.9423430    0.7677547   -4.7586014  
O    2.1641571    1.5685991   -5.5687974  
C    2.4521483    0.0014840   -3.7217481  
H    2.3228223   -1.9300606   -1.3429785  
H    6.2770470    0.0810834   -4.6278253  
H    3.9654399    2.0043829   -6.4812287  
H    1.2487978    1.4927312   -5.2825022  
H    4.8146445   -2.8067982   -0.8035915  
C    0.0000000    0.0000000    0.0000000  
C    1.0662923   -0.0000101   -0.8334270  
C    0.4961873    0.0000065   -2.1718887  
C   -0.9663854   -0.0000848   -1.9540250  
N   -1.2632773   -0.0000083   -0.6828660  
C   -1.8985359   -0.0000514   -3.0477261  
C   -1.3925770    0.0004566   -4.3020547  
O   -2.1456378    0.0005414   -5.4151314  
C    0.0786240    0.0009326   -4.5545000  
O    0.4683767    0.0012591   -5.7221100  
C    1.0143171    0.0008444   -3.4159031  
H    2.1107200    0.0000633   -0.5721865  
H   -2.9622181   -0.0003268   -2.8593381  
H   -1.5042265    0.0009697   -6.1484419  
C    1.1188642   -0.0008217    2.2703808  
C    0.0000000    0.0000000    1.4700000  
C   -1.1323862   -0.0008904    2.3373528  
C   -0.6382662   -0.0019682    3.6669281  
N    0.7324016   -0.0038477    3.5902241  
C   -1.4770914   -0.0027325    4.7854808  
C   -2.8395474   -0.0020958    4.5576857  
O   -3.7039201   -0.0024443    5.6140350  
C   -3.3517868   -0.0013946    3.2384331  
O   -4.7300496   -0.0012389    3.1773122  
C   -2.5248543   -0.0009135    2.1344818  
H    1.3576314    0.0056174    4.3757045  
H   -1.1067570   -0.0036993    5.8013813  
H   -4.5940033   -0.0021850    5.2385129  
H   -4.9934601   -0.0007286    2.2519915  
H   -2.9462578   -0.0005617    1.1360343  
H    2.1619896   -0.0009344    2.0042067  
