60

C    4.2303300    0.5703294   -7.3178292  
C    5.2772657   -0.2699245   -7.0172197  
C    6.1645155   -0.2455741   -8.1338194  
C    5.6020170    0.6347581   -9.0932656  
N    4.4271135    1.1112854   -8.5668257  
C    6.2105358    0.9013486  -10.3234781  
C    7.4088723    0.2679411  -10.5898644  
O    8.0459838    0.4927067  -11.7758591  
C    7.9857517   -0.6141355   -9.6454238  
O    9.1804388   -1.1668339  -10.0584495  
C    7.3858542   -0.8778114   -8.4317009  
H    5.3873248   -0.8321928   -6.1057734  
H    3.8124246    1.7650585   -9.0170696  
H    5.7868902    1.5711569  -11.0590629  
H    8.8519481   -0.0396172  -11.7580184  
H    9.5024070   -1.7492727   -9.3636795  
H    7.8514425   -1.5582749   -7.7283694  
C    2.8912669   -0.6998116   -3.3332350  
C    1.7334695    0.0049281   -3.2500363  
C    1.6041102    0.7488995   -4.4807305  
C    2.7899386    0.4174235   -5.2935811  
N    3.5303614   -0.4649349   -4.5411801  
C    3.0393028    0.9187046   -6.5298011  
C    2.0755512    1.8468028   -7.0975618  
O    2.2101254    2.3528610   -8.2039499  
C    0.8125769    2.2121884   -6.2542379  
O   -0.0056403    2.9927350   -6.7217079  
C    0.6534236    1.6072169   -4.9341881  
H   -0.2239001    1.8652502   -4.3567402  
H    3.3315067   -1.3708305   -2.6136436  
H    4.3999326   -0.8765953   -4.8265370  
C    1.1319246    0.0015678   -0.8009268  
C    0.7969914    0.0034958   -2.1169401  
C   -0.6453340    0.0035696   -2.1842669  
C   -1.1266832    0.0015410   -0.7896025  
N    0.0000000    0.0000000    0.0000000  
C   -2.4346129    0.0013913   -0.4276292  
C   -3.4350111    0.0031335   -1.4820181  
O   -4.6384614    0.0030875   -1.2583914  
C   -2.9478961    0.0050442   -2.9661074  
O   -3.7809382    0.0062135   -3.8623773  
C   -1.5113825    0.0053055   -3.2312122  
H   -2.7664565    0.0000174    0.6013448  
H   -1.1823533    0.0068381   -4.2614848  
H    2.1104316    0.0009435   -0.3488059  
C    2.5528530    2.1414826    2.8079335  
C    2.0663498    1.7338582    4.0032312  
C    0.9804344    0.8229586    3.6752840  
C    0.9495562    0.7966882    2.1971295  
N    1.8690446    1.5676019    1.6831036  
C    0.0000000    0.0000000    1.4700000  
C   -0.8785127   -0.7372425    2.1869543  
O   -1.8187535   -1.5261249    1.6395491  
C   -0.8723269   -0.7321790    3.6796354  
O   -1.7010379   -1.4274584    4.2670412  
C    0.1115397    0.0933559    4.4024240  
H    2.4028853    2.0163452    4.9860947  
H   -2.2861435   -1.9184361    2.3990168  
H    0.0832434    0.0693689    5.4835595  
H    3.3664920    2.8238276    2.6198634  
