60

C    6.1844902   -1.8548052   -7.1756274  
C    7.2701374   -2.6751458   -7.3778098  
C    7.6025212   -2.5922154   -8.7624562  
C    6.6772774   -1.6983172   -9.3597796  
N    5.8291246   -1.2704034   -8.3687492  
C    6.7062274   -1.3774275  -10.7202872  
C    7.6872620   -1.9694776  -11.4917962  
O    7.7612873   -1.6909645  -12.8259492  
C    8.6192238   -2.8642648  -10.9141965  
O    9.5340880   -3.3712474  -11.8138283  
C    8.5910906   -3.1814987   -9.5721469  
H    7.7613265   -3.2620760   -6.6206845  
H    5.0742409   -0.6200088   -8.4917063  
H    6.0038209   -0.6970071  -11.1816505  
H    8.5055297   -2.2014634  -13.1705645  
H   10.1260832   -3.9658785  -11.3431272  
H    9.3180182   -3.8704289   -9.1581071  
C    5.7052416   -2.0986834   -4.6958674  
C    4.8302129   -1.6343311   -3.7670098  
C    3.9272652   -0.7382853   -4.4501079  
C    4.3509922   -0.7185537   -5.8632095  
N    5.4336789   -1.5634479   -5.9458734  
C    3.7483772    0.0103194   -6.8365046  
C    2.6063701    0.8302495   -6.4676276  
O    1.9959440    1.5225184   -7.2716456  
C    2.1405133    0.8248034   -4.9767380  
O    1.1803933    1.5114043   -4.6542327  
C    2.8699641   -0.0020530   -4.0185824  
H    4.8187251   -1.8901546   -2.7224829  
H    4.0749510    0.0105271   -7.8671641  
H    6.5257689   -2.7867003   -4.5723450  
C    3.2573670   -0.0002921   -1.5109382  
C    2.5379468   -0.0001711   -0.3591962  
C    1.1435043    0.0000330   -0.7338498  
C    1.1092608   -0.0000085   -2.2088474  
N    2.4227562    0.0001906   -2.6182610  
C   -0.0265533   -0.0002525   -2.9515663  
C   -1.3003033   -0.0002641   -2.2514979  
O   -2.3786785   -0.0004132   -2.8306425  
C   -1.2877724    0.0000310   -0.6895608  
O   -2.3539956    0.0003306   -0.0892035  
C    0.0000000    0.0000000    0.0000000  
H    2.9384091   -0.0000370    0.6389240  
H   -0.0296290   -0.0004088   -4.0327231  
H    4.3270394   -0.0004767   -1.6439445  
C    2.4951002    2.0940188    2.9809380  
C    1.9440701    1.6314916    1.8291961  
C    0.8759964    0.7350050    2.2038498  
C    0.8497377    0.7130254    3.6788474  
N    1.8560616    1.5571714    4.0882609  
C   -0.0205033   -0.0168748    4.4215661  
C   -0.9962600   -0.8356168    3.7214979  
O   -1.8224391   -1.5286685    4.3006425  
C   -0.9864710   -0.8277881    2.1595606  
O   -1.8030528   -1.5133726    1.5592035  
C    0.0000000    0.0000000    1.4700000  
H    2.2509283    1.8888011    0.8310761  
H   -0.0229599   -0.0187323    5.5027230  
H    3.3143982    2.7817323    3.1139444  
H    2.0889452    1.7545833    5.0442112  
