66

C    2.8233682   -0.7205532   -3.3382294  
C    3.4268672   -0.4842899   -4.5516693  
C    2.5842319    0.4170854   -5.2672726  
C    1.4720823    0.6983442   -4.4330401  
N    1.6478443   -0.0100055   -3.2702994  
C    0.4355942    1.5542942   -4.8175280  
C    0.5235655    2.1371665   -6.0668070  
O   -0.4609061    2.9814402   -6.4922838  
C    1.6251323    1.8686433   -6.9137210  
O    1.5672602    2.5248823   -8.1258862  
C    2.6478793    1.0241206   -6.5351767  
H   -0.4148265    1.7726469   -4.1864108  
H   -0.2071935    3.2724202   -7.3778499  
H    2.3476186    2.2892328   -8.6368799  
H    3.4787742    0.8374032   -7.2054214  
H    3.1377269   -1.3408174   -2.5163967  
C    1.1188647    0.0008252   -0.8003807  
C    0.0000000    0.0000000    0.0000000  
C   -1.1323854    0.0008867   -0.8673533  
C   -0.6382658    0.0019661   -2.1969280  
N    0.7324021    0.0038501   -2.1202238  
C   -1.4770906    0.0027278   -3.3154811  
C   -2.8395469    0.0020868   -3.0876860  
O   -3.7039189    0.0024327   -4.1440356  
C   -3.3517866    0.0013841   -1.7684334  
O   -4.7300490    0.0012234   -1.7073130  
C   -2.5248543    0.0009055   -0.6644820  
H   -1.1067559    0.0036958   -4.3313815  
H   -4.5940023    0.0021703   -3.7685138  
H   -4.9934599    0.0007124   -0.7819922  
H   -2.9462580    0.0005524    0.3339655  
H    2.1619899    0.0009412   -0.5342062  
C    4.6998385   -1.0658295   -5.0013986  
C    5.5513445   -1.9366903   -4.3618624  
C    6.6421258   -2.1789709   -5.2484831  
C    6.3994689   -1.4222495   -6.4233943  
N    5.2110413   -0.7597202   -6.2408814  
C    7.2726514   -1.4200440   -7.5153361  
C    8.4116921   -2.1956395   -7.4193433  
O    9.2984944   -2.2297833   -8.4563730  
C    8.6711366   -2.9578755   -6.2555127  
O    9.8463500   -3.6782012   -6.3133612  
C    7.8100274   -2.9607406   -5.1780114  
H    5.4038355   -2.3477250   -3.3778477  
H    4.7864565   -0.1362658   -6.9034629  
H    7.0933654   -0.8456079   -8.4137141  
H   10.0114815   -2.8231519   -8.1865082  
H    9.9460065   -4.1643259   -5.4891311  
H    8.0352539   -3.5548188   -4.3000464  
C    2.5311839    2.1237619    3.0120429  
C    1.9795631    1.6616747    1.8395852  
C    0.9223175    0.7739173    2.1983588  
C    0.8753926    0.7337535    3.6154372  
N    1.8668922    1.5631002    4.0777464  
C   -0.0496243   -0.0427881    4.3197917  
C   -0.9437528   -0.7922060    3.5801400  
O   -1.8685244   -1.5680278    4.2172520  
C   -0.9124520   -0.7656372    2.1655264  
O   -1.8671164   -1.5663939    1.5732860  
C    0.0000000    0.0000000    1.4700000  
H    2.3005065    1.9304404    0.8477417  
H    2.0679347    1.7444845    5.0445261  
H   -0.0904770   -0.0778569    5.3997470  
H   -2.3849669   -2.0011402    3.5251786  
H   -1.7775064   -1.4909735    0.6183591  
H    3.3468514    2.8078103    3.1724291  
