60

C    7.5529964   -2.1220154   -4.1507817  
C    8.7418276   -1.6239727   -4.6315106  
C    8.4207006   -0.7518264   -5.7135636  
C    7.0086362   -0.7573613   -5.8476148  
N    6.5131098   -1.6009844   -4.8846139  
C    6.3381247   -0.0065528   -6.8179186  
C    7.1070725    0.7641139   -7.6681951  
O    6.5036031    1.5169248   -8.6336552  
C    8.5172538    0.7825426   -7.5504286  
O    9.1412767    1.5990630   -8.4708807  
C    9.1794178    0.0418931   -6.5936100  
H    9.7202160   -1.8610593   -4.2500129  
H    5.5407809   -1.7971932   -4.7295009  
H    7.2119927    1.9703501   -9.1088994  
H   10.0908275    1.5542776   -8.3227264  
H   10.2606034    0.0760104   -6.5276510  
H    7.3646511   -2.8087927   -3.3434271  
C    2.8699641   -0.0020527   -4.0185824  
C    4.1392625   -0.0034669   -4.4881133  
C    4.0033713   -0.0054228   -5.9365709  
C    2.5438442   -0.0050011   -6.1739827  
N    1.8743091   -0.0029476   -5.0533991  
C    1.9886063   -0.0065221   -7.4994244  
C    2.8521791   -0.0079908   -8.5403735  
O    2.4734368   -0.0095120   -9.8297894  
C    4.3304462   -0.0080820   -8.3332793  
O    5.0569388   -0.0095858   -9.3269729  
C    4.8754003   -0.0065478   -6.9639918  
H    5.0547096   -0.0031237   -3.9215163  
H    0.9180298   -0.0063785   -7.6435631  
H    3.3075358   -0.0102827  -10.3332090  
C    3.2573673   -0.0002921   -1.5109381  
C    2.5379469   -0.0001710   -0.3591962  
C    1.1435042    0.0000332   -0.7338498  
C    1.1092607   -0.0000083   -2.2088474  
N    2.4227562    0.0001908   -2.6182610  
C   -0.0265532   -0.0002523   -2.9515663  
C   -1.3003033   -0.0002639   -2.2514979  
O   -2.3786784   -0.0004132   -2.8306425  
C   -1.2877726    0.0000312   -0.6895609  
O   -2.3539956    0.0003308   -0.0892035  
C    0.0000000    0.0000000    0.0000000  
H    2.9384091   -0.0000368    0.6389240  
H   -0.0296292   -0.0004086   -4.0327231  
H    4.3270395   -0.0004765   -1.6439444  
C    0.0000000    0.0000000    1.4700000  
C    1.0662921    0.0000102    2.3034270  
C    0.4961870   -0.0000064    3.6418889  
C   -0.9663858    0.0000850    3.4240247  
N   -1.2632773    0.0000084    2.1528658  
C   -1.8985362    0.0000517    4.5177257  
C   -1.3925775   -0.0004564    5.7720543  
O   -2.1456383   -0.0005410    6.8851312  
C    0.0786232   -0.0009323    6.0245000  
O    0.4683759   -0.0012588    7.1921102  
C    1.0143166   -0.0008442    4.8859032  
H    2.1107198   -0.0000632    2.0421868  
H   -2.9622183    0.0003270    4.3293377  
H   -1.5042274   -0.0009692    7.6184419  
H    2.0724152   -0.0013148    5.1109744  
