64

C    9.0088292    0.0003153   -0.6144218  
C   10.0608927    0.0014071   -1.5007784  
C   11.2583246    0.0008925   -0.7256941  
C   10.8708999   -0.0008194    0.6387927  
N    9.4984582    0.0008222    0.6707289  
C   11.7955560   -0.0020443    1.6875051  
C   13.1357302   -0.0018388    1.3526760  
O   14.0809346   -0.0033484    2.3373586  
C   13.5420343    0.0002342   -0.0029527  
O   14.9111471    0.0005932   -0.1728788  
C   12.6303882    0.0017166   -1.0380493  
H    9.9757545    0.0035518   -2.5739700  
H    8.9373059   -0.0103859    1.5031735  
H   11.5067211   -0.0032070    2.7295108  
H   14.9385328   -0.0026057    1.8926229  
H   15.1005553    0.0020013   -1.1161318  
H   12.9715118    0.0034741   -2.0666941  
C    6.6682521    0.0023718   -4.3668309  
C    5.4175873    0.0024208   -3.7938519  
C    5.6072942    0.0015614   -2.3801297  
C    7.0065885    0.0012979   -2.1479618  
N    7.6213759   -0.0001475   -3.3754192  
C    7.5601869    0.0007872   -0.8640939  
C    6.6852683    0.0008451    0.2048751  
O    7.1721938    0.0007113    1.4799903  
C    5.2859247    0.0007309   -0.0064394  
O    4.5477721    0.0003831    1.1590968  
C    4.7390840    0.0009613   -1.2727298  
H    4.4834516    0.0018991   -4.3290000  
H    8.6137258    0.0099132   -3.5274774  
H    6.4039033    0.0004827    2.0656477  
H    3.6139327    0.0003543    0.9276924  
H    6.9558181    0.0024888   -5.4042631  
C    3.2798077    0.0005856   -1.4499661  
C    2.5571132    0.0005565   -2.5996564  
C    1.1637425    0.0001547   -2.2210366  
C    1.1336959   -0.0000200   -0.7459475  
N    2.4483509   -0.0001429   -0.3402730  
C    0.0000000    0.0000000    0.0000000  
C   -1.2757370   -0.0000187   -0.6964411  
O   -2.3524597   -0.0000640   -0.1142306  
C   -1.2676502   -0.0000874   -2.2584078  
O   -2.3355774   -0.0004102   -2.8557287  
C    0.0181551    0.0001758   -2.9516297  
H    2.9547342    0.0006074   -3.5989118  
H    0.0150776    0.0003317   -4.0331632  
H    2.7563626    0.0012823    0.6148051  
C    0.0000000    0.0000000    1.4700000  
C    1.0521667    0.0011902    2.3562342  
C    0.4917218    0.0011957    3.6679131  
C   -0.9187428   -0.0003148    3.5178682  
N   -1.1833171    0.0009411    2.1707914  
C   -1.7951701   -0.0010350    4.6072090  
C   -1.2375837   -0.0005224    5.8710424  
O   -2.0474215   -0.0015360    6.9697579  
C    0.1673580    0.0013566    6.0411963  
O    0.5673524    0.0020687    7.3615553  
C    1.0325770    0.0023412    4.9669890  
H    2.0953057    0.0030649    2.0900562  
H   -2.0989778   -0.0102372    1.7591824  
H   -2.8710934   -0.0020419    4.4995513  
H   -1.4634884   -0.0006497    7.7393593  
H    1.5290710    0.0033153    7.3880045  
H    2.1042148    0.0039609    5.1284455  
