60

C   10.2517435    2.1158979   -2.4338827  
C    9.2027743    1.6551962   -1.6723807  
C    9.7521807    0.7673086   -0.7005743  
C   11.1529618    0.7256413   -0.9196684  
N   11.4223759    1.5542564   -1.9805321  
C   12.0172087   -0.0514315   -0.1424785  
C   11.4572097   -0.7998443    0.8746041  
O   12.2553571   -1.5761256    1.6641377  
C   10.0617611   -0.7717710    1.1085913  
O    9.6578460   -1.5716654    2.1575741  
C    9.2085264   -0.0056090    0.3420965  
H    8.1686614    1.9249451   -1.8021460  
H   12.3346296    1.7345589   -2.3590342  
H   13.0856920   -0.0876447   -0.3044469  
H   11.6717291   -2.0083744    2.3011657  
H    8.7030979   -1.4952462    2.2482303  
H   10.2573303    2.7995794   -3.2654520  
C    5.6706431   -0.0000128   -2.2998307  
C    6.9366747   -0.0017195   -1.8086715  
C    6.8296106   -0.0022717   -0.3687505  
C    5.3870842   -0.0007650   -0.0590649  
N    4.7390840    0.0009613   -1.2727298  
C    4.8700564   -0.0011572    1.1956807  
C    5.7961368   -0.0029737    2.3159068  
O    5.4290435   -0.0033984    3.4836152  
C    7.3281312   -0.0043376    2.0112791  
O    8.1174245   -0.0055641    2.9463061  
C    7.7645008   -0.0040378    0.6172084  
H    7.8422116   -0.0023200   -2.3888570  
H    3.8085782   -0.0001604    1.4010419  
H    5.3397979    0.0008321   -3.3257109  
C    3.2798077    0.0005856   -1.4499661  
C    2.5571132    0.0005565   -2.5996564  
C    1.1637425    0.0001547   -2.2210366  
C    1.1336959   -0.0000200   -0.7459475  
N    2.4483509   -0.0001429   -0.3402730  
C    0.0000000    0.0000000    0.0000000  
C   -1.2757370   -0.0000187   -0.6964411  
O   -2.3524597   -0.0000640   -0.1142306  
C   -1.2676502   -0.0000874   -2.2584078  
O   -2.3355774   -0.0004102   -2.8557287  
C    0.0181551    0.0001758   -2.9516297  
H    2.9547342    0.0006074   -3.5989118  
H    0.0150776    0.0003317   -4.0331632  
H    2.7563626    0.0012823    0.6148051  
C    2.5128556    2.1077716    2.9199648  
C    1.9592212    1.6432552    4.0696553  
C    0.8915788    0.7479214    3.6910360  
C    0.8684491    0.7287414    2.2159470  
N    1.8754542    1.5738793    1.8102719  
C    0.0000000    0.0000000    1.4700000  
C   -0.9772830   -0.8200135    2.1664417  
O   -1.8021297   -1.5120829    1.5842315  
C   -0.9711318   -0.8147624    3.7284083  
O   -1.7894187   -1.5009653    4.3257297  
C    0.0140216    0.0115358    4.4216297  
H    2.2638494    1.8988021    5.0689105  
H    0.0117648    0.0094386    5.5031631  
H    3.3327358    2.7953732    2.7900019  
H    2.1123206    1.7707734    0.8551938  
