64

C   -0.1387077    0.0017021   -4.3179690  
C    0.8680295    0.0011955   -5.2554908  
C    0.2429722    0.0018233   -6.5376383  
C   -1.1582725    0.0029979   -6.3175531  
N   -1.3554488    0.0009415   -4.9589754  
C   -2.0878500    0.0041707   -7.3619062  
C   -1.5938803    0.0044645   -8.6519339  
O   -2.4574176    0.0059478   -9.7089647  
C   -0.1991525    0.0029316   -8.8918279  
O    0.1346063    0.0030294  -10.2304648  
C    0.7184771    0.0015010   -7.8620321  
H    1.9231277   -0.0006417   -5.0415808  
H   -2.2494818    0.0117259   -4.5022808  
H   -1.9125267    0.0055962  -10.5066862  
H    1.0938155    0.0019694  -10.3047653  
H    1.7807474    0.0001630   -8.0766450  
C    3.3041276    0.0001179   -1.5420426  
C    2.5845371   -0.0004779   -0.3695857  
C    1.2040009   -0.0000006   -0.7283589  
C    1.1422378    0.0006039   -2.1454371  
N    2.4348645    0.0026112   -2.6077465  
C   -0.0655179    0.0008800   -2.8497922  
C   -1.2321765    0.0002327   -2.1101402  
O   -2.4392813    0.0001149   -2.7472526  
C   -1.1911209   -0.0000006   -0.6955274  
O   -2.4371527   -0.0002319   -0.1032865  
C    0.0000000    0.0000000    0.0000000  
H    3.0031534   -0.0000661    0.6222584  
H    2.7054636   -0.0071095   -3.5745261  
H   -3.1132983   -0.0000647   -2.0551788  
H   -2.3200284   -0.0004071    0.8516403  
H    4.3686627    0.0004072   -1.7024293  
C   -3.5414443    0.0051964   -7.1429023  
C   -4.2610332    0.0063776   -5.9704445  
C   -5.6415696    0.0076324   -6.3292177  
C   -5.7033336    0.0068582   -7.7462956  
N   -4.4107066    0.0073320   -8.2086069  
C   -6.9110897    0.0074207   -8.4506500  
C   -8.0777472    0.0084826   -7.7109971  
O   -9.2848529    0.0087185   -8.3481087  
C   -8.0366900    0.0096427   -6.2963842  
O   -9.2827206    0.0110375   -5.7041435  
C   -6.8455685    0.0093619   -5.6008585  
H   -3.8424154    0.0074446   -4.9786016  
H   -4.1401170   -0.0035876   -9.1753766  
H   -6.9649271    0.0069802   -9.5306050  
H   -9.9588685    0.0097936   -7.6560344  
H   -9.1655950    0.0117292   -4.7492169  
H   -6.8455673    0.0104553   -4.5171252  
C    2.4951002    2.0940188    2.9809380  
C    1.9440701    1.6314916    1.8291961  
C    0.8759964    0.7350050    2.2038498  
C    0.8497377    0.7130254    3.6788474  
N    1.8560616    1.5571714    4.0882609  
C   -0.0205033   -0.0168748    4.4215661  
C   -0.9962600   -0.8356168    3.7214979  
O   -1.8224391   -1.5286685    4.3006425  
C   -0.9864710   -0.8277881    2.1595606  
O   -1.8030528   -1.5133726    1.5592035  
C    0.0000000    0.0000000    1.4700000  
H    2.2509283    1.8888011    0.8310761  
H   -0.0229599   -0.0187323    5.5027230  
H    3.3143982    2.7817323    3.1139444  
H    2.0889452    1.7545833    5.0442112  
