64

C   -9.1162058    3.1095154   -1.7933327  
C  -10.2343371    2.3093292   -1.8374955  
C   -9.7867918    0.9833883   -2.1135075  
C   -8.3740169    1.0364049   -2.2283283  
N   -7.9997250    2.3422880   -2.0303571  
C   -7.5942802   -0.0923311   -2.4980583  
C   -8.2526995   -1.2965775   -2.6544302  
O   -7.5398196   -2.4301309   -2.9187657  
C   -9.6616920   -1.3696527   -2.5438943  
O  -10.1683731   -2.6399084   -2.7257379  
C  -10.4315808   -0.2564852   -2.2780839  
H  -11.2479631    2.6407472   -1.6901200  
H   -7.0556078    2.6835841   -2.0422443  
H   -8.1834244   -3.1470389   -2.9900415  
H  -11.1253930   -2.6014999   -2.6349485  
H  -11.5089508   -0.3433025   -2.1992609  
H   -9.0268946    4.1670768   -1.6129308  
C   -4.4516595    2.1220212   -0.2154637  
C   -5.6505107    1.6231922   -0.6697670  
C   -5.3526002    0.7489274   -1.7567400  
C   -3.9437154    0.7540403   -1.9208883  
N   -3.4276993    1.5994574   -0.9703020  
C   -3.2941076    0.0012878   -2.9038237  
C   -4.0810730   -0.7709245   -3.7360201  
O   -3.4983895   -1.5256626   -4.7126798  
C   -5.4884225   -0.7889632   -3.5881685  
O   -6.1319969   -1.6071811   -4.4935277  
C   -6.1299739   -0.0463964   -2.6188736  
H   -6.6205221    1.8611255   -0.2679466  
H   -2.4522687    1.7958517   -0.8363407  
H   -4.2167867   -1.9799191   -5.1718316  
H   -7.0781690   -1.5620006   -4.3252420  
H   -4.2460849    2.8103292    0.5863658  
C    0.0000000    0.0000000    0.0000000  
C    1.0541688   -0.0001723   -0.8560392  
C    0.5103136   -0.0000455   -2.1935956  
C   -0.9576373    0.0002461   -2.0455730  
N   -1.2018460   -0.0001389   -0.6915968  
C   -1.8348314    0.0008319   -3.0810607  
C   -1.2972851    0.0009739   -4.4314603  
O   -2.0050676    0.0014268   -5.4301316  
C    0.2542619    0.0004184   -4.6117572  
O    0.7184666    0.0002257   -5.7439122  
C    1.0974551    0.0000873   -3.4189129  
H    2.0940752   -0.0005484   -0.5817983  
H    2.1707276   -0.0000912   -3.5523673  
H   -2.1128194    0.0014915   -0.2706789  
C    1.1243417   -0.0099156    2.2619005  
C    0.7474090   -0.0234034    3.5848544  
C   -0.6787367   -0.0234952    3.6114698  
C   -1.1201739   -0.0099357    2.2635546  
N    0.0000000    0.0000000    1.4700000  
C   -2.4730812   -0.0065396    1.9108239  
C   -3.3971947   -0.0173298    2.9375057  
O   -4.7313508   -0.0149487    2.6493466  
C   -2.9763630   -0.0305536    4.2886322  
O   -4.0166453   -0.0397858    5.1947621  
C   -1.6418541   -0.0336380    4.6373480  
H    1.4178735   -0.0310004    4.4271209  
H   -2.8160170    0.0039190    0.8854031  
H   -5.1938803   -0.0234410    3.4974381  
H   -3.6464643   -0.0484781    6.0827341  
H   -1.3497443   -0.0436789    5.6809233  
H    2.1062470   -0.0051382    1.8205408  
