64

C   -4.2271468    0.7161810   -6.0727058  
C   -3.5842425   -0.0024177   -7.0539080  
C   -4.5864157   -0.7306359   -7.7609772  
C   -5.8321850   -0.4136079   -7.1614124  
N   -5.5778295    0.4658024   -6.1383983  
C   -7.0436793   -0.9530135   -7.6042585  
C   -6.9967541   -1.8281685   -8.6720046  
O   -8.1503220   -2.3836877   -9.1449657  
C   -5.7634774   -2.1571268   -9.2832562  
O   -5.8828116   -3.0427701  -10.3343216  
C   -4.5678912   -1.6255782   -8.8467300  
H   -6.2714784    0.8750416   -5.5389353  
H   -7.9964691   -0.7155235   -7.1514984  
H   -7.8962387   -2.9555922   -9.8809219  
H   -5.0053067   -3.2118736  -10.6906823  
H   -3.6388861   -1.8963548   -9.3346934  
H   -3.8289364    1.3864042   -5.3302853  
C   -0.1496416   -0.0015616   -4.3176961  
C    0.8605985   -0.0020609   -5.2251593  
C    0.2508220   -0.0027750   -6.5339791  
C   -1.2079383   -0.0026205   -6.3130522  
N   -1.3844309   -0.0022740   -4.9485963  
C   -2.1356004   -0.0027544   -7.3035806  
C   -1.6659559   -0.0032977   -8.6790695  
O   -2.4225836   -0.0035181   -9.6412627  
C   -0.1253100   -0.0037218   -8.9363926  
O    0.2819500   -0.0044871  -10.0902550  
C    0.7762281   -0.0032491   -7.7870095  
H    1.9128694   -0.0021248   -5.0030348  
H    1.8415248   -0.0033417   -7.9737355  
H   -2.2733176   -0.0005419   -4.4828447  
C    3.3003544    0.0005274   -1.4738988  
C    2.5232813    0.0003494   -2.6090747  
C    1.1623199   -0.0001321   -2.1820103  
C    1.1711883    0.0000582   -0.7636141  
N    2.4852299   -0.0014920   -0.3662360  
C    0.0000000    0.0000000    0.0000000  
C   -1.2020383    0.0000519   -0.6806477  
O   -2.3759250    0.0003494    0.0157744  
C   -1.2314656   -0.0005115   -2.0955510  
O   -2.5054391   -0.0008040   -2.6250180  
C   -0.0764517   -0.0007275   -2.8495195  
H    2.8919953   -0.0005622   -3.6205304  
H    2.8036267    0.0088182    0.5858661  
H   -3.0835639    0.0000346   -0.6418817  
H   -2.4360050   -0.0011531   -3.5845921  
H    4.3715546    0.0004893   -1.3667137  
C    2.5285572    2.1210227    2.9438989  
C    1.9331703    1.6216660    4.0790748  
C    0.8903039    0.7472258    3.6520102  
C    0.8972198    0.7527806    2.2336141  
N    1.9028376    1.5986179    1.8362361  
C    0.0000000    0.0000000    1.4700000  
C   -0.9207814   -0.7726952    2.1506477  
O   -1.8198395   -1.5274828    1.4542253  
C   -0.9436862   -0.7911793    3.5655508  
O   -1.9197945   -1.6098497    4.0950179  
C   -0.0590329   -0.0485852    4.3195194  
H    2.2150357    1.8593692    5.0905303  
H    2.1533708    1.7953814    0.8841339  
H   -2.3621246   -1.9821033    2.1118817  
H   -1.8668290   -1.5649508    5.0545920  
H   -0.1007624   -0.0827977    5.4019087  
H    3.3491200    2.8096064    2.8367138  
