62

C   -6.8603699    2.1254854   -0.0917863  
C   -7.1365385    2.9761757    0.9534526  
C   -8.5538563    2.9930650    1.1132129  
C   -9.0939842    2.1259747    0.1291687  
N   -8.0386640    1.6173293   -0.5865094  
C  -10.4667661    1.8986384   -0.0071282  
C  -11.3096277    2.5584131    0.8660615  
O  -12.6588952    2.3723362    0.7773759  
C  -10.7897896    3.4278426    1.8543314  
O  -11.7573006    4.0103107    2.6467945  
C   -9.4356359    3.6527981    1.9891940  
H   -6.4063566    3.5187567    1.5291556  
H   -8.1131055    0.9639008   -1.3451072  
H  -10.8847556    1.2391103   -0.7551320  
H  -13.0557783    2.9177399    1.4689569  
H  -11.3225020    4.5817305    3.2871332  
H   -9.0669090    4.3244460    2.7556191  
C   -4.3329660    2.1450171   -0.3175482  
C   -5.5711451    1.7385432   -0.6826116  
C   -5.3538013    0.8273997   -1.7957507  
C   -3.8860915    0.7997433   -1.9736450  
N   -3.2823478    1.5701205   -1.1099310  
C   -3.2578655    0.0024282   -2.9908505  
C   -4.0594178   -0.7340897   -3.7935892  
O   -3.6090884   -1.5234309   -4.7836321  
C   -5.5440609   -0.7276253   -3.6388176  
O   -6.2117105   -1.4223044   -4.4049018  
C   -6.1645244    0.0985307   -2.5879053  
H   -4.4116857   -1.9150018   -5.1730704  
H   -7.2431275    0.0755601   -2.5084184  
H   -4.0641802    2.8271376    0.4732984  
C    0.0000000    0.0000000    0.0000000  
C    1.0521666   -0.0011982   -0.8862343  
C    0.4917215   -0.0011996   -2.1979132  
C   -0.9187429    0.0003215   -2.0478682  
N   -1.1833171   -0.0009323   -0.7007913  
C   -1.7951703    0.0010483   -3.1372089  
C   -1.2375841    0.0005313   -4.4010422  
O   -2.0474218    0.0015510   -5.4997578  
C    0.1673576   -0.0013585   -4.5711963  
O    0.5673520   -0.0020735   -5.8915554  
C    1.0325768   -0.0023493   -3.4969892  
H    2.0953056   -0.0030808   -0.6200564  
H   -2.0989778    0.0102529   -0.2891822  
H   -1.4634888    0.0006601   -6.2693595  
H    1.5290707   -0.0033271   -5.9180047  
H    2.1042146   -0.0039770   -3.6584456  
C    3.2573670    0.0002920    2.9809380  
C    2.5379467    0.0001709    1.8291961  
C    1.1435042   -0.0000331    2.2038498  
C    1.1092607    0.0000083    3.6788474  
N    2.4227561   -0.0001909    4.0882609  
C   -0.0265533    0.0002524    4.4215661  
C   -1.3003036    0.0002640    3.7214979  
O   -2.3786784    0.0004133    4.3006425  
C   -1.2877726   -0.0000311    2.1595606  
O   -2.3539958   -0.0003306    1.5592035  
C    0.0000000    0.0000000    1.4700000  
H    2.9384090    0.0000368    0.8310761  
H   -0.0296291    0.0004086    5.5027230  
H    4.3270393    0.0004765    3.1139444  
H    2.7280493    0.0013407    5.0442112  
