64

C   -3.9308694    0.7133837   -6.3081262  
C   -5.2798959    0.4642442   -6.4107149  
C   -5.4541077   -0.4444224   -7.4963365  
C   -4.1651865   -0.7166528   -8.0221692  
N   -3.2634629    0.0038449   -7.2789358  
C   -3.9561554   -1.5763731   -9.1047471  
C   -5.0685182   -2.1723679   -9.6665457  
O   -4.9214503   -3.0208548  -10.7255329  
C   -6.3627861   -1.9130031   -9.1562336  
O   -7.3678518   -2.5819386   -9.8238505  
C   -6.5697718   -1.0647691   -8.0884413  
H   -6.0444636    0.8864503   -5.7812930  
H   -2.9763639   -1.7878938   -9.5102964  
H   -5.8091679   -3.3211845  -10.9601060  
H   -8.2087525   -2.3518443   -9.4169754  
H   -7.5728590   -0.8852895   -7.7195491  
H   -3.3920813    1.3421866   -5.6201775  
C    0.0950448    0.0004350   -4.4015596  
C    1.1162027   -0.0007609   -5.3233526  
C    0.5111087   -0.0004559   -6.6150419  
C   -0.8933808    0.0012410   -6.4167190  
N   -1.1116072   -0.0002072   -5.0613621  
C   -1.8066471    0.0022811   -7.4753654  
C   -1.2927267    0.0019023   -8.7575754  
O   -2.1397637    0.0032273   -9.8278748  
C    0.1055538   -0.0001591   -8.9758059  
O    0.4600366   -0.0007036  -10.3091058  
C    1.0070993   -0.0014589   -7.9319005  
H    2.1678556   -0.0028386   -5.0931014  
H   -2.0126134    0.0110379   -4.6185943  
H   -1.5825647    0.0023856  -10.6170477  
H    1.4202825   -0.0020902  -10.3685178  
H    2.0725704   -0.0032120   -8.1300093  
C    3.3321173    0.0004714   -1.3379336  
C    2.6974184    0.0000115   -2.5332313  
C    1.2800437   -0.0002119   -2.2052840  
C    1.2395034    0.0000643   -0.7271298  
N    2.4394063    0.0005459   -0.2131037  
C    0.0000000    0.0000000    0.0000000  
C   -1.1468702    0.0000634   -0.7169544  
O   -2.3742202    0.0000072   -0.1695489  
C   -1.1388770    0.0001606   -2.2096356  
O   -2.2206231    0.0000903   -2.7970412  
C    0.1454523    0.0001814   -2.9324241  
H    3.1367986   -0.0000653   -3.5160949  
H   -2.9844345    0.0001025   -0.9290168  
H    4.3940040    0.0007618   -1.1498638  
C    2.5311839    2.1237619    3.0120429  
C    1.9795631    1.6616747    1.8395852  
C    0.9223175    0.7739173    2.1983588  
C    0.8753926    0.7337535    3.6154372  
N    1.8668922    1.5631002    4.0777464  
C   -0.0496243   -0.0427881    4.3197917  
C   -0.9437528   -0.7922060    3.5801400  
O   -1.8685244   -1.5680278    4.2172520  
C   -0.9124520   -0.7656372    2.1655264  
O   -1.8671164   -1.5663939    1.5732860  
C    0.0000000    0.0000000    1.4700000  
H    2.3005065    1.9304404    0.8477417  
H    2.0679347    1.7444845    5.0445261  
H   -0.0904770   -0.0778569    5.3997470  
H   -2.3849669   -2.0011402    3.5251786  
H   -1.7775064   -1.4909735    0.6183591  
H    3.3468514    2.8078103    3.1724291  
