64

C    4.1440441   -3.6140112   -5.2049132  
C    5.0931227   -4.4199930   -5.7898153  
C    4.9017495   -4.3322004   -7.2005838  
C    3.8124739   -3.4502675   -7.4187559  
N    3.3745787   -3.0338651   -6.1860871  
C    3.3440362   -3.1285166   -8.6961883  
C    3.9871222   -3.7073844   -9.7730040  
O    3.5707454   -3.4274265  -11.0423594  
C    5.0755455   -4.5901104   -9.5756546  
O    5.6096179   -5.0847361  -10.7476007  
C    5.5380318   -4.9081884   -8.3157109  
H    5.8317304   -5.0007266   -5.2642662  
H    2.5142278   -2.4571775   -8.8691726  
H    4.1463069   -3.9280098  -11.6351594  
H    6.3388203   -5.6717424  -10.5255852  
H    6.3737081   -5.5876983   -8.1957532  
H    3.9541929   -3.4081906   -4.1654168  
C    2.2675097   -2.0960610   -5.9498184  
C    1.7744246   -1.6329634   -4.7723279  
C    0.6888618   -0.7368505   -5.0938399  
C    0.5891927   -0.7157115   -6.5657132  
N    1.5740350   -1.5599379   -7.0242506  
C   -0.3170783    0.0136359   -7.2645893  
C   -1.2569154    0.8326279   -6.5172654  
O   -2.1110288    1.5252265   -7.0549439  
C   -1.1693695    0.8256867   -4.9577486  
O   -1.9551699    1.5114887   -4.3178622  
C   -0.1496415   -0.0015615   -4.3176961  
H    2.1306440   -1.8896606   -3.7905807  
H   -0.3733624    0.0148799   -8.3442836  
H    1.7590690   -1.7578570   -7.9905002  
C    3.3003543    0.0005276   -1.4738987  
C    2.5232814    0.0003497   -2.6090747  
C    1.1623200   -0.0001320   -2.1820103  
C    1.1711883    0.0000582   -0.7636140  
N    2.4852300   -0.0014919   -0.3662360  
C    0.0000000    0.0000000    0.0000000  
C   -1.2020384    0.0000519   -0.6806477  
O   -2.3759249    0.0003493    0.0157743  
C   -1.2314656   -0.0005115   -2.0955510  
O   -2.5054392   -0.0008039   -2.6250180  
C   -0.0764516   -0.0007274   -2.8495195  
H    2.8919955   -0.0005620   -3.6205304  
H    2.8036267    0.0088183    0.5858662  
H   -3.0835638    0.0000347   -0.6418818  
H   -2.4360047   -0.0011529   -3.5845921  
H    4.3715549    0.0004895   -1.3667136  
C    2.5285572    2.1210227    2.9438989  
C    1.9331703    1.6216660    4.0790748  
C    0.8903039    0.7472258    3.6520102  
C    0.8972198    0.7527806    2.2336141  
N    1.9028376    1.5986179    1.8362361  
C    0.0000000    0.0000000    1.4700000  
C   -0.9207814   -0.7726952    2.1506477  
O   -1.8198395   -1.5274828    1.4542253  
C   -0.9436862   -0.7911793    3.5655508  
O   -1.9197945   -1.6098497    4.0950179  
C   -0.0590329   -0.0485852    4.3195194  
H    2.2150357    1.8593692    5.0905303  
H    2.1533708    1.7953814    0.8841339  
H   -2.3621246   -1.9821033    2.1118817  
H   -1.8668290   -1.5649508    5.0545920  
H   -0.1007624   -0.0827977    5.4019087  
H    3.3491200    2.8096064    2.8367138  
