60

C    5.1039260   -2.7602635   -7.3034249  
C    6.0247259   -2.2327592   -8.1788305  
C    5.7360920   -0.8409709   -8.2980589  
C    4.6193572   -0.5746461   -7.4650514  
N    4.2594014   -1.7619548   -6.8773898  
C    4.0593867    0.6998853   -7.3354705  
C    4.6374689    1.7242824   -8.0597690  
O    4.1307040    2.9884591   -7.9699873  
C    5.7519469    1.4783381   -8.8965893  
O    6.2133386    2.6011565   -9.5521354  
C    6.3047242    0.2211813   -9.0251165  
H    6.8074054   -2.7835818   -8.6717807  
H    3.5050763   -1.8817660   -6.2257602  
H    4.6730829    3.5416673   -8.5470930  
H    6.9660453    2.3483781  -10.0954032  
H    7.1582830    0.0632495   -9.6739416  
H    4.9818726   -3.7699120   -6.9503377  
C    2.9127954   -0.7214785   -3.3153353  
C    3.5543791   -0.5031931   -4.4921092  
C    2.7457297    0.4250570   -5.2466115  
C    1.5720416    0.7318908   -4.4069097  
N    1.7334695    0.0049281   -3.2500363  
C    0.5691413    1.5730687   -4.7651217  
C    0.6510588    2.2191799   -6.0644929  
O   -0.2019679    2.9933399   -6.4784044  
C    1.8850621    1.9086324   -6.9703641  
O    1.9647747    2.4464583   -8.0665616  
C    2.9022249    0.9847028   -6.4747981  
H    4.4875230   -0.9424619   -4.7969015  
H   -0.2829847    1.7845541   -4.1341978  
H    3.2021876   -1.3520602   -2.4904058  
C    1.1319246    0.0015678   -0.8009268  
C    0.7969914    0.0034958   -2.1169401  
C   -0.6453340    0.0035696   -2.1842669  
C   -1.1266832    0.0015410   -0.7896025  
N    0.0000000    0.0000000    0.0000000  
C   -2.4346129    0.0013913   -0.4276292  
C   -3.4350111    0.0031335   -1.4820181  
O   -4.6384614    0.0030875   -1.2583914  
C   -2.9478961    0.0050442   -2.9661074  
O   -3.7809382    0.0062135   -3.8623773  
C   -1.5113825    0.0053055   -3.2312122  
H   -2.7664565    0.0000174    0.6013448  
H   -1.1823533    0.0068381   -4.2614848  
H    2.1104316    0.0009435   -0.3488059  
C    2.4951002    2.0940188    2.9809380  
C    1.9440701    1.6314916    1.8291961  
C    0.8759964    0.7350050    2.2038498  
C    0.8497377    0.7130254    3.6788474  
N    1.8560616    1.5571714    4.0882609  
C   -0.0205033   -0.0168748    4.4215661  
C   -0.9962600   -0.8356168    3.7214979  
O   -1.8224391   -1.5286685    4.3006425  
C   -0.9864710   -0.8277881    2.1595606  
O   -1.8030528   -1.5133726    1.5592035  
C    0.0000000    0.0000000    1.4700000  
H    2.2509283    1.8888011    0.8310761  
H   -0.0229599   -0.0187323    5.5027230  
H    3.3143982    2.7817323    3.1139444  
H    2.0889452    1.7545833    5.0442112  
