60

C    7.2684536    0.0008709   -5.4303012  
C    6.5240229    0.0019452   -6.5871455  
C    7.4459760    0.0020033   -7.6755398  
C    8.7496626    0.0006428   -7.1166789  
N    8.6056965    0.0019336   -5.7514362  
C    9.9080852    0.0000097   -7.8995238  
C    9.7475188    0.0004567   -9.2715279  
O   10.8450673   -0.0004769  -10.0829457  
C    8.4550334    0.0021862   -9.8479778  
O    8.4617168    0.0028491  -11.2275787  
C    7.3117793    0.0030848   -9.0762944  
H    5.4487597    0.0037110   -6.6400494  
H    9.3594870   -0.0091458   -5.0883682  
H   10.9045593   -0.0008829   -7.4797127  
H   10.5137401    0.0003436  -10.9904074  
H    7.5504591    0.0039939  -11.5361429  
H    6.3352477    0.0045904   -9.5462546  
C    6.8354437    0.0008786   -4.0255229  
C    5.5758874    0.0005992   -3.5179853  
C    5.7016159    0.0007905   -2.0795737  
C    7.1480382    0.0012363   -1.7886223  
N    7.7802454    0.0008701   -3.0105895  
C    7.6812948    0.0019202   -0.5406876  
C    6.7698185    0.0020122    0.5914547  
O    7.1520245    0.0025452    1.7543043  
C    5.2340022    0.0012939    0.3067212  
O    4.4569006    0.0010578    1.2519059  
C    4.7795901    0.0008674   -1.0815733  
H    4.6629022    0.0001117   -4.0863787  
H    8.7453470    0.0023682   -0.3491099  
H    8.7747876    0.0025946   -3.1444910  
C    3.3321168    0.0004716   -1.3379341  
C    2.6974177    0.0000118   -2.5332316  
C    1.2800432   -0.0002116   -2.2052842  
C    1.2395033    0.0000644   -0.7271298  
N    2.4394059    0.0005460   -0.2131041  
C    0.0000000    0.0000000    0.0000000  
C   -1.1468704    0.0000635   -0.7169542  
O   -2.3742206    0.0000074   -0.1695488  
C   -1.1388774    0.0001608   -2.2096352  
O   -2.2206238    0.0000906   -2.7970409  
C    0.1454514    0.0001818   -2.9324241  
H    3.1367978   -0.0000649   -3.5160956  
H   -2.9844350    0.0001027   -0.9290164  
H    0.1083567    0.0003684   -4.0135594  
C    0.8681109    0.7263879    2.2709268  
C    0.6127770    0.5096195    3.5869401  
C   -0.4920590   -0.4175482    3.6542670  
C   -0.8620974   -0.7254003    2.2596025  
N    0.0000000    0.0000000    1.4700000  
C   -1.8641242   -1.5660088    1.8976294  
C   -2.6293522   -2.2103885    2.9520183  
O   -3.5512764   -2.9839180    2.7283916  
C   -2.2549728   -1.8987399    4.4361073  
O   -2.8923672   -2.4351063    5.3323774  
C   -1.1543735   -0.9755647    4.7012123  
H    1.1382914    0.9492124    4.4159191  
H   -2.1192137   -1.7782617    0.8686553  
H   -0.9013378   -0.7652422    5.7314848  
H    1.6172880    1.3558399    1.8188057  
