60

C   10.9550836   -2.1222261    0.0943326  
C    9.7223347   -1.6606510   -0.3053463  
C    9.9447103   -0.7739433   -1.4002886  
C   11.3445293   -0.7338630   -1.6257352  
N   11.9283661   -1.5622464   -0.6997041  
C   11.9264233    0.0417497   -2.6330151  
C   11.0797602    0.7903072   -3.4273706  
O   11.5949812    1.5652021   -4.4259199  
C    9.6804131    0.7638064   -3.2177479  
O    8.9723370    1.5636389   -4.0908108  
C    9.1056899   -0.0009146   -2.2240571  
H    8.7789578   -1.9290746    0.1384798  
H   12.9128062   -1.7434580   -0.6221148  
H   12.9925820    0.0767498   -2.8098830  
H   10.8432160    1.9978245   -4.8513054  
H    8.0363639    1.4883320   -3.8813167  
H   11.2172049   -2.8054761    0.8839032  
C    6.5597224   -0.0008209    1.3835014  
C    7.6114515   -0.0009111    0.5244666  
C    7.0637929   -0.0009868   -0.8115369  
C    5.5962696   -0.0009036   -0.6593385  
N    5.3559136   -0.0012035    0.6953269  
C    4.7161325   -0.0005435   -1.6923264  
C    5.2498343   -0.0004421   -3.0442497  
O    4.5392134   -0.0001859   -4.0409037  
C    6.8008623   -0.0007795   -3.2289604  
O    7.2618442   -0.0010042   -4.3624314  
C    7.6474458   -0.0008759   -2.0385198  
H    8.6521340   -0.0011057    0.7957479  
H    6.5627892   -0.0007236    2.4614074  
H    4.4461412    0.0003273    1.1188351  
C    3.2573665   -0.0002920   -1.5109385  
C    2.5379463   -0.0001709   -0.3591964  
C    1.1435038    0.0000331   -0.7338500  
C    1.1092599   -0.0000083   -2.2088477  
N    2.4227553    0.0001909   -2.6182613  
C   -0.0265539   -0.0002524   -2.9515660  
C   -1.3003040   -0.0002640   -2.2514977  
O   -2.3786790   -0.0004133   -2.8306421  
C   -1.2877727    0.0000311   -0.6895603  
O   -2.3539959    0.0003306   -0.0892030  
C    0.0000000    0.0000000    0.0000000  
H    2.9384091   -0.0000367    0.6389234  
H   -0.0296303   -0.0004086   -4.0327229  
H    2.7280482   -0.0013407   -3.5742119  
C    2.3971438    2.0127888    3.1728260  
C    1.9431056    1.6308205    1.9564670  
C    0.8496017    0.7127664    2.2356185  
C    0.7794028    0.6545384    3.7115134  
N    1.6840587    1.4146091    4.2663826  
C   -0.1885723   -0.1578550    4.3957118  
C   -1.0476298   -0.8789867    3.6398520  
O   -2.0015663   -1.6796266    4.1448486  
C   -1.0022026   -0.8410666    2.1483229  
O   -1.8147390   -1.5232959    1.5241687  
C    0.0000000    0.0000000    1.4700000  
H    2.3054237    1.9346118    0.9892483  
H   -0.2170646   -0.1815267    5.4753125  
H   -2.4487139   -2.0549881    3.3649027  
H    3.2048689    2.6911772    3.3971983  
