60

C    8.3841389    0.7138654   -3.6981521  
C    9.6505049    0.4655837   -4.1747441  
C   10.2671327   -0.4432834   -3.2646176  
C    9.3207740   -0.7165145   -2.2439925  
N    8.1892491    0.0036057   -2.5367315  
C    9.5886709   -1.5766866   -1.1748228  
C   10.8345002   -2.1721126   -1.1354102  
O   11.1486058   -3.0210033   -0.1137768  
C   11.7922650   -1.9117484   -2.1442291  
O   12.9855293   -2.5802161   -1.9636359  
C   11.5287595   -1.0630680   -3.1991382  
H   10.0777201    0.8884753   -5.0678536  
H    8.8717449   -1.7889693   -0.3936979  
H   12.0525156   -3.3208174   -0.2760179  
H   13.5759753   -2.3494505   -2.6873241  
H   12.2822921   -0.8828216   -3.9568836  
H    7.6050084    1.3425135   -4.0940270  
C    5.6664810    0.0014066   -2.2647026  
C    4.7390840    0.0009613   -1.2727298  
C    5.4604950    0.0006395   -0.0219694  
C    6.8944812    0.0009655   -0.3690621  
N    6.9515096    0.0010264   -1.7437030  
C    7.9048599    0.0011995    0.5369400  
C    7.5567537    0.0008993    1.9480947  
O    8.3942799    0.0010144    2.8407592  
C    6.0443616    0.0002997    2.3385747  
O    5.7391072   -0.0002635    3.5235134  
C    5.0461778    0.0003722    1.2720471  
H    8.9502793    0.0015672    0.2612451  
H    4.0011828    0.0001604    1.5508123  
H    5.5192864    0.0017637   -3.3325147  
C    3.2798077    0.0005856   -1.4499661  
C    2.5571132    0.0005565   -2.5996564  
C    1.1637425    0.0001547   -2.2210366  
C    1.1336959   -0.0000200   -0.7459475  
N    2.4483509   -0.0001429   -0.3402730  
C    0.0000000    0.0000000    0.0000000  
C   -1.2757370   -0.0000187   -0.6964411  
O   -2.3524597   -0.0000640   -0.1142306  
C   -1.2676502   -0.0000874   -2.2584078  
O   -2.3355774   -0.0004102   -2.8557287  
C    0.0181551    0.0001758   -2.9516297  
H    2.9547342    0.0006074   -3.5989118  
H    0.0150776    0.0003317   -4.0331632  
H    2.7563626    0.0012823    0.6148051  
C    0.8175213    0.6860729    2.3021913  
C    0.0000000    0.0000000    1.4700000  
C   -0.8887526   -0.7456559    2.3478473  
C   -0.4549825   -0.3816753    3.7138435  
N    0.5448156    0.4573574    3.6934124  
C   -1.0945674   -0.9182058    4.8835240  
C   -2.1210866   -1.7789155    4.6970523  
O   -2.8083856   -2.3554314    5.6976972  
C   -2.5824069   -2.1655116    3.3310774  
O   -3.5227682   -2.9541547    3.2362962  
C   -1.9100805   -1.6015804    2.1470656  
H   -0.7567140   -0.6349833    5.8697035  
H   -3.4728268   -2.9124471    5.2533954  
H   -2.2742832   -1.9066565    1.1752040  
H    1.6189533    1.3585343    2.0405121  
