62

C    5.7914592   -0.7097560   -0.5264330  
C    6.3889979   -0.4599124    0.6872366  
C    7.4619346    0.4479729    0.4440258  
C    7.4703059    0.7190232   -0.9482344  
N    6.4444274   -0.0013963   -1.5078646  
C    8.3977249    1.5777411   -1.5459686  
C    9.3335548    2.1739282   -0.7231915  
O   10.2621391    3.0214679   -1.2546246  
C    9.3415864    1.9157342    0.6682426  
O   10.3357249    2.5847132    1.3519804  
C    8.4271343    1.0684895    1.2585645  
H    6.0892060   -0.8811602    1.6315183  
H    8.4095024    1.7883600   -2.6064887  
H   10.8104767    3.3221250   -0.5182850  
H   10.2710026    2.3554407    2.2841014  
H    8.4580693    0.8898954    2.3270329  
H    4.9520481   -1.3383138   -0.7698708  
C    2.5562217   -0.0001551   -3.6003001  
C    3.5357956   -0.0006715   -2.6598164  
C    4.7960225   -0.0006602   -3.3645597  
C    4.4679970   -0.0000615   -4.8030274  
N    3.0942343   -0.0001763   -4.8782995  
C    5.3873325    0.0005227   -5.8012894  
C    6.7937415    0.0003386   -5.4344808  
O    7.6974454    0.0007633   -6.2600829  
C    7.1641097   -0.0005455   -3.9170382  
O    8.3448916   -0.0010145   -3.5960807  
C    6.0844250   -0.0008427   -2.9331008  
H    3.3919673   -0.0012030   -1.5940179  
H    5.1255396    0.0010863   -6.8502770  
H    2.5641260    0.0016989   -5.7303728  
C    0.0000000    0.0000000    0.0000000  
C    1.0541688   -0.0001722   -0.8560390  
C    0.5103141   -0.0000453   -2.1935955  
C   -0.9576367    0.0002460   -2.0455731  
N   -1.2018459   -0.0001392   -0.6915969  
C   -1.8348307    0.0008318   -3.0810611  
C   -1.2972843    0.0009738   -4.4314606  
O   -2.0050665    0.0014267   -5.4301321  
C    0.2542628    0.0004186   -4.6117570  
O    0.7184676    0.0002258   -5.7439117  
C    1.0974555    0.0000874   -3.4189127  
H    2.0940752   -0.0005483   -0.5817978  
H   -2.9081051    0.0011670   -2.9507061  
H   -2.1128194    0.0014912   -0.2706792  
C    3.3003543   -0.0005276    2.9438989  
C    2.5232812   -0.0003497    4.0790748  
C    1.1623199    0.0001319    3.6520102  
C    1.1711883   -0.0000583    2.2336141  
N    2.4852299    0.0014920    1.8362361  
C    0.0000000    0.0000000    1.4700000  
C   -1.2020384   -0.0000520    2.1506477  
O   -2.3759250   -0.0003494    1.4542253  
C   -1.2314658    0.0005113    3.5655508  
O   -2.5054393    0.0008037    4.0950179  
C   -0.0764518    0.0007272    4.3195194  
H    2.8919952    0.0005619    5.0905303  
H    2.8036267   -0.0088181    0.8841339  
H   -3.0835639   -0.0000348    2.1118817  
H   -2.4360050    0.0011527    5.0545920  
H   -0.1304098    0.0013421    5.4019087  
H    4.3715549   -0.0004895    2.8367138  
