62

C    9.8291888   -0.7339138    0.8350714  
C    9.0921986   -0.0141067   -0.0766257  
C   10.0202070    0.6989254   -0.8920935  
C   11.3197576    0.3718137   -0.4272375  
N   11.1675394   -0.4987254    0.6232903  
C   12.4822602    0.8953110   -1.0011097  
C   12.3301099    1.7646296   -2.0638015  
O   13.4319587    2.3046963   -2.6615228  
C   11.0418480    2.1034655   -2.5417000  
O   11.0568866    2.9815500   -3.6056948  
C    9.8945643    1.5876130   -1.9758706  
H   11.9172258   -0.9119984    1.1478457  
H   13.4756115    0.6500745   -0.6513788  
H   13.1063172    2.8750075   -3.3700190  
H   10.1480139    3.1581485   -3.8671672  
H    8.9214257    1.8656662   -2.3633829  
H    9.5060159   -1.3953583    1.6205709  
C    6.7636933   -0.0010970    0.9023171  
C    5.4671770   -0.0014230    0.4424134  
C    5.5308681   -0.0015888   -0.9825581  
C    6.9040853   -0.0016366   -1.3378040  
N    7.6252191    0.0006175   -0.1696527  
C    7.3417433   -0.0020969   -2.6656761  
C    6.3755446   -0.0028236   -3.6529135  
O    6.7475672   -0.0036475   -4.9661586  
C    5.0004300   -0.0024126   -3.3184350  
O    4.1619032   -0.0028168   -4.4139786  
C    4.5679461   -0.0016854   -2.0086701  
H    4.5841349   -0.0004229    1.0582292  
H    8.3868647   -0.0019919   -2.9430281  
H    5.9304037   -0.0037548   -5.4814348  
H    3.2522420   -0.0025259   -4.1007373  
H    7.1420547   -0.0005065    1.9101867  
C    3.1301149   -0.0010311   -1.7028252  
C    2.5367768   -0.0002767   -0.4864665  
C    1.1089904    0.0001028   -0.7656183  
C    1.0177872   -0.0004148   -2.2415132  
N    2.1993578   -0.0011611   -2.7963820  
C   -0.2459209   -0.0002877   -2.9257118  
C   -1.3675319   -0.0000605   -2.1698524  
O   -2.6129313    0.0000867   -2.6748490  
C   -1.3083584    0.0000910   -0.6783232  
O   -2.3693261    0.0004206   -0.0541692  
C    0.0000000    0.0000000    0.0000000  
H    3.0096017   -0.0001007    0.4807525  
H   -0.2829630   -0.0004687   -4.0053125  
H   -3.1967441    0.0002094   -1.8949034  
C    2.4951002    2.0940188    2.9809380  
C    1.9440701    1.6314916    1.8291961  
C    0.8759964    0.7350050    2.2038498  
C    0.8497377    0.7130254    3.6788474  
N    1.8560616    1.5571714    4.0882609  
C   -0.0205033   -0.0168748    4.4215661  
C   -0.9962600   -0.8356168    3.7214979  
O   -1.8224391   -1.5286685    4.3006425  
C   -0.9864710   -0.8277881    2.1595606  
O   -1.8030528   -1.5133726    1.5592035  
C    0.0000000    0.0000000    1.4700000  
H    2.2509283    1.8888011    0.8310761  
H   -0.0229599   -0.0187323    5.5027230  
H    3.3143982    2.7817323    3.1139444  
H    2.0889452    1.7545833    5.0442112  
