62

C   -4.0480692    0.7253260   -7.8979571  
C   -3.0739798    0.0079958   -8.5529802  
C   -3.7220980   -0.7189520   -9.5951363  
C   -5.1030753   -0.4024918   -9.5267120  
N   -5.2668284    0.4753712   -8.4840429  
C   -6.0468472   -0.9409598  -10.4065616  
C   -5.5881303   -1.8145757  -11.3732848  
O   -6.4668194   -2.3691277  -12.2583783  
C   -4.2141146   -2.1429463  -11.4573511  
O   -3.9150558   -3.0270344  -12.4733704  
C   -3.2825383   -1.6123222  -10.5895211  
H   -6.1391265    0.8839086   -8.2008917  
H   -7.1007893   -0.7038956  -10.3595790  
H   -5.9463643   -2.9400253  -12.8384363  
H   -2.9679811   -3.1958337  -12.4607160  
H   -2.2368092   -1.8826161  -10.6782326  
H   -3.9701102    1.3943744   -7.0581621  
C   -0.9736295    0.0040466   -4.6965763  
C    0.3099700    0.0046188   -5.1397994  
C    0.2571076    0.0059522   -6.5827272  
C   -1.1727596    0.0061405   -6.9464167  
N   -1.8659235    0.0045498   -5.7579677  
C   -1.6422570    0.0076695   -8.2197089  
C   -0.6747212    0.0090082   -9.3043327  
O   -0.9976622    0.0103679  -10.4850142  
C    0.8447401    0.0085831   -8.9423348  
O    1.6686228    0.0093934   -9.8470316  
C    1.2283995    0.0071689   -7.5328470  
H    1.1930592    0.0039769   -4.5259864  
H    2.2824685    0.0070884   -7.2906440  
H   -2.8659634    0.0058219   -5.6745054  
C    1.1188642    0.0008216   -0.8003808  
C    0.0000000    0.0000000    0.0000000  
C   -1.1323861    0.0008904   -0.8673528  
C   -0.6382661    0.0019681   -2.1969280  
N    0.7324017    0.0038477   -2.1202241  
C   -1.4770913    0.0027323   -3.3154808  
C   -2.8395472    0.0020956   -3.0876858  
O   -3.7039201    0.0024441   -4.1440350  
C   -3.3517867    0.0013945   -1.7684332  
O   -4.7300494    0.0012387   -1.7073122  
C   -2.5248543    0.0009134   -0.6644817  
H    1.3576316   -0.0056175   -2.9057045  
H   -4.5940031    0.0021847   -3.7685129  
H   -4.9934602    0.0007284   -0.7819915  
H   -2.9462576    0.0005617    0.3339659  
H    2.1619896    0.0009343   -0.5342067  
C    2.5528530    2.1414826    2.8079335  
C    2.0663498    1.7338582    4.0032312  
C    0.9804344    0.8229586    3.6752840  
C    0.9495562    0.7966882    2.1971295  
N    1.8690446    1.5676019    1.6831036  
C    0.0000000    0.0000000    1.4700000  
C   -0.8785127   -0.7372425    2.1869543  
O   -1.8187535   -1.5261249    1.6395491  
C   -0.8723269   -0.7321790    3.6796354  
O   -1.7010379   -1.4274584    4.2670412  
C    0.1115397    0.0933559    4.4024240  
H    2.4028853    2.0163452    4.9860947  
H   -2.2861435   -1.9184361    2.3990168  
H    0.0832434    0.0693689    5.4835595  
H    3.3664920    2.8238276    2.6198634  
