62

C    1.1188643    0.0008223   -0.8003802  
C    0.0000000    0.0000000    0.0000000  
C   -1.1323863    0.0008897   -0.8673526  
C   -0.6382660    0.0019679   -2.1969277  
N    0.7324017    0.0038480   -2.1202235  
C   -1.4770909    0.0027315   -3.3154808  
C   -2.8395473    0.0020941   -3.0876856  
O   -3.7039194    0.0024421   -4.1440348  
C   -3.3517869    0.0013928   -1.7684330  
O   -4.7300491    0.0012366   -1.7073127  
C   -2.5248543    0.0009120   -0.6644817  
H    1.3576316   -0.0056169   -2.9057040  
H   -4.5940026    0.0021825   -3.7685133  
H   -4.9934598    0.0007260   -0.7819922  
H   -2.9462580    0.0005604    0.3339651  
H    2.1619892    0.0009354   -0.5342065  
C    0.0798553   -0.6810573   -5.1989547  
C   -0.9736290    0.0040460   -4.6965761  
C   -1.5083972    0.7502420   -5.8251660  
C   -0.6328137    0.3876024   -6.9602564  
N    0.2999942   -0.4511732   -6.5992643  
C   -0.8334151    0.9250022   -8.2778475  
C   -1.8622024    1.7852621   -8.4535858  
O   -2.1655478    2.3624831   -9.6286763  
C   -2.7636752    2.1705097   -7.3279342  
O   -3.6800714    2.9588088   -7.5603627  
C   -2.5372054    1.6057051   -5.9856852  
H   -2.9422886    2.9189189   -9.4383963  
H   -3.2124077    1.9098115   -5.1971098  
H    0.7435743   -1.3535317   -4.6791195  
C    0.5541725   -0.7014766   -9.6154469  
C    0.0583778    0.5409160   -9.3815153  
C    0.5741934    1.4022960  -10.4192026  
C    1.4171597    0.5538054  -11.2830678  
N    1.3634320   -0.7097606  -10.7414002  
C    2.0848425    0.9957457  -12.3787837  
C    1.9654220    2.4009063  -12.7306327  
O    2.5280212    2.8952770  -13.6988180  
C    1.0781331    3.3179027  -11.8297220  
O    0.9702877    4.5027034  -12.1158632  
C    0.4072795    2.7262805  -10.6748232  
H    2.6978348    0.3566706  -12.9990522  
H   -0.2053837    3.3679391  -10.0562428  
H    0.3966169   -1.6116619   -9.0599037  
H    1.8373063   -1.5144735  -11.1087254  
C    2.5311839    2.1237619    3.0120429  
C    1.9795631    1.6616747    1.8395852  
C    0.9223175    0.7739173    2.1983588  
C    0.8753926    0.7337535    3.6154372  
N    1.8668922    1.5631002    4.0777464  
C   -0.0496243   -0.0427881    4.3197917  
C   -0.9437528   -0.7922060    3.5801400  
O   -1.8685244   -1.5680278    4.2172520  
C   -0.9124520   -0.7656372    2.1655264  
O   -1.8671164   -1.5663939    1.5732860  
C    0.0000000    0.0000000    1.4700000  
H    2.3005065    1.9304404    0.8477417  
H    2.0679347    1.7444845    5.0445261  
H   -0.0904770   -0.0778569    5.3997470  
H   -2.3849669   -2.0011402    3.5251786  
H   -1.7775064   -1.4909735    0.6183591  
H    3.3468514    2.8078103    3.1724291  
