62

C    9.0148937   -4.2503508   -6.6381383  
C    9.4922775   -4.9130375   -5.5311533  
C    8.6679768   -4.5330876   -4.4308052  
C    7.6961500   -3.6292623   -4.9313825  
N    7.9365721   -3.4781210   -6.2745021  
C    6.7142468   -3.0499284   -4.1220452  
C    6.7131939   -3.3894168   -2.7830438  
O    5.7762154   -2.8529984   -1.9479743  
C    7.6748267   -4.2891092   -2.2647460  
O    7.5419793   -4.5262424   -0.9121697  
C    8.6439558   -4.8608069   -3.0625405  
H   10.3320830   -5.5864989   -5.5180920  
H    7.3998947   -2.9038362   -6.8991267  
H    5.9524706   -3.2164820   -1.0704333  
H    8.2290056   -5.1434714   -0.6426771  
H    9.3674403   -5.5464460   -2.6371635  
H    9.3591566   -4.2663292   -7.6580339  
C    5.7035977   -2.1123450   -4.6323644  
C    5.5262376   -1.6495152   -5.8966459  
C    4.3945371   -0.7534730   -5.8620425  
C    3.9237589   -0.7320388   -4.4639369  
N    4.7591256   -1.5766813   -3.7699398  
C    2.8699641   -0.0020530   -4.0185824  
C    2.1513540    0.8170174   -4.9804861  
O    1.1888856    1.5100763   -4.6777905  
C    2.6323965    0.8093819   -6.4665365  
O    2.0350136    1.4947736   -7.2854580  
C    3.7812672   -0.0180950   -6.8260219  
H    6.1202740   -1.9066244   -6.7554990  
H    4.1081454   -0.0176478   -7.8569795  
H    4.6940935   -1.7721469   -2.7877935  
C    3.2573670   -0.0002921   -1.5109382  
C    2.5379468   -0.0001711   -0.3591962  
C    1.1435043    0.0000330   -0.7338498  
C    1.1092608   -0.0000085   -2.2088474  
N    2.4227562    0.0001906   -2.6182610  
C   -0.0265533   -0.0002525   -2.9515663  
C   -1.3003033   -0.0002641   -2.2514979  
O   -2.3786785   -0.0004132   -2.8306425  
C   -1.2877724    0.0000310   -0.6895608  
O   -2.3539956    0.0003306   -0.0892035  
C    0.0000000    0.0000000    0.0000000  
H    2.9384091   -0.0000370    0.6389240  
H   -0.0296290   -0.0004088   -4.0327231  
H    4.3270394   -0.0004767   -1.6439445  
C    2.5285572    2.1210227    2.9438989  
C    1.9331703    1.6216660    4.0790748  
C    0.8903039    0.7472258    3.6520102  
C    0.8972198    0.7527806    2.2336141  
N    1.9028376    1.5986179    1.8362361  
C    0.0000000    0.0000000    1.4700000  
C   -0.9207814   -0.7726952    2.1506477  
O   -1.8198395   -1.5274828    1.4542253  
C   -0.9436862   -0.7911793    3.5655508  
O   -1.9197945   -1.6098497    4.0950179  
C   -0.0590329   -0.0485852    4.3195194  
H    2.2150357    1.8593692    5.0905303  
H    2.1533708    1.7953814    0.8841339  
H   -2.3621246   -1.9821033    2.1118817  
H   -1.8668290   -1.5649508    5.0545920  
H   -0.1007624   -0.0827977    5.4019087  
H    3.3491200    2.8096064    2.8367138  
