62

C    7.9513671   -0.7101429    1.3815441  
C    8.5489081   -0.4602950    2.5952121  
C    9.6218486    0.4475829    2.3519955  
C    9.6302209    0.7186246    0.9597334  
N    8.6043389   -0.0017929    0.4001080  
C   10.5576445    1.5773336    0.3619936  
C   11.4934787    2.1735208    1.1847666  
O   12.4220666    3.0210522    0.6533280  
C   11.5015095    1.9153353    2.5762024  
O   12.4956517    2.5843133    3.2599358  
C   10.5870529    1.0680993    3.1665299  
H    8.2491136   -0.8815353    3.5394966  
H   10.5694228    1.7879458   -0.6985278  
H   12.9704070    3.3217109    1.3896657  
H   12.4309285    2.3550470    4.1920583  
H   10.6179863    0.8895118    4.2349995  
H    7.1119521   -1.3386977    1.1381107  
C    4.7161325   -0.0005435   -1.6923264  
C    5.6957067   -0.0010595   -0.7518430  
C    6.9559334   -0.0010594   -1.4565867  
C    6.6279075   -0.0004678   -2.8950543  
N    5.2541447   -0.0005756   -2.9703260  
C    7.5472423    0.0001052   -3.8933165  
C    8.9536518   -0.0000843   -3.5265082  
O    9.8573560    0.0003304   -4.3521108  
C    9.3240200   -0.0009609   -2.0090658  
O   10.5048029   -0.0014343   -1.6881086  
C    8.2443356   -0.0012461   -1.0251280  
H    5.5518787   -0.0015835    0.3139556  
H    7.2854490    0.0006637   -4.9423041  
H    4.7240364    0.0012972   -3.8223992  
C    3.2573665   -0.0002920   -1.5109385  
C    2.5379463   -0.0001709   -0.3591964  
C    1.1435038    0.0000331   -0.7338500  
C    1.1092599   -0.0000083   -2.2088477  
N    2.4227553    0.0001909   -2.6182613  
C   -0.0265539   -0.0002524   -2.9515660  
C   -1.3003040   -0.0002640   -2.2514977  
O   -2.3786790   -0.0004133   -2.8306421  
C   -1.2877727    0.0000311   -0.6895603  
O   -2.3539959    0.0003306   -0.0892030  
C    0.0000000    0.0000000    0.0000000  
H    2.9384091   -0.0000367    0.6389234  
H   -0.0296303   -0.0004086   -4.0327229  
H    2.7280482   -0.0013407   -3.5742119  
C    0.8576279    0.7185626    2.2703808  
C    0.0000000    0.0000000    1.4700000  
C   -0.8668858   -0.7285659    2.3373528  
C   -0.4876752   -0.4117774    3.6669281  
N    0.5635254    0.4678311    3.5902241  
C   -1.1297612   -0.9515493    4.7854808  
C   -2.1738724   -1.8268314    4.5576857  
O   -2.8357962   -2.3827064    5.6140350  
C   -2.5667212   -2.1555554    3.2384331  
O   -3.6226318   -3.0413663    3.1773122  
C   -1.9335634   -1.6236449    2.1344818  
H    1.0363952    0.8769718    4.3757045  
H   -0.8454472   -0.7142436    5.8013813  
H   -3.5178062   -2.9546422    5.2385129  
H   -3.8247440   -3.2102924    2.2519915  
H   -2.2566033   -1.8942483    1.1360343  
H    1.6567807    1.3889844    2.0042067  
