60

C    1.3497318   -3.2633548  -10.1954636  
C    0.8967426   -2.5827665   -9.0890879  
C    0.7572206   -1.2152074   -9.4697667  
C    1.1425976   -1.1208518  -10.8315693  
N    1.4983648   -2.3820570  -11.2407260  
C    1.1293991    0.0847430  -11.5394922  
C    0.7194115    1.2156351  -10.8603973  
O    0.6871847    2.4189337  -11.5038630  
C    0.3314712    1.1417868   -9.5014031  
O   -0.0507821    2.3543658   -8.9657933  
C    0.3445018   -0.0471763   -8.8023151  
H    0.6930887   -3.0181953   -8.1258022  
H    1.8061068   -2.6273096  -12.1643731  
H    1.4220537    0.1633381  -12.5774599  
H    0.3766048    3.0660715  -10.8573204  
H   -0.2971248    2.2164968   -8.0460594  
H    1.5799289   -4.3074519  -10.3212784  
C    1.7744465   -2.1336757   -5.1326806  
C    1.6746906   -1.7240761   -6.4187041  
C    0.5405883   -0.8130121   -6.4352715  
C    0.0614875   -0.7888183   -5.0365362  
N    0.7809200   -1.5609931   -4.2683222  
C   -1.0641734    0.0073898   -4.6315339  
C   -1.6828407    0.7461571   -5.5806432  
O   -2.7449526    1.5348086   -5.3440237  
C   -1.2228401    0.7432051   -7.0006965  
O   -1.8334832    1.4397966   -7.8113106  
C   -0.0658191   -0.0818758   -7.3911694  
H    2.2942506   -2.0053653   -7.2530286  
H   -2.9590927    1.9284666   -6.2090847  
H    2.4922210   -2.8167588   -4.7070386  
C    1.1319248    0.0015675   -0.8009270  
C    0.7969916    0.0034959   -2.1169404  
C   -0.6453336    0.0035703   -2.1842672  
C   -1.1266831    0.0015415   -0.7896027  
N    0.0000000    0.0000000    0.0000000  
C   -2.4346129    0.0013924   -0.4276297  
C   -3.4350110    0.0031352   -1.4820184  
O   -4.6384610    0.0030897   -1.2583919  
C   -2.9478958    0.0050460   -2.9661075  
O   -3.7809377    0.0062160   -3.8623775  
C   -1.5113821    0.0053068   -3.2312125  
H    1.4821240    0.0045436   -2.9459192  
H   -2.7664565    0.0000185    0.6013447  
H    2.1104318    0.0009428   -0.3488058  
C    2.3971438    2.0127888    3.1728260  
C    1.9431056    1.6308205    1.9564670  
C    0.8496017    0.7127664    2.2356185  
C    0.7794028    0.6545384    3.7115134  
N    1.6840587    1.4146091    4.2663826  
C   -0.1885723   -0.1578550    4.3957118  
C   -1.0476298   -0.8789867    3.6398520  
O   -2.0015663   -1.6796266    4.1448486  
C   -1.0022026   -0.8410666    2.1483229  
O   -1.8147390   -1.5232959    1.5241687  
C    0.0000000    0.0000000    1.4700000  
H    2.3054237    1.9346118    0.9892483  
H   -0.2170646   -0.1815267    5.4753125  
H   -2.4487139   -2.0549881    3.3649027  
H    3.2048689    2.6911772    3.3971983  
