60

C    6.5521057    0.0002418   -1.6261280  
C    5.8477807    0.0001366   -0.4444370  
C    6.8065130   -0.0000686    0.6117036  
C    8.0902706    0.0002074    0.0084668  
N    7.8995738   -0.0015596   -1.3510358  
C    9.2748553    0.0004113    0.7511285  
C    9.1614303    0.0006421    2.1278320  
O   10.2861587    0.0011981    2.9011361  
C    7.8894708   -0.0000030    2.7482632  
O    7.9434574   -0.0000941    4.1268232  
C    6.7204268   -0.0004776    2.0162368  
H    4.7749631   -0.0009052   -0.3546924  
H    8.6301901    0.0087506   -2.0395664  
H   10.2563491    0.0004780    0.2973949  
H    9.9861426    0.0009729    3.8194250  
H    7.0433157   -0.0005150    4.4664541  
H    5.7605844   -0.0011493    2.5194061  
C    2.5562217   -0.0001551   -3.6003001  
C    3.5148521   -0.0005085   -2.6449952  
C    4.7727386   -0.0006025   -3.3759001  
C    4.3760691   -0.0003757   -4.8004127  
N    3.0779897   -0.0000322   -4.9381841  
C    5.3463911   -0.0003428   -5.8603948  
C    6.6535655   -0.0001392   -5.5130774  
O    7.6652132   -0.0000930   -6.3977288  
C    7.0856176    0.0000110   -4.0842694  
O    8.2923980    0.0000699   -3.8415698  
C    6.0711797   -0.0000699   -3.0152321  
H    3.3844828   -0.0005934   -1.5763142  
H    5.0281917   -0.0003819   -6.8927024  
H    8.4720664    0.0000906   -5.8517046  
C    0.0000000    0.0000000    0.0000000  
C    1.0541688   -0.0001722   -0.8560390  
C    0.5103141   -0.0000453   -2.1935955  
C   -0.9576367    0.0002460   -2.0455731  
N   -1.2018459   -0.0001392   -0.6915969  
C   -1.8348307    0.0008318   -3.0810611  
C   -1.2972843    0.0009738   -4.4314606  
O   -2.0050665    0.0014267   -5.4301321  
C    0.2542628    0.0004186   -4.6117570  
O    0.7184676    0.0002258   -5.7439117  
C    1.0974555    0.0000874   -3.4189127  
H    2.0940752   -0.0005483   -0.5817978  
H   -2.9081051    0.0011670   -2.9507061  
H   -2.1128194    0.0014912   -0.2706792  
C    0.0000000    0.0000000    1.4700000  
C    1.0662921    0.0000102    2.3034270  
C    0.4961870   -0.0000064    3.6418889  
C   -0.9663858    0.0000850    3.4240247  
N   -1.2632773    0.0000084    2.1528658  
C   -1.8985362    0.0000517    4.5177257  
C   -1.3925775   -0.0004564    5.7720543  
O   -2.1456383   -0.0005410    6.8851312  
C    0.0786232   -0.0009323    6.0245000  
O    0.4683759   -0.0012588    7.1921102  
C    1.0143166   -0.0008442    4.8859032  
H    2.1107198   -0.0000632    2.0421868  
H   -2.9622183    0.0003270    4.3293377  
H   -1.5042274   -0.0009692    7.6184419  
H    2.0724152   -0.0013148    5.1109744  
