62

C    8.1552302    0.0034998   -0.3731354  
C    8.3377016    0.0028823    0.9903788  
C    9.7451477    0.0038590    1.2220995  
C   10.3761096    0.0053509   -0.0482590  
N    9.3819058    0.0031397   -0.9949216  
C   11.7657131    0.0069129   -0.2024920  
C   12.5323304    0.0072770    0.9466278  
O   13.8940780    0.0091350    0.8535992  
C   11.9212978    0.0054314    2.2231279  
O   12.8202339    0.0056467    3.2696722  
C   10.5504796    0.0036166    2.3760348  
H    7.5529263    0.0007492    1.7273424  
H    9.5264749    0.0140792   -1.9883806  
H   12.2527557    0.0079106   -1.1678892  
H   14.2296446    0.0087669    1.7595023  
H   12.3260281    0.0043580    4.0951190  
H   10.1111206    0.0020453    3.3667110  
C    5.6506104    0.0006727   -0.6678807  
C    6.9152385    0.0024390   -1.1626408  
C    6.8040776    0.0027746   -2.6022515  
C    5.3606764    0.0010759   -2.9078305  
N    4.7161325   -0.0005435   -1.6923264  
C    4.8400799    0.0012362   -4.1611001  
C    5.7629692    0.0029878   -5.2839571  
O    5.3925537    0.0032083   -6.4506159  
C    7.2958235    0.0045522   -4.9836904  
O    8.0824529    0.0057262   -5.9209602  
C    7.7361582    0.0044958   -3.5908671  
H    3.7780219    0.0001014   -4.3634394  
H    8.7991574    0.0057896   -3.3914803  
H    5.3226856   -0.0000599    0.3589367  
C    3.2573665   -0.0002920   -1.5109385  
C    2.5379463   -0.0001709   -0.3591964  
C    1.1435038    0.0000331   -0.7338500  
C    1.1092599   -0.0000083   -2.2088477  
N    2.4227553    0.0001909   -2.6182613  
C   -0.0265539   -0.0002524   -2.9515660  
C   -1.3003040   -0.0002640   -2.2514977  
O   -2.3786790   -0.0004133   -2.8306421  
C   -1.2877727    0.0000311   -0.6895603  
O   -2.3539959    0.0003306   -0.0892030  
C    0.0000000    0.0000000    0.0000000  
H    2.9384091   -0.0000367    0.6389234  
H   -0.0296303   -0.0004086   -4.0327229  
H    2.7280482   -0.0013407   -3.5742119  
C    0.8576279    0.7185626    2.2703808  
C    0.0000000    0.0000000    1.4700000  
C   -0.8668858   -0.7285659    2.3373528  
C   -0.4876752   -0.4117774    3.6669281  
N    0.5635254    0.4678311    3.5902241  
C   -1.1297612   -0.9515493    4.7854808  
C   -2.1738724   -1.8268314    4.5576857  
O   -2.8357962   -2.3827064    5.6140350  
C   -2.5667212   -2.1555554    3.2384331  
O   -3.6226318   -3.0413663    3.1773122  
C   -1.9335634   -1.6236449    2.1344818  
H    1.0363952    0.8769718    4.3757045  
H   -0.8454472   -0.7142436    5.8013813  
H   -3.5178062   -2.9546422    5.2385129  
H   -3.8247440   -3.2102924    2.2519915  
H   -2.2566033   -1.8942483    1.1360343  
H    1.6567807    1.3889844    2.0042067  
