62

C   -1.1240191    0.0287078   -0.7919006  
C   -0.7477717    0.0022815   -2.1148546  
C    0.6775293   -0.0467938   -2.1414702  
C    1.1191717   -0.0484043   -0.7935548  
N    0.0000000    0.0000000    0.0000000  
C    2.4713975   -0.0914782   -0.4408242  
C    3.3945951   -0.1340024   -1.4675060  
O    4.7280458   -0.1774467   -1.1793469  
C    2.9735574   -0.1327643   -2.8186324  
O    4.0129089   -0.1777213   -3.7247622  
C    1.6397302   -0.0900106   -3.1673482  
H    2.8144897   -0.0928045    0.5845967  
H    5.1900110   -0.2018204   -2.0274378  
H    3.6426479   -0.1736939   -4.6127343  
H    1.3474476   -0.0900125   -4.2109234  
H   -2.1051805    0.0672077   -0.3505413  
C   -1.6630760    0.0233583   -3.2649302  
C   -3.0155714    0.0701687   -3.2529364  
C   -3.4033023    0.0707097   -4.6551364  
C   -2.1243006    0.0198749   -5.3955107  
N   -1.1007183   -0.0081311   -4.5858911  
C   -2.0766066    0.0050568   -6.8316834  
C   -3.2531650    0.0390702   -7.4979333  
O   -3.3575382    0.0303320   -8.8377360  
C   -4.5604568    0.0902987   -6.7792369  
O   -5.5921711    0.1194522   -7.4500110  
C   -4.5829642    0.1046435   -5.3057340  
H   -3.6693772    0.1004856   -2.3981289  
H   -4.3155664    0.0613821   -9.0120070  
H   -5.5502749    0.1419830   -4.8228825  
C    1.5337584   -2.2526662   -5.9067784  
C    2.3656173   -1.8824653   -6.9080479  
C    1.5909318   -0.9519516   -7.7145878  
C    0.2787669   -0.8745538   -7.0372281  
N    0.2393349   -1.6348181   -5.9768356  
C   -0.7854287   -0.0455535   -7.5325389  
C   -0.5493682    0.6737386   -8.6533552  
O   -1.4515275    1.4886740   -9.2260931  
C    0.7645080    0.6172364   -9.3595404  
O    0.9090907    1.2986439  -10.3744294  
C    1.8402638   -0.2407241   -8.8317357  
H    3.3797230   -2.2013703   -7.0782377  
H   -0.9938909    1.8584199  -10.0026298  
H    2.7772098   -0.2537425   -9.3722846  
H    1.7331887   -2.9347725   -5.0956484  
C    0.8676693    0.7151171    2.2619005  
C    0.5875920    0.4624972    3.5848544  
C   -0.5048400   -0.4542819    3.6114698  
C   -0.8517165   -0.7276451    2.2635546  
N    0.0000000    0.0000000    1.4700000  
C   -1.8902865   -1.5946756    1.9108239  
C   -2.5912627   -2.1969500    2.9375057  
O   -3.6148162   -3.0527051    2.6493466  
C   -2.2603868   -1.9365747    4.2886322  
O   -3.0513550   -2.6123276    5.1947621  
C   -1.2361111   -1.0811317    4.6373480  
H    1.1060808    0.8876438    4.4271209  
H   -2.1597133   -1.8070987    0.8854031  
H   -3.9636755   -3.3565188    3.4974381  
H   -2.7621927   -2.3810384    6.0827341  
H   -1.0058879   -0.9010589    5.6809233  
H    1.6167816    1.3499334    1.8205408  
