60

C    0.0950458    0.0004351   -4.4015596  
C    1.1162051    0.0003983   -5.3233520  
C    0.5111117    0.0000861   -6.6150416  
C   -0.8933793    0.0002293   -6.4167188  
N   -1.1116045   -0.0015105   -5.0613625  
C   -1.8066450    0.0003039   -7.4753665  
C   -1.2927241    0.0005396   -8.7575773  
O   -2.1397618    0.0009726   -9.8278760  
C    0.1055576    0.0000260   -8.9758068  
O    0.4600412   -0.0000780  -10.3091046  
C    1.0071038   -0.0003211   -7.9319000  
H    2.1678592   -0.0005304   -5.0931005  
H   -2.0126226    0.0087260   -4.6185953  
H   -2.8782450    0.0002691   -7.3308775  
H   -1.5825620    0.0007744  -10.6170477  
H    1.4202883   -0.0004054  -10.3685169  
H    2.0725757   -0.0008938   -8.1300089  
C    3.3321177    0.0004714   -1.3379329  
C    2.6974191    0.0000116   -2.5332309  
C    1.2800443   -0.0002118   -2.2052838  
C    1.2395035    0.0000643   -0.7271296  
N    2.4394066    0.0005460   -0.2131032  
C    0.0000000    0.0000000    0.0000000  
C   -1.1468697    0.0000634   -0.7169547  
O   -2.3742196    0.0000072   -0.1695495  
C   -1.1388763    0.0001605   -2.2096359  
O   -2.2206227    0.0000904   -2.7970417  
C    0.1454530    0.0001814   -2.9324241  
H    3.1367996   -0.0000651   -3.5160943  
H   -2.9844343    0.0001024   -0.9290175  
C    4.7795907    0.0008674   -1.0815719  
C    5.8063542    0.0010476   -1.9702970  
C    7.0285676    0.0013959   -1.2015127  
C    6.6268095    0.0013748    0.2181285  
N    5.2509931    0.0014467    0.2224677  
C    7.4934506    0.0012532    1.2624645  
C    8.9169018    0.0013615    0.9686590  
O    9.7768355    0.0013272    1.8397589  
C    9.3650183    0.0016376   -0.5276688  
O   10.5607793    0.0020374   -0.7873175  
C    8.3375022    0.0014693   -1.5659669  
H    5.7176705    0.0011302   -3.0420939  
H    7.1779198    0.0011097    2.2965582  
H    8.6560852    0.0014570   -2.5995184  
H    4.6776566   -0.0001046    1.0460757  
C    0.0000000    0.0000000    1.4700000  
C    1.0541688    0.0001722    2.3260392  
C    0.5103138    0.0000454    3.6635956  
C   -0.9576371   -0.0002459    3.5155732  
N   -1.2018458    0.0001392    2.1615969  
C   -1.8348311   -0.0008317    4.5510609  
C   -1.2972847   -0.0009736    5.9014604  
O   -2.0050672   -0.0014265    6.9001319  
C    0.2542623   -0.0004184    6.0817573  
O    0.7184670   -0.0002256    7.2139121  
C    1.0974552   -0.0000873    4.8889129  
H    2.0940752    0.0005483    2.0517982  
H   -2.9081052   -0.0011668    4.4207061  
H    2.1707277    0.0000911    5.0223670  
H   -2.1128194   -0.0014912    1.7406791  
