62

C    7.6757194   -1.1232368   -4.2718616  
C    8.9749809   -0.7495398   -4.5262997  
C    8.9615139    0.6528625   -4.7864662  
C    7.6147346    1.0838697   -4.6753641  
N    6.8600629   -0.0197958   -4.3638982  
C    7.2277993    2.4134497   -4.8684640  
C    8.2185204    3.3245828   -5.1790856  
O    7.8960904    4.6359372   -5.3775832  
C    9.5678501    2.9137781   -5.2947014  
O   10.4359300    3.9388064   -5.6095011  
C    9.9502561    1.6022315   -5.1046037  
H    9.8274173   -1.4070684   -4.5256725  
H    6.2030233    2.7483059   -4.7853610  
H    8.7228064    5.0926829   -5.5805306  
H   11.3253325    3.5767757   -5.6686648  
H   10.9914991    1.3172860   -5.1999868  
H    7.2661104   -2.0898418   -4.0334217  
C    4.2912319   -2.1143350   -1.4466315  
C    5.3462901   -1.6515578   -2.1654949  
C    4.8141498   -0.7557117   -3.1650556  
C    3.3521069   -0.7343358   -2.9681712  
N    3.0997459   -1.5788207   -1.9117393  
C    2.4861704   -0.0045255   -3.7159919  
C    3.0304433    0.8144035   -4.7863458  
O    2.3328586    1.5073002   -5.5154346  
C    4.5758853    0.8068262   -5.0129662  
O    5.0456355    1.4921000   -5.9112952  
C    5.4069285   -0.0204567   -4.1418622  
H    6.3794019   -1.9085783   -2.0130682  
H    4.2838594   -2.8017033   -0.6163541  
H    2.1903280   -1.7742810   -1.5351739  
C    0.0000000    0.0000000    0.0000000  
C    1.0521669   -0.0011848   -0.8862341  
C    0.4917221   -0.0011931   -2.1979130  
C   -0.9187427    0.0003100   -2.0478683  
N   -1.1833170   -0.0009472   -0.7007915  
C   -1.7951698    0.0010259   -3.1372090  
C   -1.2375835    0.0005161   -4.4010425  
O   -2.0474208    0.0015256   -5.4997580  
C    0.1673584   -0.0013557   -4.5711962  
O    0.5673529   -0.0020659   -5.8915551  
C    1.0325773   -0.0023359   -3.4969890  
H    2.0953059   -0.0030542   -0.6200560  
H   -2.0989777    0.0102265   -0.2891825  
H   -2.8710930    0.0020274   -3.0295514  
H   -1.4634881    0.0006427   -6.2693593  
H    1.5290715   -0.0033076   -5.9180042  
C    3.1301144    0.0010313    3.1728260  
C    2.5367765    0.0002768    1.9564670  
C    1.1089900   -0.0001027    2.2356185  
C    1.0177864    0.0004150    3.7115134  
N    2.1993570    0.0011613    4.2663826  
C   -0.2459220    0.0002880    4.3957118  
C   -1.3675327    0.0000606    3.6398520  
O   -2.6129319   -0.0000866    4.1448486  
C   -1.3083589   -0.0000910    2.1483229  
O   -2.3693264   -0.0004206    1.5241687  
C    0.0000000    0.0000000    1.4700000  
H    3.0096015    0.0001008    0.9892483  
H   -0.2829642    0.0004689    5.4753125  
H   -3.1967446   -0.0002093    3.3649027  
H    4.1849273    0.0015113    3.3971983  
