62

C    5.9196297   -1.0724471   -3.1520211  
C    6.1514365   -1.9587498   -2.1257657  
C    7.5537681   -2.2191189   -2.1092609  
C    8.1309498   -1.4570121   -3.1571068  
N    7.1107359   -0.7739971   -3.7713304  
C    9.5011954   -1.4689074   -3.4347288  
C   10.3034345   -2.2644058   -2.6398878  
O   11.6484392   -2.3129418   -2.8670870  
C    9.7461670   -3.0323080   -1.5898419  
O   10.6755409   -3.7730129   -0.8891538  
C    8.3944371   -3.0212678   -1.3155621  
H    5.4018386   -2.3681956   -1.4704407  
H    7.2180287   -0.1425042   -4.5444319  
H    9.9472748   -0.8904622   -4.2319850  
H   12.0146636   -2.9189773   -2.2099218  
H   10.2170714   -4.2616886   -0.1987879  
H    7.9964408   -3.6201340   -0.5047377  
C    3.4106847   -0.7032174   -3.0670123  
C    2.4521483    0.0014840   -3.7217481  
C    3.1158557    0.7444933   -4.7668628  
C    4.5499135    0.4124944   -4.6666319  
N    4.6621248   -0.4692173   -3.6164497  
C    5.5136820    0.9128423   -5.4805768  
C    5.1117778    1.8404168   -6.5249016  
O    5.9049339    2.3456325   -7.3084585  
C    3.5983551    2.2063420   -6.6492182  
O    3.2480943    2.9864551   -7.5244333  
C    2.6531310    1.6023762   -5.7134674  
H    6.5600546    0.6562480   -5.3901706  
H    1.6070337    1.8607780   -5.8063811  
H    3.3081790   -1.3736414   -2.2292096  
C    0.0000000    0.0000000    0.0000000  
C    1.0662923   -0.0000101   -0.8334270  
C    0.4961873    0.0000065   -2.1718887  
C   -0.9663854   -0.0000848   -1.9540250  
N   -1.2632773   -0.0000083   -0.6828660  
C   -1.8985359   -0.0000514   -3.0477261  
C   -1.3925770    0.0004566   -4.3020547  
O   -2.1456378    0.0005414   -5.4151314  
C    0.0786240    0.0009326   -4.5545000  
O    0.4683767    0.0012591   -5.7221100  
C    1.0143171    0.0008444   -3.4159031  
H    2.1107200    0.0000633   -0.5721865  
H   -2.9622181   -0.0003268   -2.8593381  
H   -1.5042265    0.0009697   -6.1484419  
C    1.1243417   -0.0099156    2.2619005  
C    0.7474090   -0.0234034    3.5848544  
C   -0.6787367   -0.0234952    3.6114698  
C   -1.1201739   -0.0099357    2.2635546  
N    0.0000000    0.0000000    1.4700000  
C   -2.4730812   -0.0065396    1.9108239  
C   -3.3971947   -0.0173298    2.9375057  
O   -4.7313508   -0.0149487    2.6493466  
C   -2.9763630   -0.0305536    4.2886322  
O   -4.0166453   -0.0397858    5.1947621  
C   -1.6418541   -0.0336380    4.6373480  
H    1.4178735   -0.0310004    4.4271209  
H   -2.8160170    0.0039190    0.8854031  
H   -5.1938803   -0.0234410    3.4974381  
H   -3.6464643   -0.0484781    6.0827341  
H   -1.3497443   -0.0436789    5.6809233  
H    2.1062470   -0.0051382    1.8205408  
