64

C    1.1188649    0.0008232   -0.8003809  
C    0.0000000    0.0000000    0.0000000  
C   -1.1323859    0.0008897   -0.8673532  
C   -0.6382652    0.0019680   -2.1969285  
N    0.7324027    0.0038490   -2.1202241  
C   -1.4770899    0.0027316   -3.3154819  
C   -2.8395467    0.0020934   -3.0876869  
O   -3.7039184    0.0024412   -4.1440363  
C   -3.3517862    0.0013915   -1.7684344  
O   -4.7300486    0.0012343   -1.7073138  
C   -2.5248541    0.0009111   -0.6644828  
H   -1.1067551    0.0036988   -4.3313816  
H   -4.5940015    0.0021809   -3.7685148  
H   -4.9934595    0.0007235   -0.7819932  
H   -2.9462574    0.0005586    0.3339641  
H    2.1619898    0.0009369   -0.5342063  
C    2.8054217   -0.6982259   -3.4042816  
C    1.6478447   -0.0100084   -3.2702996  
C    1.4994882    0.7211756   -4.5192433  
C    2.6893854    0.3473425   -5.3135843  
N    3.4585391   -0.4845268   -4.6652122  
C    2.9176258    0.8683871   -6.6332452  
C    1.9987265    1.7236973   -7.1366367  
O    2.0843858    2.2859882   -8.3542296  
C    0.7872973    2.1199535   -6.3597321  
O   -0.0071232    2.9029339   -6.8803656  
C    0.5757371    1.5718717   -5.0081505  
H    1.2880807    2.8425596   -8.4268860  
H   -0.3143090    1.8835698   -4.4781577  
H    3.2692090   -1.3626327   -2.6926366  
C    5.0397451   -3.0401001   -7.0914995  
C    4.1572947   -2.0502822   -6.7254270  
C    4.5859561   -0.8515324   -7.3687373  
C    5.7446654   -1.1741060   -8.1205796  
N    5.9937660   -2.5103996   -7.9285239  
C    6.4371044   -0.2303049   -8.8851423  
C    5.9508024    1.0626191   -8.8910707  
O    6.5882752    2.0237860   -9.6210026  
C    4.7963605    1.4040366   -8.1470844  
O    4.4380170    2.7319115   -8.2551669  
C    4.1129053    0.4735287   -7.3923859  
H    3.3096076   -2.1764560   -6.0738900  
H    6.7475056   -3.0260511   -8.3456107  
H    7.3209086   -0.4697588   -9.4602542  
H    6.0921604    2.8419084   -9.4875505  
H    3.6498564    2.8785081   -7.7232683  
H    5.0649416   -4.0817085   -6.8206181  
C    0.8576279    0.7185626    2.2703808  
C    0.0000000    0.0000000    1.4700000  
C   -0.8668858   -0.7285659    2.3373528  
C   -0.4876752   -0.4117774    3.6669281  
N    0.5635254    0.4678311    3.5902241  
C   -1.1297612   -0.9515493    4.7854808  
C   -2.1738724   -1.8268314    4.5576857  
O   -2.8357962   -2.3827064    5.6140350  
C   -2.5667212   -2.1555554    3.2384331  
O   -3.6226318   -3.0413663    3.1773122  
C   -1.9335634   -1.6236449    2.1344818  
H    1.0363952    0.8769718    4.3757045  
H   -0.8454472   -0.7142436    5.8013813  
H   -3.5178062   -2.9546422    5.2385129  
H   -3.8247440   -3.2102924    2.2519915  
H   -2.2566033   -1.8942483    1.1360343  
H    1.6567807    1.3889844    2.0042067  
