62

C    2.1798970   -2.1221809   -5.9542190  
C    1.5460057   -1.6229255   -7.0683970  
C    0.5185219   -0.7482587   -6.6059737  
C    0.5740707   -0.7535768   -5.1886487  
N    1.5926027   -1.5994973   -4.8258413  
C   -0.2963289   -0.0005348   -4.3948470  
C   -1.2397980    0.7721833   -5.0436536  
O   -2.1143387    1.5272212   -4.3169418  
C   -1.3112050    0.7904336   -6.4569421  
O   -2.3047778    1.6091607   -6.9527676  
C   -0.4530321    0.0475817   -7.2406747  
H    1.7929880   -1.8608404   -8.0888820  
H    1.8756085   -1.7961384   -3.8828561  
H   -2.6787915    1.9818125   -4.9556942  
H   -2.2847545    1.5640932   -7.9135863  
H   -0.5318481    0.0816191   -8.3210022  
H    3.0035535   -2.8108683   -5.8751157  
C    3.1301148   -0.0010315   -1.7028253  
C    2.5367766   -0.0002767   -0.4864666  
C    1.1089903    0.0001025   -0.7656183  
C    1.0177867   -0.0004153   -2.2415131  
N    2.1993574   -0.0011616   -2.7963821  
C   -0.2459218   -0.0002884   -2.9257117  
C   -1.3675324   -0.0000610   -2.1698519  
O   -2.6129318    0.0000862   -2.6748483  
C   -1.3083588    0.0000908   -0.6783229  
O   -2.3693264    0.0004202   -0.0541688  
C    0.0000000    0.0000000    0.0000000  
H    3.0096015   -0.0001006    0.4807520  
H   -3.1967441    0.0002093   -1.8949029  
C    6.8847531   -0.0023788    0.6986597  
C    5.5715638   -0.0012906    0.3713792  
C    5.5475441   -0.0015355   -1.0832421  
C    6.9721653   -0.0027421   -1.4795212  
N    7.7607274   -0.0033215   -0.4392522  
C    7.3784663   -0.0033623   -2.8579280  
C    6.4057878   -0.0031913   -3.7977314  
O    6.6406177   -0.0037051   -5.1209456  
C    4.9592100   -0.0023551   -3.4295283  
O    4.1279719   -0.0021192   -4.3374180  
C    4.5679459   -0.0016858   -2.0086704  
H    4.7238863   -0.0005185    1.0350946  
H    8.4267351   -0.0040367   -3.1187792  
H    5.7562729   -0.0034397   -5.5297086  
H    7.3236776   -0.0025892    1.6837078  
C    2.5311839    2.1237619    3.0120429  
C    1.9795631    1.6616747    1.8395852  
C    0.9223175    0.7739173    2.1983588  
C    0.8753926    0.7337535    3.6154372  
N    1.8668922    1.5631002    4.0777464  
C   -0.0496243   -0.0427881    4.3197917  
C   -0.9437528   -0.7922060    3.5801400  
O   -1.8685244   -1.5680278    4.2172520  
C   -0.9124520   -0.7656372    2.1655264  
O   -1.8671164   -1.5663939    1.5732860  
C    0.0000000    0.0000000    1.4700000  
H    2.3005065    1.9304404    0.8477417  
H    2.0679347    1.7444845    5.0445261  
H   -0.0904770   -0.0778569    5.3997470  
H   -2.3849669   -2.0011402    3.5251786  
H   -1.7775064   -1.4909735    0.6183591  
H    3.3468514    2.8078103    3.1724291  
