62

C   -3.2624650    3.6288298    1.5892794  
C   -4.3830536    3.0302051    1.0616457  
C   -5.4986791    3.4928787    1.8205357  
C   -4.9930606    4.3792610    2.8057271  
N   -3.6317246    4.4376474    2.6384740  
C   -5.8142608    5.0255377    3.7345676  
C   -7.1706226    4.7726408    3.6674503  
O   -8.0179330    5.3775356    4.5501614  
C   -7.6940895    3.8911163    2.6918926  
O   -9.0642831    3.7429017    2.7547004  
C   -6.8845154    3.2529916    1.7754248  
H   -3.0029503    4.9954844    3.1875108  
H   -5.4350790    5.7021218    4.4879978  
H   -8.9064913    5.0676078    4.3318232  
H   -9.3361806    3.1322232    2.0627847  
H   -7.3141821    2.5830162    1.0398999  
H   -2.2288582    3.5417383    1.3011287  
C   -4.3991024    2.0926371   -0.0704360  
C   -3.3610094    1.6305294   -0.8140048  
C   -3.9159995    0.7341912   -1.8006147  
C   -5.3729687    0.7118414   -1.5692446  
N   -5.6007886    1.5556530   -0.5067146  
C   -6.2559171   -0.0180491   -2.2968195  
C   -5.7365712   -0.8363897   -3.3799324  
O   -6.4507762   -1.5294000   -4.0926375  
C   -4.1968640   -0.8281647   -3.6426858  
O   -3.7479703   -1.5134097   -4.5516380  
C   -3.3460097   -0.0004262   -2.7913647  
H   -2.3247247    1.8880235   -0.6858467  
H   -7.3209340   -0.0201819   -2.1106906  
H   -6.5015175    1.7527679   -0.1106336  
C    0.0000000    0.0000000    0.0000000  
C    1.0662919   -0.0000103   -0.8334272  
C    0.4961868    0.0000066   -2.1718889  
C   -0.9663860   -0.0000849   -1.9540248  
N   -1.2632775   -0.0000084   -0.6828659  
C   -1.8985364   -0.0000515   -3.0477258  
C   -1.3925778    0.0004567   -4.3020543  
O   -2.1456385    0.0005412   -5.4151314  
C    0.0786229    0.0009326   -4.5544999  
O    0.4683756    0.0012594   -5.7221104  
C    1.0143162    0.0008443   -3.4159034  
H    2.1107195    0.0000631   -0.5721869  
H   -1.5042277    0.0009692   -6.1484420  
H    2.0724151    0.0013151   -3.6409746  
C    3.3003543   -0.0005276    2.9438989  
C    2.5232812   -0.0003497    4.0790748  
C    1.1623199    0.0001319    3.6520102  
C    1.1711883   -0.0000583    2.2336141  
N    2.4852299    0.0014920    1.8362361  
C    0.0000000    0.0000000    1.4700000  
C   -1.2020384   -0.0000520    2.1506477  
O   -2.3759250   -0.0003494    1.4542253  
C   -1.2314658    0.0005113    3.5655508  
O   -2.5054393    0.0008037    4.0950179  
C   -0.0764518    0.0007272    4.3195194  
H    2.8919952    0.0005619    5.0905303  
H    2.8036267   -0.0088181    0.8841339  
H   -3.0835639   -0.0000348    2.1118817  
H   -2.4360050    0.0011527    5.0545920  
H   -0.1304098    0.0013421    5.4019087  
H    4.3715549   -0.0004895    2.8367138  
