60

C    2.1552145   -1.8471691   -8.4461110  
C    3.1265850   -2.6665665   -8.9728891  
C    3.0179134   -2.5816974  -10.3926028  
C    1.9537934   -1.6876430  -10.6758720  
N    1.4506645   -1.2615055   -9.4717604  
C    1.5636909   -1.3650381  -11.9791506  
C    2.2607025   -1.9555015  -13.0153475  
O    1.9215979   -1.6752771  -14.3074373  
C    3.3251626   -2.8504159  -12.7529151  
O    3.9198538   -3.3556940  -13.8906241  
C    3.7103765   -3.1693416  -11.4674493  
H    3.8265818   -3.2541285   -8.4038828  
H    0.6943340   -0.6114380   -9.3561863  
H    0.7534301   -0.6844894  -12.2017114  
H    2.5242561   -2.1848723  -14.8645557  
H    4.6278797   -3.9505354  -13.6251678  
H    4.5294515   -3.8583256  -11.2974638  
C    2.4602721   -2.0944455   -5.9392888  
C    1.9124732   -1.6318086   -4.7860506  
C    0.8432456   -0.7354855   -5.1577935  
C    0.8127887   -0.7137217   -6.6327131  
N    1.8180308   -1.5578236   -7.0448664  
C   -0.0596367    0.0159818   -7.3730587  
C   -1.0334823    0.8347249   -6.6703356  
O   -1.8613770    1.5276081   -7.2472273  
C   -1.0192491    0.8271227   -5.1084314  
O   -1.8341905    1.5127102   -4.5058525  
C   -0.0307352   -0.0004646   -4.4215603  
H    2.2221962   -1.8889424   -3.7887702  
H   -0.0651692    0.0176830   -8.4542048  
H    3.2792594   -2.7820942   -6.0745261  
C    3.2573670   -0.0002920   -1.5109380  
C    2.5379468   -0.0001709   -0.3591961  
C    1.1435043    0.0000332   -0.7338500  
C    1.1092609   -0.0000082   -2.2088477  
N    2.4227562    0.0001909   -2.6182613  
C   -0.0265532   -0.0002522   -2.9515663  
C   -1.3003035   -0.0002639   -2.2514981  
O   -2.3786784   -0.0004131   -2.8306429  
C   -1.2877725    0.0000312   -0.6895608  
O   -2.3539958    0.0003307   -0.0892036  
C    0.0000000    0.0000000    0.0000000  
H    2.9384091   -0.0000369    0.6389239  
H    4.3270394   -0.0004765   -1.6439446  
H    2.7280494   -0.0013406   -3.5742113  
C    2.5128556    2.1077716    2.9199648  
C    1.9592212    1.6432552    4.0696553  
C    0.8915788    0.7479214    3.6910360  
C    0.8684491    0.7287414    2.2159470  
N    1.8754542    1.5738793    1.8102719  
C    0.0000000    0.0000000    1.4700000  
C   -0.9772830   -0.8200135    2.1664417  
O   -1.8021297   -1.5120829    1.5842315  
C   -0.9711318   -0.8147624    3.7284083  
O   -1.7894187   -1.5009653    4.3257297  
C    0.0140216    0.0115358    4.4216297  
H    2.2638494    1.8988021    5.0689105  
H    0.0117648    0.0094386    5.5031631  
H    3.3327358    2.7953732    2.7900019  
H    2.1123206    1.7707734    0.8551938  
