62

C    7.5124369   -0.9807728   -4.7376012  
C    6.6537123    0.0938643   -4.7229561  
C    7.4104746    1.2369430   -5.1170159  
C    8.7357556    0.7945740   -5.3616917  
N    8.7634720   -0.5565222   -5.1200561  
C    9.7576689    1.6569909   -5.7700039  
C    9.4357844    2.9902109   -5.9346042  
O   10.3954288    3.8756512   -6.3322104  
C    8.1192527    3.4508158   -5.6950166  
O    7.9578221    4.8051553   -5.9024979  
C    7.1106731    2.6006328   -5.2919253  
H    9.5687438   -1.1476475   -5.2205046  
H   10.7697867    1.3261089   -5.9579820  
H    9.9654981    4.7392077   -6.3841094  
H    7.0415115    5.0338692   -5.7190066  
H    6.1118264    2.9824536   -5.1158672  
H    7.3318557   -2.0160656   -4.5041110  
C    4.4878226   -2.1225241   -1.5677350  
C    3.2260913   -1.6607473   -1.8631396  
C    3.3567347   -0.7724506   -2.9714994  
C    4.7330249   -0.7316531   -3.3122136  
N    5.3917971   -1.5611580   -2.4389678  
C    5.2292368    0.0455302   -4.3631886  
C    4.3194783    0.7949501   -5.0835265  
O    4.7499704    1.5713845   -6.1202716  
C    2.9423433    0.7677545   -4.7586013  
O    2.1641573    1.5685996   -5.5687977  
C    2.4521483    0.0014840   -3.7217481  
H    2.3228219   -1.9300608   -1.3429785  
H    6.3793122   -1.7421946   -2.4435516  
H    3.9654399    2.0043829   -6.4812287  
H    1.2487978    1.4927312   -5.2825022  
H    4.8146445   -2.8067982   -0.8035915  
C    0.0000000    0.0000000    0.0000000  
C    1.0662923   -0.0000101   -0.8334270  
C    0.4961873    0.0000065   -2.1718887  
C   -0.9663854   -0.0000848   -1.9540250  
N   -1.2632773   -0.0000083   -0.6828660  
C   -1.8985359   -0.0000514   -3.0477261  
C   -1.3925770    0.0004566   -4.3020547  
O   -2.1456378    0.0005414   -5.4151314  
C    0.0786240    0.0009326   -4.5545000  
O    0.4683767    0.0012591   -5.7221100  
C    1.0143171    0.0008444   -3.4159031  
H    2.1107200    0.0000633   -0.5721865  
H   -2.9622181   -0.0003268   -2.8593381  
H   -1.5042265    0.0009697   -6.1484419  
C    0.0000000    0.0000000    1.4700000  
C    1.0662921    0.0000102    2.3034270  
C    0.4961870   -0.0000064    3.6418889  
C   -0.9663858    0.0000850    3.4240247  
N   -1.2632773    0.0000084    2.1528658  
C   -1.8985362    0.0000517    4.5177257  
C   -1.3925775   -0.0004564    5.7720543  
O   -2.1456383   -0.0005410    6.8851312  
C    0.0786232   -0.0009323    6.0245000  
O    0.4683759   -0.0012588    7.1921102  
C    1.0143166   -0.0008442    4.8859032  
H    2.1107198   -0.0000632    2.0421868  
H   -2.9622183    0.0003270    4.3293377  
H   -1.5042274   -0.0009692    7.6184419  
H    2.0724152   -0.0013148    5.1109744  
