64

C    4.0790415   -0.6250186   -9.0432915  
C    3.5911235    0.6198066   -8.7195422  
C    3.9981365    1.5094294   -9.7575742  
C    4.7375760    0.7441731  -10.6954104  
N    4.7691902   -0.5470591  -10.2302908  
C    5.2944092    1.2980158  -11.8521239  
C    5.1010048    2.6489295  -12.0661453  
O    5.6228098    3.2408212  -13.1798774  
C    4.3664766    3.4292779  -11.1418398  
O    4.2620231    4.7585546  -11.4960401  
C    3.8170939    2.8836203  -10.0003668  
H    5.2148260   -1.3193790  -10.6917145  
H    5.8591453    0.7202134  -12.5707457  
H    5.3750394    4.1734805  -13.1349244  
H    3.7517883    5.2143573  -10.8196468  
H    3.2595820    3.5064434   -9.3106202  
H    3.9905744   -1.5620441   -8.5206870  
C    3.9300173   -0.7219419   -4.5190963  
C    2.8699641   -0.0020530   -4.0185824  
C    2.3084605    0.7252949   -5.1095817  
C    3.0739999    0.4064308   -6.2603208  
N    4.0515279   -0.4731890   -5.8662070  
C    2.8029518    0.9445738   -7.5219559  
C    1.7395393    1.8203310   -7.6238414  
O    1.4306791    2.3746745   -8.8322797  
C    0.9641553    2.1511166   -6.4871016  
O   -0.0597851    3.0371494   -6.7513654  
C    1.2311452    1.6208135   -5.2421029  
H    4.7407071   -0.8835861   -6.4700173  
H    0.6670861    2.9472664   -8.6828506  
H   -0.5337231    3.2075123   -5.9316320  
H    0.6198238    1.8929802   -4.3896419  
H    4.6099247   -1.3920547   -4.0214685  
C    3.2573670   -0.0002921   -1.5109382  
C    2.5379468   -0.0001711   -0.3591962  
C    1.1435043    0.0000330   -0.7338498  
C    1.1092608   -0.0000085   -2.2088474  
N    2.4227562    0.0001906   -2.6182610  
C   -0.0265533   -0.0002525   -2.9515663  
C   -1.3003033   -0.0002641   -2.2514979  
O   -2.3786785   -0.0004132   -2.8306425  
C   -1.2877724    0.0000310   -0.6895608  
O   -2.3539956    0.0003306   -0.0892035  
C    0.0000000    0.0000000    0.0000000  
H    2.9384091   -0.0000370    0.6389240  
H   -0.0296290   -0.0004088   -4.0327231  
H    4.3270394   -0.0004767   -1.6439445  
C    2.5311839    2.1237619    3.0120429  
C    1.9795631    1.6616747    1.8395852  
C    0.9223175    0.7739173    2.1983588  
C    0.8753926    0.7337535    3.6154372  
N    1.8668922    1.5631002    4.0777464  
C   -0.0496243   -0.0427881    4.3197917  
C   -0.9437528   -0.7922060    3.5801400  
O   -1.8685244   -1.5680278    4.2172520  
C   -0.9124520   -0.7656372    2.1655264  
O   -1.8671164   -1.5663939    1.5732860  
C    0.0000000    0.0000000    1.4700000  
H    2.3005065    1.9304404    0.8477417  
H    2.0679347    1.7444845    5.0445261  
H   -0.0904770   -0.0778569    5.3997470  
H   -2.3849669   -2.0011402    3.5251786  
H   -1.7775064   -1.4909735    0.6183591  
H    3.3468514    2.8078103    3.1724291  
