64

C    0.1549072   -0.6002335   -9.6412602  
C    0.8538758   -0.5265946  -10.8238364  
C    0.7855454    0.8284030  -11.2641919  
C    0.0256851    1.5410637  -10.3015639  
N   -0.3433008    0.6434121   -9.3306425  
C   -0.2447695    2.9082712  -10.4128654  
C    0.2613221    3.5681341  -11.5158740  
O    0.0274375    4.9035615  -11.6738104  
C    1.0214278    2.8743646  -12.4873386  
O    1.4548235    3.6710687  -13.5269405  
C    1.2883994    1.5255257  -12.3783195  
H    1.3508281   -1.3486318  -11.3099300  
H   -0.8233632    3.4571830   -9.6827093  
H    0.4625812    5.1615077  -12.4968401  
H    1.9597995    3.1258009  -14.1379131  
H    1.8734307    1.0210615  -13.1384076  
H   -0.0288788   -1.4417758   -8.9955139  
C   -0.0037890   -0.7105352   -5.1341627  
C   -1.0641734    0.0073898   -4.6315339  
C   -1.6260116    0.7376864   -5.7203887  
C   -0.8603259    0.4225625   -6.8720603  
N    0.1176069   -0.4577634   -6.4805354  
C   -1.1316217    0.9642909   -8.1321067  
C   -2.1954372    1.8398547   -8.2314161  
O   -2.5045526    2.3976096   -9.4382181  
C   -2.9709732    2.1669368   -7.0937087  
O   -3.9953212    3.0532721   -7.3553653  
C   -2.7037390    1.6330952   -5.8502755  
H    0.8069750   -0.8660647   -7.0855499  
H   -3.2684088    2.9694078   -9.2871062  
H   -4.4693375    3.2210039   -6.5351347  
H   -3.3151855    1.9024709   -4.9970181  
H    0.6764268   -1.3817965   -4.6385081  
C    1.1319248    0.0015675   -0.8009270  
C    0.7969916    0.0034959   -2.1169404  
C   -0.6453336    0.0035703   -2.1842672  
C   -1.1266831    0.0015415   -0.7896027  
N    0.0000000    0.0000000    0.0000000  
C   -2.4346129    0.0013924   -0.4276297  
C   -3.4350110    0.0031352   -1.4820184  
O   -4.6384610    0.0030897   -1.2583919  
C   -2.9478958    0.0050460   -2.9661075  
O   -3.7809377    0.0062160   -3.8623775  
C   -1.5113821    0.0053068   -3.2312125  
H    1.4821240    0.0045436   -2.9459192  
H   -2.7664565    0.0000185    0.6013447  
H    2.1104318    0.0009428   -0.3488058  
C    0.8676693    0.7151171    2.2619005  
C    0.5875920    0.4624972    3.5848544  
C   -0.5048400   -0.4542819    3.6114698  
C   -0.8517165   -0.7276451    2.2635546  
N    0.0000000    0.0000000    1.4700000  
C   -1.8902865   -1.5946756    1.9108239  
C   -2.5912627   -2.1969500    2.9375057  
O   -3.6148162   -3.0527051    2.6493466  
C   -2.2603868   -1.9365747    4.2886322  
O   -3.0513550   -2.6123276    5.1947621  
C   -1.2361111   -1.0811317    4.6373480  
H    1.1060808    0.8876438    4.4271209  
H   -2.1597133   -1.8070987    0.8854031  
H   -3.9636755   -3.3565188    3.4974381  
H   -2.7621927   -2.3810384    6.0827341  
H   -1.0058879   -0.9010589    5.6809233  
H    1.6167816    1.3499334    1.8205408  
