66

C   -0.0635679    0.6371974   -9.3631280  
C    1.0280852   -0.1932402   -9.4686508  
C    1.4609484   -0.1413677  -10.8267883  
C    0.5879829    0.7448638  -11.5082948  
N   -0.3270045    1.1982798  -10.5907831  
C    0.7181521    1.0368332  -12.8693969  
C    1.7485264    0.4232097  -13.5549436  
O    1.9214315    0.6731180  -14.8856057  
C    2.6296201   -0.4643630  -12.8925956  
O    3.6039284   -0.9952731  -13.7124752  
C    2.5016358   -0.7530715  -11.5499152  
H    1.4586978   -0.7667965   -8.6657812  
H   -1.0663161    1.8501204  -10.7818438  
H    0.0560213    1.7112661  -13.3946839  
H    2.6851523    0.1513416  -15.1644338  
H    4.1558714   -1.5831271  -13.1876991  
H    3.1916056   -1.4371461  -11.0698506  
C    0.1064599   -0.7138168   -5.1554291  
C   -0.9736297    0.0040464   -4.6965763  
C   -1.4912366    0.7334044   -5.8077560  
C   -0.6795014    0.4177976   -6.9273113  
N    0.2821068   -0.4618995   -6.4959643  
C   -0.8998162    0.9585819   -8.1976664  
C   -1.9590505    1.8336800   -8.3405056  
O   -2.2193121    2.3905127   -9.5592005  
C   -2.7800670    2.1612319   -7.2353095  
O   -3.7933061    3.0470083   -7.5387750  
C   -2.5631421    1.6283221   -5.9817238  
H    0.9955157   -0.8703468   -7.0723323  
H   -2.9888525    2.9621254   -9.4394872  
H   -4.3001574    3.2151108   -6.7384957  
H   -3.2086819    1.8980388   -5.1540709  
H    0.7663119   -1.3844919   -4.6322183  
C    1.1188642    0.0008222   -0.8003808  
C    0.0000000    0.0000000    0.0000000  
C   -1.1323862    0.0008899   -0.8673528  
C   -0.6382663    0.0019679   -2.1969280  
N    0.7324016    0.0038481   -2.1202242  
C   -1.4770914    0.0027318   -3.3154808  
C   -2.8395473    0.0020945   -3.0876857  
O   -3.7039201    0.0024425   -4.1440349  
C   -3.3517868    0.0013931   -1.7684331  
O   -4.7300497    0.0012366   -1.7073121  
C   -2.5248543    0.0009123   -0.6644817  
H    1.3576314   -0.0056167   -2.9057046  
H   -4.5940032    0.0021826   -3.7685128  
H   -4.9934602    0.0007259   -0.7819913  
H   -2.9462577    0.0005603    0.3339659  
H    2.1619895    0.0009355   -0.5342068  
C    0.8576279    0.7185626    2.2703808  
C    0.0000000    0.0000000    1.4700000  
C   -0.8668858   -0.7285659    2.3373528  
C   -0.4876752   -0.4117774    3.6669281  
N    0.5635254    0.4678311    3.5902241  
C   -1.1297612   -0.9515493    4.7854808  
C   -2.1738724   -1.8268314    4.5576857  
O   -2.8357962   -2.3827064    5.6140350  
C   -2.5667212   -2.1555554    3.2384331  
O   -3.6226318   -3.0413663    3.1773122  
C   -1.9335634   -1.6236449    2.1344818  
H    1.0363952    0.8769718    4.3757045  
H   -0.8454472   -0.7142436    5.8013813  
H   -3.5178062   -2.9546422    5.2385129  
H   -3.8247440   -3.2102924    2.2519915  
H   -2.2566033   -1.8942483    1.1360343  
H    1.6567807    1.3889844    2.0042067  
