60

C    6.8806480   -2.1182901   -6.6322255  
C    7.9619348   -2.9684780   -6.6106222  
C    8.5058217   -2.9839587   -7.9291626  
C    7.7081437   -2.1165665   -8.7186344  
N    6.7292811   -1.6091039   -7.9007554  
C    7.9550377   -1.8879311  -10.0756746  
C    9.0268887   -2.5466930  -10.6460661  
O    9.3130979   -2.3593294  -11.9674257  
C    9.8342172   -3.4164040   -9.8749369  
O   10.8627510   -3.9977568  -10.5873213  
C    9.5910730   -3.6426408   -8.5361976  
H    8.3145665   -3.5116369   -5.7506089  
H    6.0201979   -0.9557738   -8.1806512  
H    7.3507403   -1.2281662  -10.6829120  
H   10.0874949   -2.9041930  -12.1589932  
H   11.3588751   -4.5694542   -9.9934963  
H   10.2266509   -4.3144737   -7.9712559  
C    5.9676386   -2.1403208   -4.2647271  
C    5.9574583   -1.7327295   -5.5552103  
C    4.8270665   -0.8220467   -5.6520095  
C    4.2518649   -0.7958519   -4.2900103  
N    4.9163000   -1.5666197   -3.4724335  
C    3.1006054    0.0006263   -3.9654951  
C    2.5492761    0.7377400   -4.9564709  
O    1.4731213    1.5264225   -4.7955008  
C    3.1069016    0.7327484   -6.3410975  
O    2.5539563    1.4279021   -7.1932905  
C    4.2884408   -0.0925702   -6.6488933  
H    1.3195669    1.9186832   -5.6739683  
H    4.6618646   -0.0685372   -7.6638847  
H    6.6542204   -2.8225237   -3.7891469  
C    3.2798083    0.0005857   -1.4499652  
C    2.5571142    0.0005565   -2.5996556  
C    1.1637432    0.0001548   -2.2210361  
C    1.1336964   -0.0000200   -0.7459473  
N    2.4483512   -0.0001428   -0.3402723  
C    0.0000000    0.0000000    0.0000000  
C   -1.2757368   -0.0000186   -0.6964415  
O   -2.3524598   -0.0000639   -0.1142311  
C   -1.2676497   -0.0000872   -2.2584083  
O   -2.3355766   -0.0004101   -2.8557295  
C    0.0181558    0.0001758   -2.9516296  
H    0.0150788    0.0003319   -4.0331631  
H    4.3498547    0.0008612   -1.3200026  
H    2.7563626    0.0012823    0.6148059  
C    2.3971438    2.0127888    3.1728260  
C    1.9431056    1.6308205    1.9564670  
C    0.8496017    0.7127664    2.2356185  
C    0.7794028    0.6545384    3.7115134  
N    1.6840587    1.4146091    4.2663826  
C   -0.1885723   -0.1578550    4.3957118  
C   -1.0476298   -0.8789867    3.6398520  
O   -2.0015663   -1.6796266    4.1448486  
C   -1.0022026   -0.8410666    2.1483229  
O   -1.8147390   -1.5232959    1.5241687  
C    0.0000000    0.0000000    1.4700000  
H    2.3054237    1.9346118    0.9892483  
H   -0.2170646   -0.1815267    5.4753125  
H   -2.4487139   -2.0549881    3.3649027  
H    3.2048689    2.6911772    3.3971983  
