60

C    6.1490029   -2.1131923   -4.6308392  
C    7.1712420   -2.9641492   -4.2796040  
C    8.0935750   -2.9783277   -5.3675848  
C    7.5769427   -2.1093854   -6.3625502  
N    6.3944288   -1.6022907   -5.8838731  
C    8.2284994   -1.8791953   -7.5779824  
C    9.4235118   -2.5379676   -7.7927916  
O   10.1015235   -2.3491214   -8.9622571  
C    9.9549579   -3.4092119   -6.8123247  
O   11.1523465   -3.9903649   -7.1754585  
C    9.3125878   -3.6369828   -5.6131558  
H    7.2427436   -3.5086425   -3.3536406  
H    5.8056533   -0.9481189   -6.3669709  
H    7.8399254   -1.2182446   -8.3404497  
H   10.8971962   -2.8942728   -8.9076643  
H   11.4421083   -4.5631566   -6.4588331  
H    9.7439120   -4.3099691   -4.8813593  
C    4.5533949   -2.1376046   -2.6578815  
C    4.9399043   -1.7283670   -3.8886191  
C    3.8940259   -0.8167860   -4.3264061  
C    2.9285538   -0.7919272   -3.2066605  
N    3.3097734   -1.5641893   -2.2257059  
C    1.7334695    0.0049281   -3.2500363  
C    1.5131087    0.7436789   -4.3613518  
O    0.4396995    1.5328949   -4.5373378  
C    2.4688040    0.7400641   -5.5079971  
O    2.2042977    1.4366795   -6.4877848  
C    3.6875673   -0.0856738   -5.4394561  
H    0.5632903    1.9263769   -5.4199756  
H    4.3545062   -0.0606074   -6.2908042  
H    5.0606854   -2.8208827   -1.9954919  
C    1.1319246    0.0015678   -0.8009268  
C    0.7969914    0.0034958   -2.1169401  
C   -0.6453340    0.0035696   -2.1842669  
C   -1.1266832    0.0015410   -0.7896025  
N    0.0000000    0.0000000    0.0000000  
C   -2.4346129    0.0013913   -0.4276292  
C   -3.4350111    0.0031335   -1.4820181  
O   -4.6384614    0.0030875   -1.2583914  
C   -2.9478961    0.0050442   -2.9661074  
O   -3.7809382    0.0062135   -3.8623773  
C   -1.5113825    0.0053055   -3.2312122  
H   -2.7664565    0.0000174    0.6013448  
H   -1.1823533    0.0068381   -4.2614848  
H    2.1104316    0.0009435   -0.3488059  
C    2.5528530    2.1414826    2.8079335  
C    2.0663498    1.7338582    4.0032312  
C    0.9804344    0.8229586    3.6752840  
C    0.9495562    0.7966882    2.1971295  
N    1.8690446    1.5676019    1.6831036  
C    0.0000000    0.0000000    1.4700000  
C   -0.8785127   -0.7372425    2.1869543  
O   -1.8187535   -1.5261249    1.6395491  
C   -0.8723269   -0.7321790    3.6796354  
O   -1.7010379   -1.4274584    4.2670412  
C    0.1115397    0.0933559    4.4024240  
H    2.4028853    2.0163452    4.9860947  
H   -2.2861435   -1.9184361    2.3990168  
H    0.0832434    0.0693689    5.4835595  
H    3.3664920    2.8238276    2.6198634  
