62

C    7.2230754   -3.2556714   -1.6317023  
C    8.5916557   -3.2117374   -1.4993148  
C    8.9915869   -1.8663876   -1.7536540  
C    7.8138628   -1.1287259   -2.0378138  
N    6.7584072   -2.0028679   -1.9571496  
C    7.8304769    0.2371314   -2.3360534  
C    9.0583353    0.8699150   -2.3473481  
O    9.1319649    2.2027821   -2.6320530  
C   10.2445845    0.1509445   -2.0667906  
O   11.3872741    0.9223132   -2.1177196  
C   10.2289705   -1.1965811   -1.7727543  
H    9.2240633   -4.0468856   -1.2511589  
H    6.9364092    0.8050170   -2.5536541  
H   10.0673044    2.4402753   -2.5873271  
H   12.1423143    0.3610803   -1.9163860  
H   11.1538580   -1.7207211   -1.5621890  
H    6.5417737   -4.0818441   -1.5211343  
C    4.2912323   -2.1143351   -1.4466317  
C    5.3462901   -1.6515578   -2.1654949  
C    4.8141498   -0.7557115   -3.1650558  
C    3.3521068   -0.7343357   -2.9681712  
N    3.0997464   -1.5788209   -1.9117392  
C    2.4861704   -0.0045255   -3.7159919  
C    3.0304435    0.8144036   -4.7863461  
O    2.3328584    1.5073004   -5.5154345  
C    4.5758858    0.8068264   -5.0129661  
O    5.0456360    1.4921000   -5.9112952  
C    5.4069285   -0.0204565   -4.1418624  
H    6.4760576   -0.0199704   -4.3052231  
H    4.2838598   -2.8017032   -0.6163547  
H    2.1903282   -1.7742811   -1.5351743  
C    0.0000000    0.0000000    0.0000000  
C    1.0521669   -0.0011848   -0.8862341  
C    0.4917221   -0.0011931   -2.1979130  
C   -0.9187427    0.0003100   -2.0478683  
N   -1.1833170   -0.0009472   -0.7007915  
C   -1.7951698    0.0010259   -3.1372090  
C   -1.2375835    0.0005161   -4.4010425  
O   -2.0474208    0.0015256   -5.4997580  
C    0.1673584   -0.0013557   -4.5711962  
O    0.5673529   -0.0020659   -5.8915551  
C    1.0325773   -0.0023359   -3.4969890  
H    2.0953059   -0.0030542   -0.6200560  
H   -2.0989777    0.0102265   -0.2891825  
H   -2.8710930    0.0020274   -3.0295514  
H   -1.4634881    0.0006427   -6.2693593  
H    1.5290715   -0.0033076   -5.9180042  
C    3.3321173   -0.0004715    2.8079335  
C    2.6974184   -0.0000116    4.0032312  
C    1.2800439    0.0002118    3.6752840  
C    1.2395035   -0.0000644    2.1971295  
N    2.4394063   -0.0005460    1.6831036  
C    0.0000000    0.0000000    1.4700000  
C   -1.1468701   -0.0000635    2.1869543  
O   -2.3742202   -0.0000073    1.6395491  
C   -1.1388768   -0.0001607    3.6796354  
O   -2.2206231   -0.0000905    4.2670412  
C    0.1454524   -0.0001816    4.4024240  
H    3.1367986    0.0000651    4.9860947  
H   -2.9844344   -0.0001026    2.3990168  
H    0.1083576   -0.0003682    5.4835595  
H    4.3940039   -0.0007619    2.6198634  
