60

C    7.1933606   -5.6374488   -0.7367975  
C    6.2986830   -4.6520091   -1.0845451  
C    7.0453296   -3.4459905   -1.2350068  
C    8.4018849   -3.7598194   -0.9644610  
N    8.4563465   -5.0981407   -0.6635499  
C    9.4239073   -2.8073098   -1.0191057  
C    9.0700916   -1.5145050   -1.3532422  
O   10.0284694   -0.5450333   -1.4214437  
C    7.7219292   -1.1817440   -1.6262685  
O    7.5307298    0.1471887   -1.9436392  
C    6.7131196   -2.1208477   -1.5722852  
H    5.2381778   -4.7857018   -1.2127922  
H    9.2908978   -5.6088954   -0.4385329  
H   10.4597165   -3.0400757   -0.8138708  
H    9.5739784    0.2714271   -1.6665878  
H    6.5942474    0.2876110   -2.1135976  
H    7.0302967   -6.6820396   -0.5338224  
C    4.1985330   -2.1423500   -1.2324143  
C    5.3247411   -1.7348288   -1.8626208  
C    4.8654772   -0.8236655   -2.8996155  
C    3.3948132   -0.7971456   -2.7478595  
N    2.9980296   -1.5681521   -1.7721028  
C    2.5562217   -0.0001543   -3.6003001  
C    3.1594329    0.7371398   -4.5604401  
O    2.5003399    1.5262936   -5.4258144  
C    4.6414691    0.7318289   -4.7384883  
O    5.1222591    1.4271709   -5.6332287  
C    5.4799811   -0.0940152   -3.8514688  
H    3.1964045    1.9185700   -5.9832786  
H    6.5493677   -0.0702008   -4.0129491  
H    4.1121693   -2.8248211   -0.4019036  
C    0.0000000    0.0000000    0.0000000  
C    1.0541688   -0.0001719   -0.8560391  
C    0.5103141   -0.0000449   -2.1935955  
C   -0.9576367    0.0002461   -2.0455733  
N   -1.2018459   -0.0001392   -0.6915970  
C   -1.8348306    0.0008319   -3.0810611  
C   -1.2972842    0.0009739   -4.4314605  
O   -2.0050664    0.0014267   -5.4301321  
C    0.2542628    0.0004190   -4.6117571  
O    0.7184677    0.0002263   -5.7439119  
C    1.0974556    0.0000880   -3.4189127  
H    2.0940752   -0.0005479   -0.5817978  
H   -2.9081050    0.0011669   -2.9507065  
H   -2.1128195    0.0014911   -0.2706793  
C    1.0965515   -0.0001358    2.2710304  
C    0.0000000    0.0000000    1.4700000  
C   -1.1546562   -0.0001469    2.3369512  
C   -0.6372014   -0.0003519    3.7186280  
N    0.7342871   -0.0007337    3.6095011  
C   -1.4147739   -0.0001353    4.8308716  
C   -2.8576048    0.0001048    4.6554461  
O   -3.6427778    0.0002493    5.5944904  
C   -3.4275839    0.0000726    3.2011665  
O   -4.6406829   -0.0000333    3.0410059  
C   -2.4891866    0.0001091    2.0816745  
H   -1.0150448   -0.0001615    5.8354244  
H   -2.8919121    0.0002919    1.0779135  
H    2.1388271   -0.0000662    1.9961646  
H    1.3735872    0.0006099    4.3830260  
