62

C    4.5546628   -0.3693396   -7.5573754  
C    5.5940263   -0.2210255   -8.4463043  
C    5.6249207    1.1537942   -8.8251390  
C    4.5719373    1.8010284   -8.1292644  
N    3.9409652    0.8470596   -7.3700312  
C    4.3052905    3.1670912   -8.2617841  
C    5.1165901    3.8930577   -9.1120442  
O    4.9006329    5.2305019   -9.2782331  
C    6.1720039    3.2651550   -9.8153617  
O    6.8894573    4.1231054  -10.6231514  
C    6.4354660    1.9174892   -9.6853197  
H    6.2486391   -1.0072659   -8.7814170  
H    3.5041988    3.6663233   -7.7343177  
H    5.5684004    5.5391734   -9.9043894  
H    7.5824197    3.6199165  -11.0615681  
H    7.2507661    1.4643256  -10.2370501  
H    4.2016447   -1.2468471   -7.0432573  
C    2.9067422   -0.7101580   -3.3086135  
C    3.5336653   -0.4560099   -4.5064632  
C    2.7085932    0.4617278   -5.2217350  
C    1.5825235    0.7340736   -4.4033704  
N    1.7334695    0.0049281   -3.2500363  
C    0.5573011    1.6016470   -4.7919883  
C    0.6710588    2.2055203   -6.0291518  
O   -0.3014527    3.0618684   -6.4579906  
C    1.7868414    1.9461793   -6.8601685  
O    1.7544365    2.6234900   -8.0616440  
C    2.7984884    1.0902015   -6.4775469  
H    4.4698821   -0.8807783   -4.8259364  
H   -0.3036232    1.8133010   -4.1729457  
H   -0.0300621    3.3668066   -7.3335620  
H    2.5430095    2.3928198   -8.5621909  
H    3.2029722   -1.3460436   -2.4920009  
C    1.1319246    0.0015678   -0.8009268  
C    0.7969914    0.0034958   -2.1169401  
C   -0.6453340    0.0035696   -2.1842669  
C   -1.1266832    0.0015410   -0.7896025  
N    0.0000000    0.0000000    0.0000000  
C   -2.4346129    0.0013913   -0.4276292  
C   -3.4350111    0.0031335   -1.4820181  
O   -4.6384614    0.0030875   -1.2583914  
C   -2.9478961    0.0050442   -2.9661074  
O   -3.7809382    0.0062135   -3.8623773  
C   -1.5113825    0.0053055   -3.2312122  
H   -2.7664565    0.0000174    0.6013448  
H   -1.1823533    0.0068381   -4.2614848  
H    2.1104316    0.0009435   -0.3488059  
C    2.5128556    2.1077716    2.9199648  
C    1.9592212    1.6432552    4.0696553  
C    0.8915788    0.7479214    3.6910360  
C    0.8684491    0.7287414    2.2159470  
N    1.8754542    1.5738793    1.8102719  
C    0.0000000    0.0000000    1.4700000  
C   -0.9772830   -0.8200135    2.1664417  
O   -1.8021297   -1.5120829    1.5842315  
C   -0.9711318   -0.8147624    3.7284083  
O   -1.7894187   -1.5009653    4.3257297  
C    0.0140216    0.0115358    4.4216297  
H    2.2638494    1.8988021    5.0689105  
H    0.0117648    0.0094386    5.5031631  
H    3.3327358    2.7953732    2.7900019  
H    2.1123206    1.7707734    0.8551938  
