64

C    0.9735696   -0.0115214   -4.6965762  
C   -0.3184496   -0.0011828   -5.1688546  
C   -0.2411489   -0.0029546   -6.5931512  
C    1.1353501   -0.0149273   -6.9352511  
N    1.8452825   -0.0179230   -5.7602604  
C    1.5856563   -0.0200962   -8.2588777  
C    0.6289641   -0.0133572   -9.2553074  
O    1.0134970   -0.0183216  -10.5649343  
C   -0.7492308   -0.0010210   -8.9339915  
O   -1.5772243    0.0048757  -10.0375022  
C   -1.1941879    0.0043574   -7.6284227  
H   -1.2072948    0.0077749   -4.5615106  
H    2.8464279   -0.0364383   -5.6871415  
H    0.2013232   -0.0118760  -11.0880005  
H   -2.4898019    0.0131242   -9.7329731  
H   -2.2562694    0.0140084   -7.4130893  
C   -1.1188377    0.0077685   -0.8003800  
C    0.0000000    0.0000000    0.0000000  
C    1.1323459   -0.0095843   -0.8673521  
C    0.6382320   -0.0068683   -2.1969273  
N   -0.7324100    0.0017756   -2.1202235  
C    1.4770267   -0.0140725   -3.3154805  
C    2.8394475   -0.0238962   -3.0876851  
O    3.7037918   -0.0308809   -4.1440346  
C    3.3516772   -0.0271278   -1.7684333  
O    4.7299004   -0.0375537   -1.7073117  
C    2.5247730   -0.0202980   -0.6644812  
H   -1.3575487    0.0160407   -2.9057038  
H    4.5938511   -0.0374552   -3.7685123  
H    4.9933074   -0.0390659   -0.7819914  
H    2.9461666   -0.0231817    0.3339661  
H   -2.1619332    0.0156645   -0.5342065  
C    5.1123237   -2.1711895   -6.5485928  
C    3.8437476   -1.6988623   -6.7937241  
C    3.9373175   -0.8131105   -7.9078556  
C    5.2990795   -0.7846668   -8.3037366  
N    5.9852991   -1.6187633   -7.4563855  
C    5.7592614   -0.0131212   -9.3750623  
C    4.8277333    0.7432591  -10.0594025  
O    5.2228170    1.5146429  -11.1138638  
C    3.4646089    0.7284043   -9.6792857  
O    2.6613678    1.5349552  -10.4587874  
C    3.0099644   -0.0322987   -8.6223297  
H    2.9598611   -1.9596899   -6.2372114  
H    6.9702341   -1.8083574   -7.5004125  
H    6.7958380    0.0130204   -9.6817010  
H    4.4281515    1.9539751  -11.4436506  
H    1.7576538    1.4673793  -10.1357719  
H    5.4637334   -2.8573196   -5.7971300  
C    0.8400945    0.7047457    2.2710304  
C    0.0000000    0.0000000    1.4700000  
C   -0.8844236   -0.7423113    2.3369512  
C   -0.4878984   -0.4098547    3.7186280  
N    0.5629682    0.4714286    3.6095011  
C   -1.0836927   -0.9095027    4.8308716  
C   -2.1891196   -1.8367527    4.6554461  
O   -2.7906899   -2.3413415    5.5944904  
C   -2.6257283   -2.2031529    3.2011665  
O   -3.5549479   -2.9829990    3.0410059  
C   -1.9068976   -1.5999348    2.0816745  
H   -0.7774656   -0.6525820    5.8354244  
H   -2.2155208   -1.8586617    1.0779135  
H    1.6384792    1.3747609    1.9961646  
H    1.0518368    0.8833920    4.3830260  
