60

C   -8.4995098    0.8919892   -1.9326554  
C   -7.7131165   -0.1915623   -2.2488359  
C   -8.5753996   -1.3256837   -2.3183770  
C   -9.8876525   -0.8689161   -2.0332764  
N   -9.8056367    0.4817693   -1.8018897  
C  -10.9970505   -1.7195955   -2.0140818  
C  -10.7777884   -3.0556653   -2.2879774  
O  -11.8258599   -3.9300431   -2.2829039  
C   -9.4757637   -3.5305648   -2.5743660  
O   -9.4212876   -4.8859730   -2.8258515  
C   -8.3808107   -2.6919659   -2.5932095  
H  -10.5809636    1.0815011   -1.5847004  
H  -11.9997244   -1.3777137   -1.7973706  
H  -11.4584532   -4.7978915   -2.4953093  
H   -8.5076404   -5.1246836   -3.0098893  
H   -7.3955199   -3.0846149   -2.8157107  
H   -8.2318399    1.9247422   -1.7886643  
C   -4.6051151    2.0113810   -0.1334484  
C   -3.4864975    1.6298262   -0.7927588  
C   -3.9518793    0.7119509   -1.8210703  
C   -5.4173875    0.6533628   -1.6328199  
N   -5.8061459    1.4130851   -0.6450558  
C   -6.2597398   -0.1589839   -2.4668592  
C   -5.6651263   -0.8797267   -3.4447650  
O   -6.3285769   -1.6802773   -4.2962297  
C   -4.1885397   -0.8414367   -3.6601392  
O   -3.7155084   -1.5233211   -4.5692574  
C   -3.3460097   -0.0004262   -2.7913647  
H   -2.4709784    1.9337813   -0.6045895  
H   -5.6384844   -2.0553379   -4.8726450  
H   -4.6853284    2.6895276    0.7012110  
C    0.0000000    0.0000000    0.0000000  
C    1.0662919   -0.0000103   -0.8334272  
C    0.4961868    0.0000066   -2.1718889  
C   -0.9663860   -0.0000849   -1.9540248  
N   -1.2632775   -0.0000084   -0.6828659  
C   -1.8985364   -0.0000515   -3.0477258  
C   -1.3925778    0.0004567   -4.3020543  
O   -2.1456385    0.0005412   -5.4151314  
C    0.0786229    0.0009326   -4.5544999  
O    0.4683756    0.0012594   -5.7221104  
C    1.0143162    0.0008443   -3.4159034  
H    2.1107195    0.0000631   -0.5721869  
H   -1.5042277    0.0009692   -6.1484420  
H    2.0724151    0.0013151   -3.6409746  
C    0.0000000    0.0000000    1.4700000  
C    1.0662921    0.0000102    2.3034270  
C    0.4961870   -0.0000064    3.6418889  
C   -0.9663858    0.0000850    3.4240247  
N   -1.2632773    0.0000084    2.1528658  
C   -1.8985362    0.0000517    4.5177257  
C   -1.3925775   -0.0004564    5.7720543  
O   -2.1456383   -0.0005410    6.8851312  
C    0.0786232   -0.0009323    6.0245000  
O    0.4683759   -0.0012588    7.1921102  
C    1.0143166   -0.0008442    4.8859032  
H    2.1107198   -0.0000632    2.0421868  
H   -2.9622183    0.0003270    4.3293377  
H   -1.5042274   -0.0009692    7.6184419  
H    2.0724152   -0.0013148    5.1109744  
