60

C    6.6026400    0.0036982   -2.0975992  
C    6.0022713    0.0029021   -0.8598499  
C    7.0480605    0.0029918    0.1101629  
C    8.2753436    0.0041515   -0.6009651  
N    7.9687389    0.0026042   -1.9391007  
C    9.5192653    0.0048560    0.0373514  
C    9.5243445    0.0046882    1.4187103  
O   10.7112577    0.0057030    2.0926908  
C    8.3102911    0.0031620    2.1459573  
O    8.4823251    0.0027679    3.5148058  
C    7.0827666    0.0021931    1.5169035  
H    4.9411057    0.0012222   -0.6784151  
H    8.6375978    0.0135011   -2.6877594  
H   10.4582216    0.0055965   -0.4988976  
H   10.4911139    0.0050830    3.0333291  
H    7.6146337    0.0017476    3.9303947  
H    6.1696217    0.0008480    2.1005489  
C    2.4521485    0.0014838   -3.7217479  
C    3.4891875    0.0014498   -2.8521906  
C    4.6797447    0.0022555   -3.6882972  
C    4.1623485    0.0025995   -5.0735352  
N    2.8572360    0.0022306   -5.0994557  
C    5.0381743    0.0034466   -6.2128403  
C    6.3703216    0.0043171   -5.9789259  
O    7.3023603    0.0051589   -6.9470914  
C    6.9233382    0.0043694   -4.5924433  
O    8.1464880    0.0050628   -4.4541498  
C    6.0043357    0.0034467   -3.4403323  
H    3.4509653    0.0010310   -1.7762658  
H    4.6326012    0.0034749   -7.2140497  
H    8.1530742    0.0056737   -6.4722873  
C    0.0000000    0.0000000    0.0000000  
C    1.0662924   -0.0000102   -0.8334267  
C    0.4961874    0.0000064   -2.1718888  
C   -0.9663853   -0.0000849   -1.9540250  
N   -1.2632772   -0.0000084   -0.6828660  
C   -1.8985357   -0.0000515   -3.0477261  
C   -1.3925767    0.0004566   -4.3020548  
O   -2.1456375    0.0005411   -5.4151316  
C    0.0786242    0.0009324   -4.5545000  
O    0.4683770    0.0012590   -5.7221099  
C    1.0143173    0.0008443   -3.4159029  
H    2.1107200    0.0000632   -0.5721862  
H   -2.9622180   -0.0003269   -2.8593382  
H   -1.5042262    0.0009694   -6.1484423  
C    0.0000000    0.0000000    1.4700000  
C    1.0541688    0.0001722    2.3260392  
C    0.5103138    0.0000454    3.6635956  
C   -0.9576371   -0.0002459    3.5155732  
N   -1.2018458    0.0001392    2.1615969  
C   -1.8348311   -0.0008317    4.5510609  
C   -1.2972847   -0.0009736    5.9014604  
O   -2.0050672   -0.0014265    6.9001319  
C    0.2542623   -0.0004184    6.0817573  
O    0.7184670   -0.0002256    7.2139121  
C    1.0974552   -0.0000873    4.8889129  
H    2.0940752    0.0005483    2.0517982  
H   -2.9081052   -0.0011668    4.4207061  
H    2.1707277    0.0000911    5.0223670  
H   -2.1128194   -0.0014912    1.7406791  
