62

C    2.5407189   -2.1175681   -5.9030222  
C    1.9415421   -1.6187194   -7.0364259  
C    0.8989095   -0.7455179   -6.6062679  
C    0.9098667   -0.7512695   -5.1878981  
N    1.9175641   -1.5960294   -4.7935065  
C    0.0139746    0.0003883   -4.4216235  
C   -0.9096101    0.7721425   -5.0995353  
O   -1.8075338    1.5258146   -4.4004467  
C   -0.9365608    0.7908048   -6.5143649  
O   -1.9150938    1.6084501   -7.0409320  
C   -0.0532191    0.0493180   -7.2709567  
H    2.2207970   -1.8559587   -8.0487138  
H    2.1710267   -1.7926474   -3.8421502  
H   -2.3521998    1.9799184   -5.0564906  
H   -1.8648078    1.5637495   -8.0006599  
H   -0.0980665    0.0836396   -8.3532171  
H    3.3623587   -2.8052407   -5.7982731  
C    3.2798087    0.0005858   -1.4499643  
C    2.5571149    0.0005569   -2.5996548  
C    1.1637440    0.0001551   -2.2210358  
C    1.1336966   -0.0000198   -0.7459468  
N    2.4483512   -0.0001426   -0.3402714  
C    0.0000000    0.0000000    0.0000000  
C   -1.2757369   -0.0000185   -0.6964416  
O   -2.3524599   -0.0000639   -0.1142315  
C   -1.2676492   -0.0000870   -2.2584080  
O   -2.3355760   -0.0004099   -2.8557298  
C    0.0181565    0.0001762   -2.9516296  
H    2.9547360    0.0006079   -3.5989102  
H    2.7563627    0.0012824    0.6148067  
C    5.6938832    0.0016106   -2.2318618  
C    4.7390849    0.0009618   -1.2727274  
C    5.4706531    0.0008618   -0.0152269  
C    6.8949566    0.0014088   -0.4126483  
N    7.0320421    0.0019300   -1.7107996  
C    7.9554499    0.0015324    0.5571149  
C    7.6088221    0.0015170    1.8644724  
O    8.4940069    0.0016155    2.8756539  
C    6.1802426    0.0013422    2.2972781  
O    5.9381794    0.0012136    3.5041854  
C    5.1106700    0.0011738    1.2834044  
H    8.9875895    0.0017291    0.2383712  
H    7.9484088    0.0016000    3.6827939  
H    4.0886166    0.0011653    1.6378566  
H    5.5602509    0.0018875   -3.3019625  
C    0.8676693    0.7151171    2.2619005  
C    0.5875920    0.4624972    3.5848544  
C   -0.5048400   -0.4542819    3.6114698  
C   -0.8517165   -0.7276451    2.2635546  
N    0.0000000    0.0000000    1.4700000  
C   -1.8902865   -1.5946756    1.9108239  
C   -2.5912627   -2.1969500    2.9375057  
O   -3.6148162   -3.0527051    2.6493466  
C   -2.2603868   -1.9365747    4.2886322  
O   -3.0513550   -2.6123276    5.1947621  
C   -1.2361111   -1.0811317    4.6373480  
H    1.1060808    0.8876438    4.4271209  
H   -2.1597133   -1.8070987    0.8854031  
H   -3.9636755   -3.3565188    3.4974381  
H   -2.7621927   -2.3810384    6.0827341  
H   -1.0058879   -0.9010589    5.6809233  
H    1.6167816    1.3499334    1.8205408  
