60

C    3.6416178   -3.0445430   -5.7051181  
C    4.4112777   -3.6900141   -6.6450429  
C    5.3591943   -4.4834518   -5.9333469  
C    5.1174247   -4.2801787   -4.5505403  
N    4.0693222   -3.3996003   -4.4472023  
C    5.8673065   -4.9079990   -3.5513863  
C    6.8794964   -5.7567124   -3.9555294  
O    7.6423014   -6.3958701   -3.0213872  
C    7.1363107   -5.9721039   -5.3304729  
O    8.1775002   -6.8445709   -5.5714444  
C    6.3971099   -5.3528699   -6.3167080  
H    4.3035512   -3.5992079   -7.7123489  
H    3.6667015   -3.0750419   -3.5866564  
H    5.6881490   -4.7571651   -2.4957563  
H    8.2809745   -6.9310874   -3.5101663  
H    8.2847591   -6.9346202   -6.5232797  
H    6.6172185   -5.5372190   -7.3617176  
C    2.5229100   -2.1069158   -5.8790371  
C    1.9659589   -1.6422902   -7.0270804  
C    0.8993064   -0.7471212   -6.6452961  
C    0.8803717   -0.7281564   -5.1701439  
N    1.8886136   -1.5732492   -4.7674580  
C    0.0139741    0.0003876   -4.4216236  
C   -0.9653707    0.8204009   -5.1151633  
O   -1.7886285    1.5123013   -4.5305085  
C   -0.9636632    0.8153760   -6.6771416  
O   -1.7837169    1.5015809   -7.2720331  
C    0.0195986   -0.0107207   -7.3732829  
H    2.2677690   -1.8976616   -8.0272351  
H    0.0142642   -0.0084675   -8.4548052  
H    2.1282169   -1.7702569   -3.8130861  
C    3.2798085    0.0005853   -1.4499648  
C    2.5571144    0.0005562   -2.5996554  
C    1.1637436    0.0001546   -2.2210360  
C    1.1336965   -0.0000201   -0.7459470  
N    2.4483513   -0.0001430   -0.3402717  
C    0.0000000    0.0000000    0.0000000  
C   -1.2757367   -0.0000188   -0.6964414  
O   -2.3524597   -0.0000640   -0.1142313  
C   -1.2676494   -0.0000875   -2.2584081  
O   -2.3355762   -0.0004102   -2.8557294  
C    0.0181562    0.0001757   -2.9516296  
H    2.9547357    0.0006072   -3.5989105  
H    4.3498550    0.0008609   -1.3200021  
H    2.7563627    0.0012824    0.6148063  
C    0.0000000    0.0000000    1.4700000  
C    1.0541688    0.0001722    2.3260392  
C    0.5103138    0.0000454    3.6635956  
C   -0.9576371   -0.0002459    3.5155732  
N   -1.2018458    0.0001392    2.1615969  
C   -1.8348311   -0.0008317    4.5510609  
C   -1.2972847   -0.0009736    5.9014604  
O   -2.0050672   -0.0014265    6.9001319  
C    0.2542623   -0.0004184    6.0817573  
O    0.7184670   -0.0002256    7.2139121  
C    1.0974552   -0.0000873    4.8889129  
H    2.0940752    0.0005483    2.0517982  
H   -2.9081052   -0.0011668    4.4207061  
H    2.1707277    0.0000911    5.0223670  
H   -2.1128194   -0.0014912    1.7406791  
