66

C    0.6827532   -0.7107507   -5.1516735  
C    0.3353061   -0.4609401   -6.4590917  
C   -0.7638012    0.4477947   -6.4314648  
C   -1.0451347    0.7193735   -5.0680047  
N   -0.1496418   -0.0015612   -4.3176964  
C   -2.0711960    1.5789710   -4.6641739  
C   -2.8268261    2.1755109   -5.6548008  
O   -3.8410211    3.0239061   -5.3162067  
C   -2.5617282    1.9168005   -7.0206740  
O   -3.4017734    2.5862253   -7.8864318  
C   -1.5498286    1.0686877   -7.4197856  
H   -2.2907870    1.7899961   -3.6266528  
H   -4.2338969    3.3246749   -6.1459376  
H   -3.1554897    2.3565573   -8.7876538  
H   -1.3705331    0.8897148   -8.4734929  
H    1.4575543   -1.3398104   -4.7480329  
C    3.3003542    0.0005274   -1.4738989  
C    2.5232813    0.0003500   -2.6090754  
C    1.1623198   -0.0001317   -2.1820106  
C    1.1711884    0.0000582   -0.7636147  
N    2.4852300   -0.0014918   -0.3662361  
C    0.0000000    0.0000000    0.0000000  
C   -1.2020384    0.0000519   -0.6806478  
O   -2.3759247    0.0003492    0.0157742  
C   -1.2314657   -0.0005115   -2.0955509  
O   -2.5054391   -0.0008040   -2.6250184  
C   -0.0764518   -0.0007272   -2.8495197  
H    2.8919953   -0.0005616   -3.6205307  
H    2.8036268    0.0088182    0.5858658  
H   -3.0835641    0.0000344   -0.6418818  
H   -2.4360050   -0.0011528   -3.5845924  
H    4.3715548    0.0004898   -1.3667141  
C    1.4321067   -2.3345251   -7.7502708  
C    2.0054688   -2.5173884   -8.9873172  
C    1.9139984   -1.2720673   -9.6768160  
C    1.2701344   -0.3588663   -8.8030723  
N    0.9893847   -1.0369074   -7.6428753  
C    1.0120703    0.9696704   -9.1540432  
C    1.4115274    1.3839649  -10.4098187  
O    1.1844593    2.6709626  -10.8036361  
C    2.0550270    0.4875593  -11.2959240  
O    2.3910314    1.0509592  -12.5096067  
C    2.3096929   -0.8232880  -10.9504517  
H    2.4356257   -3.4357189   -9.3487401  
H    0.5216095    1.6706105   -8.4927313  
H    1.5358666    2.7481919  -11.7001928  
H    2.8207326    0.3794129  -13.0481104  
H    2.8041736   -1.4867000  -11.6503458  
H    1.3026464   -3.0274389   -6.9365942  
C    0.8576279    0.7185626    2.2703808  
C    0.0000000    0.0000000    1.4700000  
C   -0.8668858   -0.7285659    2.3373528  
C   -0.4876752   -0.4117774    3.6669281  
N    0.5635254    0.4678311    3.5902241  
C   -1.1297612   -0.9515493    4.7854808  
C   -2.1738724   -1.8268314    4.5576857  
O   -2.8357962   -2.3827064    5.6140350  
C   -2.5667212   -2.1555554    3.2384331  
O   -3.6226318   -3.0413663    3.1773122  
C   -1.9335634   -1.6236449    2.1344818  
H    1.0363952    0.8769718    4.3757045  
H   -0.8454472   -0.7142436    5.8013813  
H   -3.5178062   -2.9546422    5.2385129  
H   -3.8247440   -3.2102924    2.2519915  
H   -2.2566033   -1.8942483    1.1360343  
H    1.6567807    1.3889844    2.0042067  
