62

C    4.0598274    0.6903953   -8.5685098  
C    5.1593819   -0.1265597   -8.6951224  
C    5.5893583   -0.0386114  -10.0523200  
C    4.7065679    0.8547183  -10.7115385  
N    3.7887739    1.2774794   -9.7822682  
C    4.8315070    1.1797772  -12.0656133  
C    5.8666545    0.5925586  -12.7669129  
O    6.0347922    0.8752770  -14.0916057  
C    6.7575537   -0.3015831  -12.1268927  
O    7.7355945   -0.8035179  -12.9604647  
C    6.6347350   -0.6229286  -10.7911615  
H    5.5969882   -0.7145125   -7.9065766  
H    3.0427792    1.9263131   -9.9568747  
H    4.1618869    1.8597894  -12.5739377  
H    6.8031055    0.3677190  -14.3837449  
H    8.2941821   -1.3980516  -12.4504519  
H    7.3322090   -1.3112460  -10.3283139  
C    4.2034620   -0.7255631   -4.3886932  
C    4.4527382   -0.5087794   -5.7058649  
C    3.4509045    0.4181870   -6.1769255  
C    2.5913899    0.7259045   -5.0179025  
N    3.1006054    0.0006263   -3.9654951  
C    1.5263758    1.5663104   -5.0520694  
C    1.2050784    2.2105984   -6.3146843  
O    0.2656532    2.9839467   -6.4477777  
C    2.1016893    1.8990895   -7.5551905  
O    1.8407279    2.4353805   -8.6236246  
C    3.2224930    0.9761305   -7.3945729  
H    5.2475909   -0.9482359   -6.2817997  
H    0.9088865    1.7784673   -4.1903229  
H    4.7325147   -1.3548981   -3.6916055  
C    3.2798083    0.0005857   -1.4499652  
C    2.5571142    0.0005565   -2.5996556  
C    1.1637432    0.0001548   -2.2210361  
C    1.1336964   -0.0000200   -0.7459473  
N    2.4483512   -0.0001428   -0.3402723  
C    0.0000000    0.0000000    0.0000000  
C   -1.2757368   -0.0000186   -0.6964415  
O   -2.3524598   -0.0000639   -0.1142311  
C   -1.2676497   -0.0000872   -2.2584083  
O   -2.3355766   -0.0004101   -2.8557295  
C    0.0181558    0.0001758   -2.9516296  
H    0.0150788    0.0003319   -4.0331631  
H    4.3498547    0.0008612   -1.3200026  
H    2.7563626    0.0012823    0.6148059  
C    0.8576279    0.7185626    2.2703808  
C    0.0000000    0.0000000    1.4700000  
C   -0.8668858   -0.7285659    2.3373528  
C   -0.4876752   -0.4117774    3.6669281  
N    0.5635254    0.4678311    3.5902241  
C   -1.1297612   -0.9515493    4.7854808  
C   -2.1738724   -1.8268314    4.5576857  
O   -2.8357962   -2.3827064    5.6140350  
C   -2.5667212   -2.1555554    3.2384331  
O   -3.6226318   -3.0413663    3.1773122  
C   -1.9335634   -1.6236449    2.1344818  
H    1.0363952    0.8769718    4.3757045  
H   -0.8454472   -0.7142436    5.8013813  
H   -3.5178062   -2.9546422    5.2385129  
H   -3.8247440   -3.2102924    2.2519915  
H   -2.2566033   -1.8942483    1.1360343  
H    1.6567807    1.3889844    2.0042067  
