60

C    4.7958796   -0.0599117   -8.0281473  
C    5.8636138   -0.7161398   -8.5954009  
C    5.9102352   -0.3274567   -9.9670243  
C    4.8371588    0.5752338  -10.1805263  
N    4.1796636    0.7140779   -8.9834306  
C    4.5784671    1.1622481  -11.4228161  
C    5.4185222    0.8322205  -12.4685537  
O    5.2114990    1.3769484  -13.7028245  
C    6.4943173   -0.0667627  -12.2753938  
O    7.2395569   -0.2945864  -13.4138394  
C    6.7499532   -0.6464531  -11.0501857  
H    6.5265886   -1.3927034   -8.0838157  
H    3.3806528    1.3009352   -8.8248078  
H    3.7621686    1.8508735  -11.5920921  
H    5.8998181    1.0187518  -14.2783051  
H    7.9449140   -0.9119330  -13.1971409  
H    7.5813514   -1.3316038  -10.9326096  
C    5.9676386   -2.1403205   -4.2647281  
C    5.9574583   -1.7327294   -5.5552103  
C    4.8270664   -0.8220463   -5.6520101  
C    4.2518651   -0.7958517   -4.2900113  
N    4.9163000   -1.5666196   -3.4724335  
C    3.1006054    0.0006263   -3.9654951  
C    2.5492762    0.7377402   -4.9564714  
O    1.4731211    1.5264225   -4.7955004  
C    3.1069015    0.7327486   -6.3410976  
O    2.5539561    1.4279025   -7.1932906  
C    4.2884409   -0.0925699   -6.6488938  
H    6.6335874   -2.0151073   -6.3439990  
H    1.3195668    1.9186834   -5.6739683  
H    6.6542206   -2.8225236   -3.7891473  
C    3.2798083    0.0005857   -1.4499652  
C    2.5571142    0.0005565   -2.5996556  
C    1.1637432    0.0001548   -2.2210361  
C    1.1336964   -0.0000200   -0.7459473  
N    2.4483512   -0.0001428   -0.3402723  
C    0.0000000    0.0000000    0.0000000  
C   -1.2757368   -0.0000186   -0.6964415  
O   -2.3524598   -0.0000639   -0.1142311  
C   -1.2676497   -0.0000872   -2.2584083  
O   -2.3355766   -0.0004101   -2.8557295  
C    0.0181558    0.0001758   -2.9516296  
H    0.0150788    0.0003319   -4.0331631  
H    4.3498547    0.0008612   -1.3200026  
H    2.7563626    0.0012823    0.6148059  
C    0.0000000    0.0000000    1.4700000  
C    1.0662921    0.0000102    2.3034270  
C    0.4961870   -0.0000064    3.6418889  
C   -0.9663858    0.0000850    3.4240247  
N   -1.2632773    0.0000084    2.1528658  
C   -1.8985362    0.0000517    4.5177257  
C   -1.3925775   -0.0004564    5.7720543  
O   -2.1456383   -0.0005410    6.8851312  
C    0.0786232   -0.0009323    6.0245000  
O    0.4683759   -0.0012588    7.1921102  
C    1.0143166   -0.0008442    4.8859032  
H    2.1107198   -0.0000632    2.0421868  
H   -2.9622183    0.0003270    4.3293377  
H   -1.5042274   -0.0009692    7.6184419  
H    2.0724152   -0.0013148    5.1109744  
