64

C    1.2777351   -1.0422020   -7.7091700  
C    2.3284189   -1.9270768   -7.7835236  
C    2.5789620   -2.1605292   -9.1681989  
C    1.6421355   -1.3842310   -9.8973384  
N    0.8660357   -0.7190200   -8.9809429  
C    1.5972890   -1.3689588  -11.2946738  
C    2.5150764   -2.1513774  -11.9682191  
O    2.5157340   -2.1733804  -13.3329654  
C    3.4573989   -2.9330942  -11.2584569  
O    4.3035838   -3.6579970  -12.0719875  
C    3.5020428   -2.9488558   -9.8799492  
H    2.8493893   -2.3528703   -6.9431172  
H    0.1216263   -0.0831845   -9.2035389  
H    0.8856600   -0.7795827  -11.8562984  
H    3.2249243   -2.7743133  -13.5960126  
H    4.9077423   -4.1575264  -11.5142538  
H    4.2350838   -3.5577678   -9.3638526  
C    0.9349426   -0.7146694   -5.2228670  
C    0.6097023   -0.4617814   -6.5353962  
C   -0.4828637    0.4551583   -6.5243826  
C   -0.7832745    0.7283385   -5.1653197  
N    0.0950446    0.0004351   -4.4015596  
C   -1.8090096    1.5954564   -4.7770377  
C   -2.5446896    2.1980079   -5.7789778  
O   -3.5576329    3.0538594   -5.4557461  
C   -2.2603781    1.9378183   -7.1406991  
O   -3.0818526    2.6138402   -8.0190598  
C   -1.2487899    1.0822894   -7.5244763  
H   -2.0430836    1.8077410   -3.7429457  
H   -3.9353235    3.3578690   -6.2913258  
H   -2.8233441    2.3826632   -8.9164638  
H   -1.0545136    0.9023636   -8.5753626  
H    1.6986545   -1.3496687   -4.8075611  
C    3.3321173    0.0004713   -1.3379338  
C    2.6974181    0.0000116   -2.5332314  
C    1.2800438   -0.0002119   -2.2052841  
C    1.2395034    0.0000643   -0.7271299  
N    2.4394062    0.0005460   -0.2131038  
C    0.0000000    0.0000000    0.0000000  
C   -1.1468702    0.0000634   -0.7169543  
O   -2.3742203    0.0000074   -0.1695487  
C   -1.1388770    0.0001607   -2.2096355  
O   -2.2206234    0.0000905   -2.7970411  
C    0.1454522    0.0001815   -2.9324241  
H    3.1367984   -0.0000653   -3.5160950  
H   -2.9844346    0.0001026   -0.9290167  
H    4.3940038    0.0007618   -1.1498640  
C    0.8676693    0.7151171    2.2619005  
C    0.5875920    0.4624972    3.5848544  
C   -0.5048400   -0.4542819    3.6114698  
C   -0.8517165   -0.7276451    2.2635546  
N    0.0000000    0.0000000    1.4700000  
C   -1.8902865   -1.5946756    1.9108239  
C   -2.5912627   -2.1969500    2.9375057  
O   -3.6148162   -3.0527051    2.6493466  
C   -2.2603868   -1.9365747    4.2886322  
O   -3.0513550   -2.6123276    5.1947621  
C   -1.2361111   -1.0811317    4.6373480  
H    1.1060808    0.8876438    4.4271209  
H   -2.1597133   -1.8070987    0.8854031  
H   -3.9636755   -3.3565188    3.4974381  
H   -2.7621927   -2.3810384    6.0827341  
H   -1.0058879   -0.9010589    5.6809233  
H    1.6167816    1.3499334    1.8205408  
