62

C    3.3003541    0.0005279   -1.4738995  
C    2.5232808    0.0003500   -2.6090755  
C    1.1623195   -0.0001318   -2.1820103  
C    1.1711881    0.0000583   -0.7636142  
N    2.4852299   -0.0014917   -0.3662361  
C    0.0000000    0.0000000    0.0000000  
C   -1.2020385    0.0000519   -0.6806475  
O   -2.3759250    0.0003492    0.0157749  
C   -1.2314661   -0.0005113   -2.0955502  
O   -2.5054394   -0.0008037   -2.6250176  
C   -0.0764521   -0.0007271   -2.8495194  
H    2.8919946   -0.0005617   -3.6205306  
H    2.8036265    0.0088182    0.5858654  
H   -3.0835641    0.0000346   -0.6418810  
H   -2.4360053   -0.0011528   -3.5845915  
H    4.3715547    0.0004896   -1.3667139  
C    2.2883726   -2.1096666   -5.8898014  
C    1.6780794   -1.6459102   -7.0107596  
C    0.6304135   -0.7505693   -6.5799515  
C    0.6807518   -0.7305569   -5.1055513  
N    1.7068938   -1.5752687   -4.7500465  
C   -0.1496422   -0.0015612   -4.3176960  
C   -1.1605707    0.8178672   -4.9650726  
O   -1.9555605    1.5101065   -4.3429007  
C   -1.2321950    0.8117311   -6.5254046  
O   -2.0793598    1.4974361   -7.0816253  
C   -0.2825947   -0.0147688   -7.2663563  
H    1.9326347   -1.9019647   -8.0238006  
H    3.1138595   -2.7970349   -5.8004380  
H    1.9910630   -1.7715751   -3.8078371  
C    0.1507917   -3.2921555  -10.1050899  
C   -0.0218724   -2.6655732  -11.2921715  
C   -0.2511894   -1.2702952  -10.9499539  
C   -0.1812801   -1.2323519   -9.4733848  
N    0.0542057   -2.4145833   -8.9725210  
C   -0.3588487   -0.0127529   -8.7343756  
C   -0.5951167    1.1176275   -9.4384722  
O   -0.7798900    2.3255062   -8.8790721  
C   -0.6710638    1.1118199  -10.9292305  
O   -0.8894352    2.1778685  -11.5046213  
C   -0.4855293   -0.1519349  -11.6643672  
H    0.0033604   -3.0969207  -12.2782629  
H   -0.9251486    2.9274759   -9.6311929  
H   -0.5478691   -0.1138906  -12.7436701  
H    0.3452164   -4.3380609   -9.9283022  
C    2.5285572    2.1210227    2.9438989  
C    1.9331703    1.6216660    4.0790748  
C    0.8903039    0.7472258    3.6520102  
C    0.8972198    0.7527806    2.2336141  
N    1.9028376    1.5986179    1.8362361  
C    0.0000000    0.0000000    1.4700000  
C   -0.9207814   -0.7726952    2.1506477  
O   -1.8198395   -1.5274828    1.4542253  
C   -0.9436862   -0.7911793    3.5655508  
O   -1.9197945   -1.6098497    4.0950179  
C   -0.0590329   -0.0485852    4.3195194  
H    2.2150357    1.8593692    5.0905303  
H    2.1533708    1.7953814    0.8841339  
H   -2.3621246   -1.9821033    2.1118817  
H   -1.8668290   -1.5649508    5.0545920  
H   -0.1007624   -0.0827977    5.4019087  
H    3.3491200    2.8096064    2.8367138  
