64

C    3.3041270    0.0001178   -1.5420432  
C    2.5845372   -0.0004779   -0.3695853  
C    1.2040007   -0.0000006   -0.7283591  
C    1.1422373    0.0006039   -2.1454374  
N    2.4348636    0.0026110   -2.6077466  
C   -0.0655186    0.0008800   -2.8497915  
C   -1.2321770    0.0002326   -2.1101397  
O   -2.4392818    0.0001149   -2.7472515  
C   -1.1911209   -0.0000006   -0.6955262  
O   -2.4371522   -0.0002319   -0.1032858  
C    0.0000000    0.0000000    0.0000000  
H    3.0031535   -0.0000661    0.6222580  
H    2.7054625   -0.0071097   -3.5745263  
H   -3.1132993   -0.0000646   -2.0551781  
H   -2.3200286   -0.0004070    0.8516413  
C    6.7748104   -0.0036706    1.2764671  
C    5.5082316   -0.0035545    0.7395824  
C    5.6573261   -0.0010104   -0.6789959  
C    7.0493885    0.0000631   -0.9511879  
N    7.6991157    0.0003497    0.2581387  
C    7.5659478    0.0022524   -2.2503990  
C    6.6607397    0.0030713   -3.2938426  
O    7.1109041    0.0048476   -4.5823934  
C    5.2680297    0.0023992   -3.0424938  
O    4.4967627    0.0037872   -4.1863858  
C    4.7577214    0.0005130   -1.7610465  
H    4.5898239   -0.0040066    1.3012937  
H    8.6954215   -0.0094974    0.3816709  
H    8.6258301    0.0032241   -2.4645276  
H    6.3261385    0.0054441   -5.1457819  
H    3.5699429    0.0031882   -3.9283021  
H    7.0920031   -0.0048575    2.3052266  
C    2.3136480   -2.1180445   -5.9171364  
C    1.6624049   -1.6181593   -7.0209774  
C    0.6419633   -0.7441445   -6.5420233  
C    0.7194921   -0.7504912   -5.1257342  
N    1.7437751   -1.5963709   -4.7793973  
C   -0.1387086    0.0017020   -4.3179679  
C   -1.0923531    0.7746131   -4.9514883  
O   -1.9557355    1.5288506   -4.2107381  
C   -1.1856790    0.7938844   -6.3634855  
O   -2.1870617    1.6126764   -6.8432319  
C   -0.3395505    0.0518701   -7.1609864  
H    1.8935970   -1.8552466   -8.0453470  
H    2.0414317   -1.7936220   -3.8410615  
H   -2.5301607    1.9837420   -4.8403213  
H   -2.1819315    1.5683236   -7.8042785  
H   -0.4351246    0.0866804   -8.2399365  
H    3.1386332   -2.8065414   -5.8513301  
C    0.8681109    0.7263879    2.2709268  
C    0.6127770    0.5096195    3.5869401  
C   -0.4920590   -0.4175482    3.6542670  
C   -0.8620974   -0.7254003    2.2596025  
N    0.0000000    0.0000000    1.4700000  
C   -1.8641242   -1.5660088    1.8976294  
C   -2.6293522   -2.2103885    2.9520183  
O   -3.5512764   -2.9839180    2.7283916  
C   -2.2549728   -1.8987399    4.4361073  
O   -2.8923672   -2.4351063    5.3323774  
C   -1.1543735   -0.9755647    4.7012123  
H    1.1382914    0.9492124    4.4159191  
H   -2.1192137   -1.7782617    0.8686553  
H   -0.9013378   -0.7652422    5.7314848  
H    1.6172880    1.3558399    1.8188057  
