60

C    9.8742695    0.0024008   -7.2976890  
C    9.0971968    0.0023220   -8.4328650  
C    7.7362350    0.0018828   -8.0058008  
C    7.7451038    0.0019954   -6.5874045  
N    9.0591454    0.0003602   -6.1900270  
C    6.5739152    0.0019520   -5.8237903  
C    5.3718768    0.0020990   -6.5044385  
O    4.1979902    0.0024150   -5.8080159  
C    5.3424493    0.0016140   -7.9193410  
O    4.0684758    0.0014117   -8.4488077  
C    6.4974632    0.0013835   -8.6733105  
H    9.4659108    0.0014477   -9.4443210  
H    9.3775425    0.0106033   -5.2379241  
H    3.4903513    0.0021702   -6.4656720  
H    4.1379101    0.0011116   -9.4083824  
H    6.4435053    0.0008300   -9.7556989  
H   10.9454690    0.0023053   -7.1905037  
C    6.5739150    0.0018721   -4.3537904  
C    7.6280837    0.0019470   -3.4977512  
C    7.0842294    0.0017737   -2.1601949  
C    5.6162780    0.0015611   -2.3082170  
N    5.3720693    0.0020316   -3.6621935  
C    4.7390840    0.0009613   -1.2727298  
C    5.2766305    0.0007201    0.0776698  
O    4.5688481    0.0002470    1.0763412  
C    6.8281773    0.0011907    0.2579666  
O    7.2923820    0.0012996    1.3901216  
C    7.6713703    0.0015461   -0.9348778  
H    8.6679908    0.0022879   -3.7719920  
H    8.7446428    0.0016655   -0.8014235  
H    4.4610955    0.0004680   -4.0831112  
C    3.2798077    0.0005856   -1.4499661  
C    2.5571132    0.0005565   -2.5996564  
C    1.1637425    0.0001547   -2.2210366  
C    1.1336959   -0.0000200   -0.7459475  
N    2.4483509   -0.0001429   -0.3402730  
C    0.0000000    0.0000000    0.0000000  
C   -1.2757370   -0.0000187   -0.6964411  
O   -2.3524597   -0.0000640   -0.1142306  
C   -1.2676502   -0.0000874   -2.2584078  
O   -2.3355774   -0.0004102   -2.8557287  
C    0.0181551    0.0001758   -2.9516297  
H    2.9547342    0.0006074   -3.5989118  
H    0.0150776    0.0003317   -4.0331632  
H    2.7563626    0.0012823    0.6148051  
C    2.4951002    2.0940188    2.9809380  
C    1.9440701    1.6314916    1.8291961  
C    0.8759964    0.7350050    2.2038498  
C    0.8497377    0.7130254    3.6788474  
N    1.8560616    1.5571714    4.0882609  
C   -0.0205033   -0.0168748    4.4215661  
C   -0.9962600   -0.8356168    3.7214979  
O   -1.8224391   -1.5286685    4.3006425  
C   -0.9864710   -0.8277881    2.1595606  
O   -1.8030528   -1.5133726    1.5592035  
C    0.0000000    0.0000000    1.4700000  
H    2.2509283    1.8888011    0.8310761  
H   -0.0229599   -0.0187323    5.5027230  
H    3.3143982    2.7817323    3.1139444  
H    2.0889452    1.7545833    5.0442112  
