64

C    5.9101938   -2.3688887   -6.4573785  
C    5.4768071   -1.0658675   -6.5397146  
C    6.2587418   -0.4300030   -7.5490972  
C    7.1602040   -1.4029196   -8.0518161  
N    6.9231670   -2.5682550   -7.3659408  
C    8.0855694   -1.1258104   -9.0626063  
C    8.1009918    0.1567359   -9.5754558  
O    8.9842610    0.4813877  -10.5641184  
C    7.2097011    1.1413723   -9.0866736  
O    7.3487184    2.3699499   -9.6987323  
C    6.2967250    0.8687767   -8.0893309  
H    7.4045335   -3.4368318   -7.5137328  
H    8.7754147   -1.8628587   -9.4500040  
H    8.8296376    1.4116662  -10.7737328  
H    6.7107881    2.9768351   -9.3109960  
H    5.6267833    1.6434801   -7.7350849  
H    5.5778522   -3.1714445   -5.8214446  
C    4.1935189   -0.7177392   -4.3920612  
C    3.1006054    0.0006263   -3.9654951  
C    2.6156860    0.7290725   -5.0919140  
C    3.4596600    0.4124173   -6.1870684  
N    4.4081830   -0.4669997   -5.7271260  
C    3.2765216    0.9521230   -7.4637702  
C    2.2220061    1.8272005   -7.6381679  
O    1.9974347    2.3830028   -8.8644087  
C    1.3691747    2.1557891   -6.5576473  
O    0.3653170    3.0414011   -6.8912723  
C    1.5494145    1.6239436   -5.2978137  
H    3.9163352    0.7149182   -8.3025628  
H    1.2248027    2.9547944   -8.7676627  
H   -0.1646173    3.2102458   -6.1062475  
H    0.8800650    1.8944398   -4.4895555  
H    4.8377623   -1.3880253   -3.8492667  
C    3.2798083    0.0005857   -1.4499652  
C    2.5571142    0.0005565   -2.5996556  
C    1.1637432    0.0001548   -2.2210361  
C    1.1336964   -0.0000200   -0.7459473  
N    2.4483512   -0.0001428   -0.3402723  
C    0.0000000    0.0000000    0.0000000  
C   -1.2757368   -0.0000186   -0.6964415  
O   -2.3524598   -0.0000639   -0.1142311  
C   -1.2676497   -0.0000872   -2.2584083  
O   -2.3355766   -0.0004101   -2.8557295  
C    0.0181558    0.0001758   -2.9516296  
H    0.0150788    0.0003319   -4.0331631  
H    4.3498547    0.0008612   -1.3200026  
H    2.7563626    0.0012823    0.6148059  
C    2.5311839    2.1237619    3.0120429  
C    1.9795631    1.6616747    1.8395852  
C    0.9223175    0.7739173    2.1983588  
C    0.8753926    0.7337535    3.6154372  
N    1.8668922    1.5631002    4.0777464  
C   -0.0496243   -0.0427881    4.3197917  
C   -0.9437528   -0.7922060    3.5801400  
O   -1.8685244   -1.5680278    4.2172520  
C   -0.9124520   -0.7656372    2.1655264  
O   -1.8671164   -1.5663939    1.5732860  
C    0.0000000    0.0000000    1.4700000  
H    2.3005065    1.9304404    0.8477417  
H    2.0679347    1.7444845    5.0445261  
H   -0.0904770   -0.0778569    5.3997470  
H   -2.3849669   -2.0011402    3.5251786  
H   -1.7775064   -1.4909735    0.6183591  
H    3.3468514    2.8078103    3.1724291  
