64

C    3.3003547    0.0005275   -1.4738980  
C    2.5232816    0.0003495   -2.6090742  
C    1.1623206   -0.0001320   -2.1820096  
C    1.1711889    0.0000583   -0.7636136  
N    2.4852300   -0.0014920   -0.3662353  
C    0.0000000    0.0000000    0.0000000  
C   -1.2020382    0.0000519   -0.6806479  
O   -2.3759247    0.0003494    0.0157745  
C   -1.2314650   -0.0005113   -2.0955508  
O   -2.5054383   -0.0008037   -2.6250181  
C   -0.0764510   -0.0007273   -2.8495192  
H    2.8919962   -0.0005621   -3.6205295  
H    2.8036265    0.0088181    0.5858667  
H   -3.0835641    0.0000347   -0.6418820  
H   -2.4360047   -0.0011529   -3.5845921  
C    5.6708527    0.0001559   -2.3611556  
C    4.7630506    0.0004754   -1.3275394  
C    5.5133495   -0.0009826   -0.1144235  
C    6.8855148   -0.0018732   -0.4737112  
N    6.9456606   -0.0031000   -1.8452062  
C    7.9149931   -0.0030748    0.4723126  
C    7.5526788   -0.0030760    1.8053193  
O    8.5177183   -0.0038718    2.7705708  
C    6.1889808   -0.0025710    2.1836640  
O    5.9909385   -0.0030667    3.5489927  
C    5.1728468   -0.0016587    1.2509268  
H    7.7894877    0.0066338   -2.3891194  
H    8.9627174   -0.0039020    0.2049649  
H    8.0554429   -0.0040212    3.6188428  
H    5.0439893   -0.0026485    3.7189663  
H    4.1374041   -0.0014714    1.5708277  
H    5.5098591    0.0005473   -3.4255990  
C   -0.1496409   -0.0015614   -4.3176961  
C    0.8570964   -0.0030961   -5.2552169  
C    0.2320393   -0.0039303   -6.5373647  
C   -1.1692056   -0.0025470   -6.3172805  
N   -1.3663818   -0.0030784   -4.9587014  
C   -2.0987832   -0.0025769   -7.3616343  
C   -1.6048133   -0.0037227   -8.6516611  
O   -2.4683507   -0.0034545   -9.7086936  
C   -0.2100855   -0.0054867   -8.8915534  
O    0.1236735   -0.0068878  -10.2301899  
C    0.7075443   -0.0057315   -7.8617570  
H    1.9121946   -0.0046627   -5.0413048  
H   -2.2604154    0.0081956   -4.5020191  
H   -3.1680123   -0.0016709   -7.2005412  
H   -1.9234595   -0.0046896  -10.5064138  
H    1.0828827   -0.0080046  -10.3044887  
H    1.7698145   -0.0072815   -8.0763683  
C    2.5128556    2.1077716    2.9199648  
C    1.9592212    1.6432552    4.0696553  
C    0.8915788    0.7479214    3.6910360  
C    0.8684491    0.7287414    2.2159470  
N    1.8754542    1.5738793    1.8102719  
C    0.0000000    0.0000000    1.4700000  
C   -0.9772830   -0.8200135    2.1664417  
O   -1.8021297   -1.5120829    1.5842315  
C   -0.9711318   -0.8147624    3.7284083  
O   -1.7894187   -1.5009653    4.3257297  
C    0.0140216    0.0115358    4.4216297  
H    2.2638494    1.8988021    5.0689105  
H    0.0117648    0.0094386    5.5031631  
H    3.3327358    2.7953732    2.7900019  
H    2.1123206    1.7707734    0.8551938  
