66

C    3.9950694    0.5750048   -7.4120487  
C    5.0581563   -0.2607586   -7.1594346  
C    5.8997094   -0.2235603   -8.3105225  
C    5.2939783    0.6596206   -9.2405800  
N    4.1383697    1.1254131   -8.6641930  
C    5.8510439    0.9380850  -10.4923487  
C    7.0414292    0.3138424  -10.8109133  
O    7.6290845    0.5503672  -12.0199333  
C    7.6609355   -0.5708946   -9.8964359  
O    8.8413127   -1.1134838  -10.3608183  
C    7.1118057   -0.8462825   -8.6614697  
H    5.2080210   -0.8283561   -6.2570115  
H    3.5022656    1.7783540   -9.0849314  
H    5.3942772    1.6101243  -11.2057427  
H    8.4382342    0.0229084  -12.0380776  
H    9.1943334   -1.6985131   -9.6835292  
H    7.6092490   -1.5285050   -7.9820574  
C    2.8127784   -0.7365250   -3.3573043  
C    1.6478437   -0.0100096   -3.2702997  
C    1.5143088    0.7107913   -4.4939068  
C    2.6370072    0.3812884   -5.2957183  
N    3.4061782   -0.4980964   -4.5748329  
C    2.8346054    0.9108205   -6.5745226  
C    1.8813275    1.7887460   -7.0527328  
O    2.0247684    2.3349771   -8.2953391  
C    0.7544619    2.1300935   -6.2675752  
O   -0.1041859    3.0169823   -6.8836084  
C    0.5590205    1.6082894   -5.0058107  
H    4.2627412   -0.9148661   -4.8919834  
H    1.2608973    2.9107770   -8.4303229  
H   -0.8375013    3.1947276   -6.2867342  
H   -0.3138104    1.8884589   -4.4277533  
H    3.2680677   -1.4048171   -2.6466307  
C    1.1188642    0.0008224   -0.8003808  
C    0.0000000    0.0000000    0.0000000  
C   -1.1323861    0.0008899   -0.8673529  
C   -0.6382661    0.0019681   -2.1969282  
N    0.7324017    0.0038483   -2.1202240  
C   -1.4770912    0.0027320   -3.3154810  
C   -2.8395474    0.0020946   -3.0876860  
O   -3.7039199    0.0024426   -4.1440353  
C   -3.3517867    0.0013927   -1.7684331  
O   -4.7300496    0.0012363   -1.7073125  
C   -2.5248543    0.0009121   -0.6644818  
H   -1.1067568    0.0036992   -4.3313814  
H   -4.5940031    0.0021828   -3.7685133  
H   -4.9934602    0.0007260   -0.7819919  
H   -2.9462579    0.0005600    0.3339656  
H    2.1619896    0.0009357   -0.5342065  
C    0.8576279    0.7185626    2.2703808  
C    0.0000000    0.0000000    1.4700000  
C   -0.8668858   -0.7285659    2.3373528  
C   -0.4876752   -0.4117774    3.6669281  
N    0.5635254    0.4678311    3.5902241  
C   -1.1297612   -0.9515493    4.7854808  
C   -2.1738724   -1.8268314    4.5576857  
O   -2.8357962   -2.3827064    5.6140350  
C   -2.5667212   -2.1555554    3.2384331  
O   -3.6226318   -3.0413663    3.1773122  
C   -1.9335634   -1.6236449    2.1344818  
H    1.0363952    0.8769718    4.3757045  
H   -0.8454472   -0.7142436    5.8013813  
H   -3.5178062   -2.9546422    5.2385129  
H   -3.8247440   -3.2102924    2.2519915  
H   -2.2566033   -1.8942483    1.1360343  
H    1.6567807    1.3889844    2.0042067  
