64

C   -5.6933125    0.7218429    1.0819043  
C   -6.5714812    0.0025835    0.3047596  
C   -7.4159624   -0.7246315    1.1950450  
C   -7.0025464   -0.4063389    2.5140230  
N   -5.9534063    0.4728268    2.4091914  
C   -7.6157786   -0.9445269    3.6494038  
C   -8.6656709   -1.8197420    3.4496496  
O   -9.3003401   -2.3741026    4.5233783  
C   -9.0924591   -2.1499525    2.1413572  
O  -10.1498586   -3.0354882    2.1085388  
C   -8.4877786   -1.6196054    1.0208129  
H   -5.4603444    0.8827734    3.1817298  
H   -7.3053280   -0.7060698    4.6573526  
H   -9.9919654   -2.9462723    4.1662489  
H  -10.3757812   -3.2054815    1.1889386  
H   -8.8365029   -1.8913254    0.0313493  
H   -4.9010780    1.3916732    0.7944131  
C   -3.3460096   -0.0004265   -2.7913646  
C   -4.0351699    0.0002919   -1.6007661  
C   -5.4244872    0.0000938   -1.9238719  
C   -5.5227199   -0.0010493   -3.3388900  
N   -4.2424270    0.0006120   -3.8343331  
C   -6.7482122   -0.0018428   -4.0119103  
C   -7.8954376   -0.0017826   -3.2424620  
O   -9.1185479   -0.0028873   -3.8482786  
C   -7.8179688   -0.0002749   -1.8293755  
O   -9.0483374    0.0000073   -1.2052459  
C   -6.6093335    0.0007818   -1.1647519  
H   -3.5911529    0.0019911   -0.6200322  
H   -3.9968105   -0.0102476   -4.8077477  
H   -6.8298404   -0.0025710   -5.0901211  
H   -9.7745212   -0.0023340   -3.1390794  
H   -8.9066623    0.0010224   -0.2536522  
C    0.0000000    0.0000000    0.0000000  
C    1.0662919   -0.0000103   -0.8334269  
C    0.4961869    0.0000064   -2.1718889  
C   -0.9663859   -0.0000850   -1.9540246  
N   -1.2632774   -0.0000084   -0.6828657  
C   -1.8985363   -0.0000518   -3.0477257  
C   -1.3925778    0.0004564   -4.3020545  
O   -2.1456384    0.0005409   -5.4151311  
C    0.0786230    0.0009323   -4.5544998  
O    0.4683758    0.0012588   -5.7221098  
C    1.0143164    0.0008442   -3.4159030  
H    2.1107195    0.0000633   -0.5721867  
H   -1.5042275    0.0009691   -6.1484418  
H    2.0724152    0.0013148   -3.6409744  
C    1.1243417   -0.0099156    2.2619005  
C    0.7474090   -0.0234034    3.5848544  
C   -0.6787367   -0.0234952    3.6114698  
C   -1.1201739   -0.0099357    2.2635546  
N    0.0000000    0.0000000    1.4700000  
C   -2.4730812   -0.0065396    1.9108239  
C   -3.3971947   -0.0173298    2.9375057  
O   -4.7313508   -0.0149487    2.6493466  
C   -2.9763630   -0.0305536    4.2886322  
O   -4.0166453   -0.0397858    5.1947621  
C   -1.6418541   -0.0336380    4.6373480  
H    1.4178735   -0.0310004    4.4271209  
H   -2.8160170    0.0039190    0.8854031  
H   -5.1938803   -0.0234410    3.4974381  
H   -3.6464643   -0.0484781    6.0827341  
H   -1.3497443   -0.0436789    5.6809233  
H    2.1062470   -0.0051382    1.8205408  
