60

C    5.5677509   -2.4172470   -6.6225945  
C    6.5430430   -2.6281659   -7.5695809  
C    6.7132135   -1.3989664   -8.2729382  
C    5.8073285   -0.4662303   -7.7061024  
N    5.1260436   -1.1176540   -6.7080462  
C    5.7018108    0.8538515   -8.1544756  
C    6.5260030    1.2394504   -9.1938009  
O    6.4643938    2.5170328   -9.6702458  
C    7.4360865    0.3232224   -9.7726733  
O    8.1871622    0.8588300  -10.7985167  
C    7.5405288   -0.9793006   -9.3310279  
H    7.0665658   -3.5543840   -7.7340176  
H    5.0133172    1.5695730   -7.7267822  
H    7.1129680    2.5738541  -10.3839612  
H    8.7753348    0.1752831  -11.1338069  
H    8.2468292   -1.6583854   -9.7941284  
H    5.1512423   -3.0914147   -5.8939120  
C    3.9401662   -0.7297680   -4.5164158  
C    4.0974221   -0.5149774   -5.8480354  
C    3.0659746    0.4122206   -6.2496016  
C    2.2893655    0.7222460   -5.0340560  
N    2.8699641   -0.0020530   -4.0185824  
C    1.2252011    1.5635274   -4.9952717  
C    0.8173872    2.2063902   -6.2333953  
O   -0.1284219    2.9803718   -6.3019358  
C    1.6253347    1.8924311   -7.5328016  
O    1.2911293    2.4275067   -8.5812588  
C    2.7538819    0.9687189   -7.4492039  
H    0.6692881    1.7773818   -4.0929764  
H    3.3082345    0.7567935   -8.3533637  
H    4.5159220   -1.3586198   -3.8569165  
C    3.2573670   -0.0002921   -1.5109382  
C    2.5379468   -0.0001711   -0.3591962  
C    1.1435043    0.0000330   -0.7338498  
C    1.1092608   -0.0000085   -2.2088474  
N    2.4227562    0.0001906   -2.6182610  
C   -0.0265533   -0.0002525   -2.9515663  
C   -1.3003033   -0.0002641   -2.2514979  
O   -2.3786785   -0.0004132   -2.8306425  
C   -1.2877724    0.0000310   -0.6895608  
O   -2.3539956    0.0003306   -0.0892035  
C    0.0000000    0.0000000    0.0000000  
H    2.9384091   -0.0000370    0.6389240  
H   -0.0296290   -0.0004088   -4.0327231  
H    4.3270394   -0.0004767   -1.6439445  
C    0.8400945    0.7047457    2.2710304  
C    0.0000000    0.0000000    1.4700000  
C   -0.8844236   -0.7423113    2.3369512  
C   -0.4878984   -0.4098547    3.7186280  
N    0.5629682    0.4714286    3.6095011  
C   -1.0836927   -0.9095027    4.8308716  
C   -2.1891196   -1.8367527    4.6554461  
O   -2.7906899   -2.3413415    5.5944904  
C   -2.6257283   -2.2031529    3.2011665  
O   -3.5549479   -2.9829990    3.0410059  
C   -1.9068976   -1.5999348    2.0816745  
H   -0.7774656   -0.6525820    5.8354244  
H   -2.2155208   -1.8586617    1.0779135  
H    1.6384792    1.3747609    1.9961646  
H    1.0518368    0.8833920    4.3830260  
