62

C   -0.5846149    0.1941866   -8.6959373  
C    0.1499112   -0.4626914   -9.6558588  
C   -0.3775043   -0.0732137  -10.9226426  
C   -1.4412126    0.8306090  -10.6705402  
N   -1.5413517    0.9693353   -9.3084300  
C   -2.1923158    1.4186238  -11.6927297  
C   -1.8634268    1.0884510  -12.9931128  
O   -2.5642515    1.6341264  -14.0294989  
C   -0.8056990    0.1883456  -13.2648458  
O   -0.6014729   -0.0394781  -14.6101097  
C   -0.0644685   -0.3923320  -12.2569202  
H    0.9648163   -1.1401865   -9.4663237  
H   -2.2014422    1.5568415   -8.8318827  
H   -3.0043394    2.1081147  -11.5071957  
H   -2.1778872    1.2756389  -14.8391134  
H    0.1294458   -0.6576156  -14.7063786  
H    0.7397975   -1.0783307  -12.4957505  
C    2.1709838   -2.0097059   -6.1391753  
C    1.7780127   -1.6284991   -4.9015025  
C    0.6718279   -0.7104844   -5.1253423  
C    0.5282239   -0.6514436   -6.5958784  
N    1.4042459   -1.4110423   -7.1955325  
C   -0.4727386    0.1611593   -7.2305726  
C   -1.2932057    0.8817146   -6.4324696  
O   -2.2712231    1.6824664   -6.8888896  
C   -1.1735672    0.8429685   -4.9450740  
O   -1.9541225    1.5247035   -4.2808516  
C   -0.1387079    0.0017019   -4.3179684  
H    2.1880840   -1.9327663   -3.9536955  
H   -2.6790397    2.0573117   -6.0874357  
H    2.9666378   -2.6878242   -6.4038701  
C    3.3041273    0.0001178   -1.5420428  
C    2.5845373   -0.0004780   -0.3695851  
C    1.2040007   -0.0000007   -0.7283589  
C    1.1422374    0.0006038   -2.1454372  
N    2.4348641    0.0026111   -2.6077464  
C   -0.0655179    0.0008799   -2.8497918  
C   -1.2321766    0.0002325   -2.1101402  
O   -2.4392814    0.0001148   -2.7472522  
C   -1.1911209   -0.0000007   -0.6955266  
O   -2.4371528   -0.0002320   -0.1032862  
C    0.0000000    0.0000000    0.0000000  
H    3.0031533   -0.0000660    0.6222584  
H    2.7054631   -0.0071097   -3.5745261  
H   -3.1132988   -0.0000648   -2.0551787  
H   -2.3200282   -0.0004072    0.8516409  
H    4.3686625    0.0004073   -1.7024290  
C    0.0000000    0.0000000    1.4700000  
C    1.0541688    0.0001722    2.3260392  
C    0.5103138    0.0000454    3.6635956  
C   -0.9576371   -0.0002459    3.5155732  
N   -1.2018458    0.0001392    2.1615969  
C   -1.8348311   -0.0008317    4.5510609  
C   -1.2972847   -0.0009736    5.9014604  
O   -2.0050672   -0.0014265    6.9001319  
C    0.2542623   -0.0004184    6.0817573  
O    0.7184670   -0.0002256    7.2139121  
C    1.0974552   -0.0000873    4.8889129  
H    2.0940752    0.0005483    2.0517982  
H   -2.9081052   -0.0011668    4.4207061  
H    2.1707277    0.0000911    5.0223670  
H   -2.1128194   -0.0014912    1.7406791  
