62

C    0.0000000    0.0000000    0.0000000  
C    1.0521663   -0.0011985   -0.8862346  
C    0.4917215   -0.0011999   -2.1979134  
C   -0.9187428    0.0003217   -2.0478684  
N   -1.1833171   -0.0009320   -0.7007913  
C   -1.7951702    0.0010485   -3.1372091  
C   -1.2375839    0.0005316   -4.4010427  
O   -2.0474214    0.0015510   -5.4997580  
C    0.1673579   -0.0013586   -4.5711965  
O    0.5673522   -0.0020741   -5.8915554  
C    1.0325770   -0.0023497   -3.4969894  
H    2.0953053   -0.0030813   -0.6200564  
H   -2.0989774    0.0102535   -0.2891825  
H   -1.4634888    0.0006605   -6.2693593  
H    1.5290702   -0.0033279   -5.9180048  
H    2.1042143   -0.0039778   -3.6584458  
C   -4.4484545    2.1114145   -0.3461923  
C   -5.6479905    1.6480102   -0.7825920  
C   -5.3783926    0.7523835   -1.8825943  
C   -3.9129544    0.7318199   -2.0524736  
N   -3.4082397    1.5765178   -1.0908926  
C   -3.2578654    0.0024289   -2.9908507  
C   -4.0489190   -0.8168734   -3.8939084  
O   -3.5523770   -1.5094411   -4.7725990  
C   -5.6025063   -0.8101561   -3.7322732  
O   -6.2789761   -1.4957501   -4.4869983  
C   -6.1934210    0.0167354   -2.6830244  
H   -6.6117099    1.9044774   -0.3799969  
H   -4.2368607    2.7988459    0.4566501  
H   -2.4341395    1.7725013   -0.9503009  
C   -8.4361147    1.0943020   -2.2717099  
C   -7.6564187    0.0152654   -2.5397186  
C   -8.5376583   -1.1227088   -2.6549005  
C   -9.9044729   -0.6145471   -2.4304456  
N   -9.7739348    0.7361091   -2.2033394  
C  -11.0238520   -1.3813589   -2.4568068  
C  -10.8723183   -2.8020117   -2.7238617  
O  -11.8194382   -3.5761479   -2.7683527  
C   -9.4340621   -3.3618670   -2.9642529  
O   -9.2940204   -4.5563598   -3.1897194  
C   -8.3049265   -2.4366267   -2.9110110  
H  -12.0172357   -0.9887232   -2.2896674  
H   -7.3123935   -2.8321869   -3.0787457  
H   -8.1459260    2.1210003   -2.1181821  
H  -10.5336987    1.3651384   -2.0186007  
C    1.1243417   -0.0099156    2.2619005  
C    0.7474090   -0.0234034    3.5848544  
C   -0.6787367   -0.0234952    3.6114698  
C   -1.1201739   -0.0099357    2.2635546  
N    0.0000000    0.0000000    1.4700000  
C   -2.4730812   -0.0065396    1.9108239  
C   -3.3971947   -0.0173298    2.9375057  
O   -4.7313508   -0.0149487    2.6493466  
C   -2.9763630   -0.0305536    4.2886322  
O   -4.0166453   -0.0397858    5.1947621  
C   -1.6418541   -0.0336380    4.6373480  
H    1.4178735   -0.0310004    4.4271209  
H   -2.8160170    0.0039190    0.8854031  
H   -5.1938803   -0.0234410    3.4974381  
H   -3.6464643   -0.0484781    6.0827341  
H   -1.3497443   -0.0436789    5.6809233  
H    2.1062470   -0.0051382    1.8205408  
