60

C    3.4037574   -3.6117117   -3.7515100  
C    4.5102687   -4.4173378   -3.8895925  
C    4.9223855   -4.3287105   -5.2522751  
C    4.0220312   -3.4466586   -5.9028691  
N    3.1114194   -3.0309912   -4.9633892  
C    4.1266711   -3.1241548   -7.2592734  
C    5.1592010   -3.7023779   -7.9718164  
O    5.3078497   -3.4216714   -9.2992656  
C    6.0674330   -4.5852106   -7.3405179  
O    7.0403136   -5.0791364   -8.1848425  
C    5.9646458   -4.9040313   -6.0024919  
H    4.9638624   -4.9983760   -3.1049639  
H    3.4436007   -2.4527211   -7.7610630  
H    6.0778202   -3.9218976   -9.5995729  
H    7.6114798   -5.6662674   -7.6802140  
H    6.6750899   -5.5836043   -5.5465004  
H    2.7990835   -3.4065093   -2.8847807  
C    2.0060352   -2.0933379   -5.2079955  
C    1.0681397   -1.6309432   -4.3416127  
C    0.2140990   -0.7346498   -5.0846523  
C    0.7350358   -0.7126392   -6.4648451  
N    1.8215793   -1.5565845   -6.4731483  
C    0.2009223    0.0171140   -7.4767175  
C   -0.9646767    0.8356540   -7.1870522  
O   -1.5183206    1.5285631   -8.0306489  
C   -1.5330623    0.8277890   -5.7321703  
O   -2.5138754    1.5132041   -5.4762935  
C   -0.8712826    0.0001710   -4.7267111  
H    0.9842759   -1.8882191   -3.3007528  
H    0.5983667    0.0189976   -8.4821755  
H    2.3914337   -1.7539288   -7.2752512  
C    1.0965514    0.0001359   -0.8010305  
C    0.0000000    0.0000000    0.0000000  
C   -1.1546563    0.0001470   -0.8669513  
C   -0.6372014    0.0003519   -2.2486282  
N    0.7342871    0.0007337   -2.1395014  
C   -1.4147739    0.0001352   -3.3608717  
C   -2.8576049   -0.0001048   -3.1854462  
O   -3.6427779   -0.0002494   -4.1244907  
C   -3.4275840   -0.0000725   -1.7311666  
O   -4.6406831    0.0000333   -1.5710060  
C   -2.4891867   -0.0001091   -0.6116744  
H   -2.8919122   -0.0002918    0.3920866  
H    2.1388272    0.0000663   -0.5261648  
H    1.3735872   -0.0006099   -2.9130262  
C    0.8681109    0.7263879    2.2709268  
C    0.6127770    0.5096195    3.5869401  
C   -0.4920590   -0.4175482    3.6542670  
C   -0.8620974   -0.7254003    2.2596025  
N    0.0000000    0.0000000    1.4700000  
C   -1.8641242   -1.5660088    1.8976294  
C   -2.6293522   -2.2103885    2.9520183  
O   -3.5512764   -2.9839180    2.7283916  
C   -2.2549728   -1.8987399    4.4361073  
O   -2.8923672   -2.4351063    5.3323774  
C   -1.1543735   -0.9755647    4.7012123  
H    1.1382914    0.9492124    4.4159191  
H   -2.1192137   -1.7782617    0.8686553  
H   -0.9013378   -0.7652422    5.7314848  
H    1.6172880    1.3558399    1.8188057  
