62

C    0.9270915   -3.1577763  -10.2065564  
C    0.4913961   -2.4622363   -9.1025362  
C    0.3548037   -1.0982754   -9.4969396  
C    0.7240620   -1.0214221  -10.8642975  
N    1.0678366   -2.2891432  -11.2634471  
C    0.7088964    0.1761918  -11.5856013  
C    0.3134770    1.3169526  -10.9144175  
O    0.2800586    2.5131030  -11.5710163  
C   -0.0582648    1.2605881   -9.5500688  
O   -0.4272498    2.4812589   -9.0236130  
C   -0.0432823    0.0795058   -8.8377871  
H    0.2971001   -2.8856454   -8.1319865  
H    1.3629327   -2.5465048  -12.1879271  
H    0.9893022    0.2414521  -12.6278658  
H   -0.0190324    3.1692188  -10.9281157  
H   -0.6631170    2.3551373   -8.0994578  
H    1.1499625   -4.2045097  -10.3233359  
C    1.5647265   -2.0539605   -5.3222410  
C    1.3415396   -1.5772678   -6.5740504  
C    0.2114930   -0.6825503   -6.4885492  
C   -0.2083728   -0.6770015   -5.0741686  
N    0.6518898   -1.5286393   -4.4202953  
C   -1.2456329    0.0471727   -4.5828766  
C   -1.9989043    0.8763050   -5.5089746  
O   -2.9500476    1.5652087   -5.1639546  
C   -1.5719696    0.8855377   -7.0114545  
O   -2.1988662    1.5795073   -7.8005468  
C   -0.4365507    0.0630003   -7.4214648  
H    1.9041939   -1.8243652   -7.4566468  
H    2.3191293   -2.7449944   -4.9827731  
H    0.6225289   -1.7350433   -3.4386728  
C    1.1243410    0.0099923   -0.7919003  
C    0.7474076    0.0234544   -2.1148543  
C   -0.6787381    0.0234490   -2.1414700  
C   -1.1201745    0.0098592   -0.7935546  
N    0.0000000    0.0000000    0.0000000  
C   -2.4730816    0.0063709   -0.4408240  
C   -3.3971958    0.0170982   -1.4675058  
O   -4.7313517    0.0146259   -1.1793471  
C   -2.9763648    0.0303504   -2.8186324  
O   -4.0166480    0.0395118   -3.7247624  
C   -1.6418562    0.0335260   -3.1673481  
H    1.4178717    0.0310972   -2.9571209  
H   -2.8160166   -0.0041111    0.5845966  
H   -5.1938818    0.0230867   -2.0274384  
H   -3.6464675    0.0482293   -4.6127343  
H    2.1062467    0.0052819   -0.3505407  
C    0.8175213    0.6860729    2.3021913  
C    0.0000000    0.0000000    1.4700000  
C   -0.8887526   -0.7456559    2.3478473  
C   -0.4549825   -0.3816753    3.7138435  
N    0.5448156    0.4573574    3.6934124  
C   -1.0945674   -0.9182058    4.8835240  
C   -2.1210866   -1.7789155    4.6970523  
O   -2.8083856   -2.3554314    5.6976972  
C   -2.5824069   -2.1655116    3.3310774  
O   -3.5227682   -2.9541547    3.2362962  
C   -1.9100805   -1.6015804    2.1470656  
H   -0.7567140   -0.6349833    5.8697035  
H   -3.4728268   -2.9124471    5.2533954  
H   -2.2742832   -1.9066565    1.1752040  
H    1.6189533    1.3585343    2.0405121  
