60

C   -4.0205860    0.7162092   -6.2170993  
C   -3.3846727   -0.0016373   -7.2033945  
C   -4.3917400   -0.7300335   -7.9032908  
C   -5.6331546   -0.4138842   -7.2943025  
N   -5.3715997    0.4651961   -6.2728215  
C   -6.8476563   -0.9536882   -7.7283365  
C   -6.8082754   -1.8283451   -8.7967936  
O   -7.9650699   -2.3842212   -9.2613827  
C   -5.5794343   -2.1564262   -9.4173826  
O   -5.7061783   -3.0416605  -10.4679238  
C   -4.3808825   -1.6244836   -8.9895530  
H   -6.0609543    0.8738280   -5.6680150  
H   -7.7971563   -0.7168678   -7.2683712  
H   -7.7162074   -2.9556735   -9.9994703  
H   -4.8312745   -3.2101744  -10.8308989  
H   -3.4554135   -1.8945868   -9.4845577  
H   -3.6171732    1.3862979   -5.4773711  
C   -0.0307354   -0.0004645   -4.4215603  
C    1.0331812   -0.0004858   -5.2580179  
C    0.4592705   -0.0007207   -6.5948520  
C   -1.0026765   -0.0009308   -6.3728279  
N   -1.2959505   -0.0007012   -5.1008297  
C   -1.9379347   -0.0011511   -7.4638724  
C   -1.4355466   -0.0007721   -8.7196356  
O   -2.1917708   -0.0009257   -9.8305658  
C    0.0349299   -0.0001817   -8.9762653  
O    0.4213592    0.0000164  -10.1449796  
C    0.9738587   -0.0000095   -7.8403354  
H    2.0783477   -0.0002675   -4.9997498  
H   -1.5524490   -0.0005378  -10.5656984  
H    2.0313129    0.0005373   -8.0684166  
C    3.2573669   -0.0002919   -1.5109381  
C    2.5379467   -0.0001709   -0.3591962  
C    1.1435042    0.0000332   -0.7338501  
C    1.1092607   -0.0000081   -2.2088477  
N    2.4227561    0.0001910   -2.6182614  
C   -0.0265534   -0.0002522   -2.9515663  
C   -1.3003036   -0.0002639   -2.2514981  
O   -2.3786785   -0.0004131   -2.8306428  
C   -1.2877726    0.0000312   -0.6895608  
O   -2.3539957    0.0003306   -0.0892035  
C    0.0000000    0.0000000    0.0000000  
H    2.9384091   -0.0000368    0.6389238  
H    4.3270391   -0.0004764   -1.6439447  
H    2.7280492   -0.0013405   -3.5742114  
C    0.0000000    0.0000000    1.4700000  
C    1.0662921    0.0000102    2.3034270  
C    0.4961870   -0.0000064    3.6418889  
C   -0.9663858    0.0000850    3.4240247  
N   -1.2632773    0.0000084    2.1528658  
C   -1.8985362    0.0000517    4.5177257  
C   -1.3925775   -0.0004564    5.7720543  
O   -2.1456383   -0.0005410    6.8851312  
C    0.0786232   -0.0009323    6.0245000  
O    0.4683759   -0.0012588    7.1921102  
C    1.0143166   -0.0008442    4.8859032  
H    2.1107198   -0.0000632    2.0421868  
H   -2.9622183    0.0003270    4.3293377  
H   -1.5042274   -0.0009692    7.6184419  
H    2.0724152   -0.0013148    5.1109744  
