64

C   -3.3003548    0.0018919   -1.4738969  
C   -2.5232825    0.0015001   -2.6090733  
C   -1.1623208    0.0009839   -2.1820094  
C   -1.1711891    0.0008003   -0.7636130  
N   -2.4852286    0.0033138   -0.3662345  
C    0.0000000    0.0000000    0.0000000  
C    1.2020379   -0.0009333   -0.6806481  
O    2.3759235   -0.0020914    0.0157739  
C    1.2314644   -0.0003917   -2.0955509  
O    2.5054372   -0.0010333   -2.6250184  
C    0.0764506    0.0006710   -2.8495194  
H   -2.8919961    0.0026821   -3.6205285  
H   -2.8036323   -0.0067627    0.5858680  
H    3.0835622   -0.0022955   -0.6418826  
H    2.4360033   -0.0006334   -3.5845928  
H    0.1304089    0.0012463   -3.9319084  
C   -6.7690617    0.0040220   -4.2725592  
C   -5.4996714    0.0037069   -3.8032749  
C   -5.6352797    0.0039648   -2.3547894  
C   -7.0947601    0.0045546   -2.1170927  
N   -7.7645144    0.0045100   -3.2375478  
C   -7.6497391    0.0049085   -0.7915422  
C   -6.7859632    0.0042944    0.2492387  
O   -7.1644538    0.0045358    1.5387290  
C   -5.3077369    0.0033192    0.0418565  
O   -4.5810503    0.0029224    1.0354093  
C   -4.7630504    0.0030164   -1.3275378  
H   -4.5843350    0.0032540   -4.3700507  
H   -8.7202876    0.0055446   -0.6471949  
H   -6.3302569    0.0039249    2.0419868  
C   -4.5214881    0.0032310   -8.0814029  
C   -5.6072404    0.0032603   -8.9261563  
C   -6.7736101    0.0032780   -8.1050710  
C   -6.3333895    0.0035453   -6.7566899  
N   -4.9607454    0.0015586   -6.7781767  
C   -7.2165433    0.0039390   -5.6727948  
C   -8.5687299    0.0043723   -5.9552284  
O   -9.4749079    0.0051189   -4.9345151  
C   -9.0274709    0.0037394   -7.2940244  
O  -10.4021579    0.0038619   -7.4105539  
C   -8.1567874    0.0030776   -8.3638073  
H   -5.5639218    0.0021629  -10.0018494  
H   -4.3676273    0.0118113   -5.9681846  
H  -10.3491599    0.0050143   -5.3455484  
H  -10.6281223    0.0034345   -8.3457239  
H   -8.5376740    0.0024204   -9.3784020  
H   -3.4684971    0.0028249   -8.3053878  
C    2.5285572    2.1210227    2.9438989  
C    1.9331703    1.6216660    4.0790748  
C    0.8903039    0.7472258    3.6520102  
C    0.8972198    0.7527806    2.2336141  
N    1.9028376    1.5986179    1.8362361  
C    0.0000000    0.0000000    1.4700000  
C   -0.9207814   -0.7726952    2.1506477  
O   -1.8198395   -1.5274828    1.4542253  
C   -0.9436862   -0.7911793    3.5655508  
O   -1.9197945   -1.6098497    4.0950179  
C   -0.0590329   -0.0485852    4.3195194  
H    2.2150357    1.8593692    5.0905303  
H    2.1533708    1.7953814    0.8841339  
H   -2.3621246   -1.9821033    2.1118817  
H   -1.8668290   -1.5649508    5.0545920  
H   -0.1007624   -0.0827977    5.4019087  
H    3.3491200    2.8096064    2.8367138  
