64

C   -7.9477241   -0.6828758   -3.3361208  
C   -8.3714416    0.1347191   -2.3141283  
C   -9.7946550    0.0481583   -2.2744960  
C  -10.1861519   -0.8450237   -3.3044874  
N   -9.0404819   -1.2690355   -3.9308029  
C  -11.5225930   -1.1688451   -3.5571858  
C  -12.4812634   -0.5805176   -2.7553135  
O  -13.8013134   -0.8620031   -2.9584018  
C  -12.1104547    0.3134969   -1.7228136  
O  -13.1806403    0.8166280   -1.0122461  
C  -10.7922345    0.6336216   -1.4731278  
H   -7.7333207    0.7221972   -1.6764263  
H   -9.0035372   -1.9180768   -4.6958918  
H  -11.8275252   -1.8487381   -4.3407441  
H  -14.2932407   -0.3538208   -2.3003562  
H  -12.8435921    1.4109874   -0.3349434  
H  -10.5386841    1.3218727   -0.6753177  
C   -3.9676975    0.7295171   -2.0473356  
C   -5.3027975    0.5139988   -2.1703663  
C   -5.4806623   -0.4130407   -3.2629765  
C   -4.1300598   -0.7221803   -3.7700229  
N   -3.2578655    0.0024282   -2.9908505  
C   -3.8704409   -1.5630697   -4.8030801  
C   -4.9963844   -2.2064151   -5.4595049  
O   -4.8663860   -2.9801003   -6.3990856  
C   -6.4355315   -1.8933950   -4.9392355  
O   -7.3913129   -2.4288827   -5.4842080  
C   -6.5888722   -0.9700356   -3.8177428  
H   -6.0749214    0.9543392   -1.5649427  
H   -2.8721767   -1.7762738   -5.1593433  
H   -3.4426409    1.3585008   -1.3469179  
C    0.0000000    0.0000000    0.0000000  
C    1.0521666   -0.0011982   -0.8862343  
C    0.4917215   -0.0011996   -2.1979132  
C   -0.9187429    0.0003215   -2.0478682  
N   -1.1833171   -0.0009323   -0.7007913  
C   -1.7951703    0.0010483   -3.1372089  
C   -1.2375841    0.0005313   -4.4010422  
O   -2.0474218    0.0015510   -5.4997578  
C    0.1673576   -0.0013585   -4.5711963  
O    0.5673520   -0.0020735   -5.8915554  
C    1.0325768   -0.0023493   -3.4969892  
H    2.0953056   -0.0030808   -0.6200564  
H   -2.0989778    0.0102529   -0.2891822  
H   -1.4634888    0.0006601   -6.2693595  
H    1.5290707   -0.0033271   -5.9180047  
H    2.1042146   -0.0039770   -3.6584456  
C    3.3003543   -0.0005276    2.9438989  
C    2.5232812   -0.0003497    4.0790748  
C    1.1623199    0.0001319    3.6520102  
C    1.1711883   -0.0000583    2.2336141  
N    2.4852299    0.0014920    1.8362361  
C    0.0000000    0.0000000    1.4700000  
C   -1.2020384   -0.0000520    2.1506477  
O   -2.3759250   -0.0003494    1.4542253  
C   -1.2314658    0.0005113    3.5655508  
O   -2.5054393    0.0008037    4.0950179  
C   -0.0764518    0.0007272    4.3195194  
H    2.8919952    0.0005619    5.0905303  
H    2.8036267   -0.0088181    0.8841339  
H   -3.0835639   -0.0000348    2.1118817  
H   -2.4360050    0.0011527    5.0545920  
H   -0.1304098    0.0013421    5.4019087  
H    4.3715549   -0.0004895    2.8367138  
