62

C    4.4916533   -1.2089106   -8.9705000  
C    4.7601825   -0.8192755  -10.2622224  
C    4.5115907    0.5834436  -10.3342024  
C    4.0904660    0.9982097   -9.0448035  
N    4.0876111   -0.1150127   -8.2414701  
C    3.7590028    2.3235363   -8.7474301  
C    3.8546921    3.2470365   -9.7702540  
O    3.5433226    4.5549152   -9.5346383  
C    4.2725943    2.8525112  -11.0635157  
O    4.3165689    3.8884537  -11.9735887  
C    4.5994877    1.5451700  -11.3576675  
H    5.0931044   -1.4666542  -11.0553534  
H    3.4372245    2.6460373   -7.7667910  
H    3.6757940    5.0218773  -10.3699002  
H    4.6079683    3.5371224  -12.8204986  
H    4.9162077    1.2727985  -12.3576580  
H    4.5549944   -2.1808305   -8.5118951  
C    5.6440042   -2.1665155   -4.6036936  
C    5.4988194   -1.7703775   -5.8896074  
C    4.3672735   -0.8561083   -5.8749503  
C    3.9392118   -0.8155205   -4.4601361  
N    4.6839520   -1.5816220   -3.7101753  
C    2.8310662   -0.0116220   -4.0232752  
C    2.1803848    0.7188360   -4.9572879  
O    1.1296279    1.5131868   -4.6909083  
C    2.5886429    0.6993188   -6.3929428  
O    1.9508848    1.3890590   -7.1883946  
C    3.7285778   -0.1333906   -6.8161076  
H    6.0870100   -2.0624411   -6.7427232  
H    0.8853388    1.8982282   -5.5518491  
H    6.3749158   -2.8471855   -4.1969619  
C    3.3041270    0.0001177   -1.5420434  
C    2.5845372   -0.0004781   -0.3695856  
C    1.2040006   -0.0000008   -0.7283592  
C    1.1422371    0.0006037   -2.1454375  
N    2.4348636    0.0026109   -2.6077467  
C   -0.0655183    0.0008798   -2.8497920  
C   -1.2321770    0.0002326   -2.1101400  
O   -2.4392818    0.0001147   -2.7472520  
C   -1.1911210   -0.0000007   -0.6955263  
O   -2.4371527   -0.0002320   -0.1032859  
C    0.0000000    0.0000000    0.0000000  
H    3.0031533   -0.0000660    0.6222577  
H   -0.1193553    0.0014844   -3.9297472  
H   -3.1132989   -0.0000648   -2.0551784  
H   -2.3200282   -0.0004069    0.8516410  
H    4.3686624    0.0004070   -1.7024294  
C    2.4951002    2.0940188    2.9809380  
C    1.9440701    1.6314916    1.8291961  
C    0.8759964    0.7350050    2.2038498  
C    0.8497377    0.7130254    3.6788474  
N    1.8560616    1.5571714    4.0882609  
C   -0.0205033   -0.0168748    4.4215661  
C   -0.9962600   -0.8356168    3.7214979  
O   -1.8224391   -1.5286685    4.3006425  
C   -0.9864710   -0.8277881    2.1595606  
O   -1.8030528   -1.5133726    1.5592035  
C    0.0000000    0.0000000    1.4700000  
H    2.2509283    1.8888011    0.8310761  
H   -0.0229599   -0.0187323    5.5027230  
H    3.3143982    2.7817323    3.1139444  
H    2.0889452    1.7545833    5.0442112  
