62

C    5.9974492    0.0059101   -4.3967323  
C    6.1799199    0.0036067   -3.0332198  
C    7.5873657    0.0024780   -2.8014996  
C    8.2183285    0.0044822   -4.0718568  
N    7.2241221    0.0045879   -5.0185196  
C    9.6079329    0.0043714   -4.2260904  
C   10.3745495    0.0025048   -3.0769723  
O   11.7362978    0.0026618   -3.1699998  
C    9.7635145    0.0001140   -1.8004735  
O   10.6624515   -0.0019675   -0.7539304  
C    8.3926958   -0.0000514   -1.6475666  
H    5.3951414    0.0017297   -2.2962577  
H    7.3687056    0.0163890   -6.0119668  
H   10.0949762    0.0057483   -5.1914865  
H   12.0718634    0.0008905   -2.2640982  
H   10.1682436   -0.0034777    0.0715149  
H    7.9533350   -0.0020918   -0.6568921  
C    1.7334697    0.0049246   -3.2500361  
C    3.0913864    0.0046111   -3.2383151  
C    3.5242791    0.0065421   -4.6157893  
C    2.2984626    0.0080463   -5.4368631  
N    1.2476587    0.0065694   -4.5487759  
C    2.2819768    0.0104504   -6.7938549  
C    3.5566104    0.0114096   -7.4923118  
O    3.6472562    0.0134885   -8.7130006  
C    4.8674249    0.0095957   -6.6428603  
O    5.9464915    0.0100756   -7.2198154  
C    4.7574565    0.0073245   -5.1862362  
H    3.7182532    0.0030069   -2.3644448  
H    1.3716378    0.0116508   -7.3771145  
H    0.2773177    0.0086322   -4.8046688  
C    1.1319247    0.0015655   -0.8009267  
C    0.7969916    0.0034943   -2.1169401  
C   -0.6453337    0.0035710   -2.1842668  
C   -1.1266832    0.0015433   -0.7896026  
N    0.0000000    0.0000000    0.0000000  
C   -2.4346130    0.0013964   -0.4276294  
C   -3.4350109    0.0031408   -1.4820183  
O   -4.6384610    0.0030973   -1.2583915  
C   -2.9478956    0.0050505   -2.9661075  
O   -3.7809378    0.0062218   -3.8623775  
C   -1.5113821    0.0053090   -3.2312122  
H   -2.7664565    0.0000232    0.6013446  
H   -1.1823527    0.0068407   -4.2614846  
H    2.1104317    0.0009391   -0.3488056  
C    2.5311839    2.1237619    3.0120429  
C    1.9795631    1.6616747    1.8395852  
C    0.9223175    0.7739173    2.1983588  
C    0.8753926    0.7337535    3.6154372  
N    1.8668922    1.5631002    4.0777464  
C   -0.0496243   -0.0427881    4.3197917  
C   -0.9437528   -0.7922060    3.5801400  
O   -1.8685244   -1.5680278    4.2172520  
C   -0.9124520   -0.7656372    2.1655264  
O   -1.8671164   -1.5663939    1.5732860  
C    0.0000000    0.0000000    1.4700000  
H    2.3005065    1.9304404    0.8477417  
H    2.0679347    1.7444845    5.0445261  
H   -0.0904770   -0.0778569    5.3997470  
H   -2.3849669   -2.0011402    3.5251786  
H   -1.7775064   -1.4909735    0.6183591  
H    3.3468514    2.8078103    3.1724291  
