60

C    4.7662180   -1.1161883   -4.9287118  
C    5.5856635   -2.0008009   -4.2665664  
C    6.6959491   -2.2611169   -5.1233638  
C    6.4976837   -1.5007207   -6.3042171  
N    5.3157842   -0.8187335   -6.1538022  
C    7.4000588   -1.5130469   -7.3720914  
C    8.5231911   -2.3072251   -7.2454710  
O    9.4370938   -2.3561091   -8.2580945  
C    8.7384454   -3.0734127   -6.0752407  
O    9.9028090   -3.8129490   -6.1014108  
C    7.8485176   -3.0619466   -5.0214745  
H    5.4048103   -2.4091842   -3.2870220  
H    4.9196078   -0.1885086   -6.8274798  
H    7.2546433   -0.9359029   -8.2748435  
H   10.1326666   -2.9610582   -7.9691649  
H    9.9720949   -4.3004996   -5.2749127  
H    8.0400819   -3.6594883   -4.1378881  
C    2.8494824   -0.7287742   -3.3362176  
C    3.4912460   -0.5137444   -4.5134927  
C    2.6833704    0.4134347   -5.2701378  
C    1.5099405    0.7231880   -4.4311473  
N    1.6707636   -0.0012343   -3.2725974  
C    0.5077425    1.5643732   -4.7913022  
C    0.5901975    2.2074118   -6.0921628  
O   -0.2621832    2.9813251   -6.5078617  
C    1.8239389    1.8937415   -6.9973136  
O    1.9040990    2.4289667   -8.0947520  
C    2.8403310    0.9701104   -6.4996146  
H   -0.3442052    1.7780272   -4.1608686  
H    3.6915246    0.7583851   -7.1323594  
H    3.1383490   -1.3576897   -2.5098333  
C    1.0965514    0.0001358   -0.8010306  
C    0.0000000    0.0000000    0.0000000  
C   -1.1546565    0.0001470   -0.8669508  
C   -0.6372019    0.0003520   -2.2486278  
N    0.7342867    0.0007338   -2.1395012  
C   -1.4147744    0.0001354   -3.3608712  
C   -2.8576052   -0.0001047   -3.1854454  
O   -3.6427785   -0.0002490   -4.1244896  
C   -3.4275841   -0.0000727   -1.7311660  
O   -4.6406832    0.0000333   -1.5710049  
C   -2.4891868   -0.0001090   -0.6116739  
H   -1.0150456    0.0001617   -4.3654239  
H   -2.8919122   -0.0002919    0.3920871  
H    2.1388270    0.0000663   -0.5261650  
C    2.5128556    2.1077716    2.9199648  
C    1.9592212    1.6432552    4.0696553  
C    0.8915788    0.7479214    3.6910360  
C    0.8684491    0.7287414    2.2159470  
N    1.8754542    1.5738793    1.8102719  
C    0.0000000    0.0000000    1.4700000  
C   -0.9772830   -0.8200135    2.1664417  
O   -1.8021297   -1.5120829    1.5842315  
C   -0.9711318   -0.8147624    3.7284083  
O   -1.7894187   -1.5009653    4.3257297  
C    0.0140216    0.0115358    4.4216297  
H    2.2638494    1.8988021    5.0689105  
H    0.0117648    0.0094386    5.5031631  
H    3.3327358    2.7953732    2.7900019  
H    2.1123206    1.7707734    0.8551938  
