60

C    4.8266812   -4.4204189   -8.6384166  
C    3.8644340   -3.5970755   -8.1011506  
C    3.9993070   -3.6691968   -6.6829804  
C    5.0696413   -4.5594600   -6.4114251  
N    5.5483805   -4.9989472   -7.6206721  
C    5.4844635   -4.8695504   -5.1127508  
C    4.8066343   -4.2697673   -4.0692057  
O    5.1706744   -4.5370765   -2.7811704  
C    3.7358729   -3.3790193   -4.3199133  
O    3.1618948   -2.8639114   -3.1759917  
C    3.3259257   -3.0728570   -5.6008252  
H    3.1521257   -3.0168245   -8.6623263  
H    6.3162468   -5.6337280   -7.7448232  
H    6.2993991   -5.5473690   -4.8991052  
H    4.5777535   -4.0231722   -2.2175993  
H    2.4479975   -2.2726604   -3.4336264  
H    5.0543734   -4.6418732   -9.6670435  
C    2.2088371   -2.1426203   -5.8191641  
C    1.6816905   -1.7351237   -6.9971466  
C    0.6077895   -0.8240074   -6.6323121  
C    0.6276204   -0.7974852   -5.1539729  
N    1.5640842   -1.5684497   -4.6716465  
C   -0.2963293   -0.0005341   -4.3948471  
C   -1.1988050    0.7367192   -5.0813820  
O   -2.1196091    1.5258333   -4.5021932  
C   -1.2438091    0.7314050   -6.5733964  
O   -2.0920757    1.4267093   -7.1321594  
C   -0.2854243   -0.0943970   -7.3293552  
H    1.9842845   -2.0178252   -7.9909238  
H   -2.6127110    1.9180870   -5.2452546  
H   -0.3507734   -0.0705869   -8.4088885  
C    3.1301146   -0.0010313   -1.7028256  
C    2.5367765   -0.0002766   -0.4864669  
C    1.1089901    0.0001027   -0.7656184  
C    1.0177865   -0.0004150   -2.2415133  
N    2.1993571   -0.0011612   -2.7963824  
C   -0.2459219   -0.0002879   -2.9257116  
C   -1.3675326   -0.0000606   -2.1698520  
O   -2.6129318    0.0000865   -2.6748483  
C   -1.3083588    0.0000910   -0.6783229  
O   -2.3693264    0.0004206   -0.0541685  
C    0.0000000    0.0000000    0.0000000  
H    3.0096016   -0.0001007    0.4807518  
H   -3.1967444    0.0002093   -1.8949026  
H    4.1849275   -0.0015114   -1.9271979  
C    2.3971438    2.0127888    3.1728260  
C    1.9431056    1.6308205    1.9564670  
C    0.8496017    0.7127664    2.2356185  
C    0.7794028    0.6545384    3.7115134  
N    1.6840587    1.4146091    4.2663826  
C   -0.1885723   -0.1578550    4.3957118  
C   -1.0476298   -0.8789867    3.6398520  
O   -2.0015663   -1.6796266    4.1448486  
C   -1.0022026   -0.8410666    2.1483229  
O   -1.8147390   -1.5232959    1.5241687  
C    0.0000000    0.0000000    1.4700000  
H    2.3054237    1.9346118    0.9892483  
H   -0.2170646   -0.1815267    5.4753125  
H   -2.4487139   -2.0549881    3.3649027  
H    3.2048689    2.6911772    3.3971983  
