62

C    6.0428477   -2.3876870   -2.5187548  
C    5.9112267   -1.0842300   -2.9384486  
C    7.1768131   -0.4550512   -2.7460302  
C    8.0489989   -1.4323081   -2.2017996  
N    7.3280907   -2.5936816   -2.0748345  
C    9.3835816   -1.1621747   -1.8844594  
C    9.8462086    0.1177288   -2.1211065  
O   11.1412501    0.4356002   -1.8298373  
C    8.9912087    1.1066143   -2.6632288  
O    9.6003110    2.3317989   -2.8400324  
C    7.6744238    0.8409016   -2.9762794  
H    7.6864951   -3.4639607   -1.7253464  
H   10.0534155   -1.9025578   -1.4692987  
H   11.2543245    1.3651158   -2.0674912  
H    8.9547073    2.9419186   -3.2095643  
H    7.0434381    1.6187317   -3.3901815  
H    5.3212285   -3.1863474   -2.4996076  
C    3.4023864   -0.7104236   -3.0044223  
C    2.4861704   -0.0045255   -3.7159919  
C    3.2127702    0.7364520   -4.7199046  
C    4.6376135    0.4019566   -4.5335600  
N    4.6849732   -0.4791134   -3.4779264  
C    5.6494131    0.8999190   -5.2885433  
C    5.3126161    1.8273768   -6.3557478  
O    6.1522959    2.3305378   -7.0906404  
C    3.8100585    2.1959219   -6.5709210  
O    3.5143913    2.9759619   -7.4661196  
C    2.8092696    1.5944060   -5.6931667  
H    6.6879996    0.6415170   -5.1353248  
H    1.7711116    1.8546130   -5.8488735  
H    3.2485511   -1.3799907   -2.1738176  
C    0.0000000    0.0000000    0.0000000  
C    1.0521669   -0.0011848   -0.8862341  
C    0.4917221   -0.0011931   -2.1979130  
C   -0.9187427    0.0003100   -2.0478683  
N   -1.1833170   -0.0009472   -0.7007915  
C   -1.7951698    0.0010259   -3.1372090  
C   -1.2375835    0.0005161   -4.4010425  
O   -2.0474208    0.0015256   -5.4997580  
C    0.1673584   -0.0013557   -4.5711962  
O    0.5673529   -0.0020659   -5.8915551  
C    1.0325773   -0.0023359   -3.4969890  
H    2.0953059   -0.0030542   -0.6200560  
H   -2.0989777    0.0102265   -0.2891825  
H   -2.8710930    0.0020274   -3.0295514  
H   -1.4634881    0.0006427   -6.2693593  
H    1.5290715   -0.0033076   -5.9180042  
C    0.0000000    0.0000000    1.4700000  
C    1.0662921    0.0000102    2.3034270  
C    0.4961870   -0.0000064    3.6418889  
C   -0.9663858    0.0000850    3.4240247  
N   -1.2632773    0.0000084    2.1528658  
C   -1.8985362    0.0000517    4.5177257  
C   -1.3925775   -0.0004564    5.7720543  
O   -2.1456383   -0.0005410    6.8851312  
C    0.0786232   -0.0009323    6.0245000  
O    0.4683759   -0.0012588    7.1921102  
C    1.0143166   -0.0008442    4.8859032  
H    2.1107198   -0.0000632    2.0421868  
H   -2.9622183    0.0003270    4.3293377  
H   -1.5042274   -0.0009692    7.6184419  
H    2.0724152   -0.0013148    5.1109744  
