62

C   -8.3996182    0.9900175   -2.2057147  
C   -9.7099746    0.5746197   -2.1520676  
C   -9.7130941   -0.8279314   -2.4117613  
C   -8.3644646   -1.2160493   -2.6178869  
N   -7.5932862   -0.0878056   -2.4876274  
C   -7.9912462   -2.5338036   -2.8989927  
C   -8.9977683   -3.4769917   -2.9730701  
O   -8.6890849   -4.7785737   -3.2443836  
C  -10.3492876   -3.1091676   -2.7707924  
O  -11.2339671   -4.1623777   -2.8777315  
C  -10.7182332   -1.8093109   -2.4937050  
H  -10.5592348    1.2051560   -1.9516297  
H   -6.9651776   -2.8360287   -3.0572489  
H   -9.5254924   -5.2619449   -3.2507233  
H  -12.1237325   -3.8286398   -2.7275954  
H  -11.7615886   -1.5575467   -2.3436895  
H   -7.9765222    1.9701181   -2.0666047  
C   -4.5189885    2.1247805   -0.2046391  
C   -3.4217513    1.6624927   -0.8937164  
C   -3.9056841    0.7751586   -1.9002190  
C   -5.3180961    0.7354481   -1.7759555  
N   -5.6572031    1.5646455   -0.7357366  
C   -6.1291073   -0.0406021   -2.6094991  
C   -5.5029133   -0.7899852   -3.5864758  
O   -6.2471435   -1.5653366   -4.4278830  
C   -4.0948368   -0.7638644   -3.7259557  
O   -3.6222951   -1.5645230   -4.7452666  
C   -3.2941076    0.0012878   -2.9038237  
H   -2.3983553    1.9308560   -0.6946317  
H   -6.5926282    1.7462702   -0.4195504  
H   -5.6225343   -1.9985111   -5.0241120  
H   -2.6635042   -1.4894251   -4.7714260  
H   -4.5796252    2.8086378    0.6245903  
C    0.0000000    0.0000000    0.0000000  
C    1.0541688   -0.0001723   -0.8560392  
C    0.5103136   -0.0000455   -2.1935956  
C   -0.9576373    0.0002461   -2.0455730  
N   -1.2018460   -0.0001389   -0.6915968  
C   -1.8348314    0.0008319   -3.0810607  
C   -1.2972851    0.0009739   -4.4314603  
O   -2.0050676    0.0014268   -5.4301316  
C    0.2542619    0.0004184   -4.6117572  
O    0.7184666    0.0002257   -5.7439122  
C    1.0974551    0.0000873   -3.4189129  
H    2.0940752   -0.0005484   -0.5817983  
H    2.1707276   -0.0000912   -3.5523673  
H   -2.1128194    0.0014915   -0.2706789  
C    0.0000000    0.0000000    1.4700000  
C    1.0662921    0.0000102    2.3034270  
C    0.4961870   -0.0000064    3.6418889  
C   -0.9663858    0.0000850    3.4240247  
N   -1.2632773    0.0000084    2.1528658  
C   -1.8985362    0.0000517    4.5177257  
C   -1.3925775   -0.0004564    5.7720543  
O   -2.1456383   -0.0005410    6.8851312  
C    0.0786232   -0.0009323    6.0245000  
O    0.4683759   -0.0012588    7.1921102  
C    1.0143166   -0.0008442    4.8859032  
H    2.1107198   -0.0000632    2.0421868  
H   -2.9622183    0.0003270    4.3293377  
H   -1.5042274   -0.0009692    7.6184419  
H    2.0724152   -0.0013148    5.1109744  
