64

C    4.9941332   -0.9888113   -7.2176431  
C    4.3323457    0.0879876   -6.6744965  
C    4.6814464    1.2288177   -7.4563118  
C    5.5663892    0.7829127   -8.4711859  
N    5.7364711   -0.5680355   -8.2961757  
C    6.1138533    1.6424050   -9.4284459  
C    5.7613141    2.9762820   -9.3601316  
O    6.2667104    3.8589635  -10.2703311  
C    4.8800830    3.4403970   -8.3547250  
O    4.6265455    4.7949535   -8.4198329  
C    4.3398305    2.5931002   -7.4098742  
H    6.3037196   -1.1612658   -8.8743514  
H    6.7889988    1.3088213  -10.2043975  
H    5.8989990    4.7235487  -10.0455100  
H    4.0234862    5.0261254   -7.7067540  
H    3.6677352    2.9775787   -6.6516253  
H    4.9964891   -2.0234422   -6.9201668  
C    4.5568119   -2.1244626   -2.7957930  
C    4.8215153   -1.6265710   -4.0505851  
C    3.7464017   -0.7514632   -4.3866172  
C    2.8481251   -0.7551197   -3.2888864  
N    3.3693346   -1.6005173   -2.3411203  
C    1.6707636   -0.0012343   -3.2725974  
C    1.3953391    0.7706342   -4.3845946  
O    0.2593678    1.5264367   -4.4212710  
C    2.2790781    0.7872261   -5.4898315  
O    1.8647381    1.6052772   -6.5205876  
C    3.4406176    0.0435413   -5.5067010  
H    5.6829186   -1.8656541   -4.6504331  
H    2.9557219   -1.7960290   -1.4474308  
H    0.2607526    1.9802267   -5.2741120  
H    2.5168286    1.5590890   -7.2264548  
H    5.1203940   -2.8129781   -2.1897558  
C    1.0965514    0.0001358   -0.8010306  
C    0.0000000    0.0000000    0.0000000  
C   -1.1546565    0.0001470   -0.8669508  
C   -0.6372019    0.0003520   -2.2486278  
N    0.7342867    0.0007338   -2.1395012  
C   -1.4147744    0.0001354   -3.3608712  
C   -2.8576052   -0.0001047   -3.1854454  
O   -3.6427785   -0.0002490   -4.1244896  
C   -3.4275841   -0.0000727   -1.7311660  
O   -4.6406832    0.0000333   -1.5710049  
C   -2.4891868   -0.0001090   -0.6116739  
H   -1.0150456    0.0001617   -4.3654239  
H   -2.8919122   -0.0002919    0.3920871  
H    2.1388270    0.0000663   -0.5261650  
C    0.8576279    0.7185626    2.2703808  
C    0.0000000    0.0000000    1.4700000  
C   -0.8668858   -0.7285659    2.3373528  
C   -0.4876752   -0.4117774    3.6669281  
N    0.5635254    0.4678311    3.5902241  
C   -1.1297612   -0.9515493    4.7854808  
C   -2.1738724   -1.8268314    4.5576857  
O   -2.8357962   -2.3827064    5.6140350  
C   -2.5667212   -2.1555554    3.2384331  
O   -3.6226318   -3.0413663    3.1773122  
C   -1.9335634   -1.6236449    2.1344818  
H    1.0363952    0.8769718    4.3757045  
H   -0.8454472   -0.7142436    5.8013813  
H   -3.5178062   -2.9546422    5.2385129  
H   -3.8247440   -3.2102924    2.2519915  
H   -2.2566033   -1.8942483    1.1360343  
H    1.6567807    1.3889844    2.0042067  
