62

C   -4.2053257    0.7122630   -6.0590400  
C   -5.5569846    0.4619671   -6.1123205  
C   -5.7700499   -0.4460838   -7.1915083  
C   -4.5010197   -0.7167645   -7.7644133  
N   -3.5733089    0.0040249   -7.0541789  
C   -4.3310326   -1.5755224   -8.8545642  
C   -5.4627039   -2.1721297   -9.3756745  
O   -5.3537842   -3.0197275  -10.4399719  
C   -6.7376353   -1.9143087   -8.8180940  
O   -7.7658942   -2.5836840   -9.4489372  
C   -6.9061095   -1.0670247   -7.7428023  
H   -6.2983512    0.8830275   -5.4549949  
H   -3.3665707   -1.7858601   -9.2958948  
H   -6.2492335   -3.3206988  -10.6420880  
H   -8.5915259   -2.3546464   -9.0113545  
H   -7.8951666   -0.8887228   -7.3372735  
H   -3.6422505    1.3410662   -5.3908248  
C   -0.1387078    0.0017019   -4.3179684  
C    0.8715321    0.0021966   -5.2254318  
C    0.2617557    0.0029742   -6.5342509  
C   -1.1970047    0.0029207   -6.3133239  
N   -1.3734972    0.0017350   -4.9488690  
C   -2.1246669    0.0039288   -7.3038527  
C   -1.6550225    0.0049220   -8.6793414  
O   -2.4116501    0.0058069   -9.6415332  
C   -0.1143765    0.0047446   -8.9366640  
O    0.2928835    0.0052679  -10.0905275  
C    0.7871616    0.0038971   -7.7872816  
H    1.9238030    0.0018530   -5.0033071  
H    1.8524583    0.0039850   -7.9740077  
H   -2.2623839    0.0029672   -4.4831157  
C    3.3041272    0.0001178   -1.5420428  
C    2.5845372   -0.0004779   -0.3695851  
C    1.2040007   -0.0000007   -0.7283589  
C    1.1422375    0.0006038   -2.1454371  
N    2.4348641    0.0026111   -2.6077464  
C   -0.0655179    0.0008799   -2.8497918  
C   -1.2321766    0.0002325   -2.1101402  
O   -2.4392816    0.0001148   -2.7472523  
C   -1.1911209   -0.0000007   -0.6955266  
O   -2.4371527   -0.0002320   -0.1032863  
C    0.0000000    0.0000000    0.0000000  
H    3.0031533   -0.0000660    0.6222584  
H    2.7054632   -0.0071097   -3.5745261  
H   -3.1132986   -0.0000648   -2.0551788  
H   -2.3200284   -0.0004071    0.8516409  
H    4.3686626    0.0004072   -1.7024289  
C    0.8175213    0.6860729    2.3021913  
C    0.0000000    0.0000000    1.4700000  
C   -0.8887526   -0.7456559    2.3478473  
C   -0.4549825   -0.3816753    3.7138435  
N    0.5448156    0.4573574    3.6934124  
C   -1.0945674   -0.9182058    4.8835240  
C   -2.1210866   -1.7789155    4.6970523  
O   -2.8083856   -2.3554314    5.6976972  
C   -2.5824069   -2.1655116    3.3310774  
O   -3.5227682   -2.9541547    3.2362962  
C   -1.9100805   -1.6015804    2.1470656  
H   -0.7567140   -0.6349833    5.8697035  
H   -3.4728268   -2.9124471    5.2533954  
H   -2.2742832   -1.9066565    1.1752040  
H    1.6189533    1.3585343    2.0405121  
