62

C    4.7794603   -0.9016539   -8.9022856  
C    5.1448752   -0.5007313  -10.1664850  
C    4.8991672    0.9021065  -10.2456888  
C    4.3798659    1.3053092   -8.9888353  
N    4.3183491    0.1853853   -8.1972533  
C    4.0235202    2.6275152   -8.7067406  
C    4.1948055    3.5597266   -9.7116389  
O    3.8632498    4.8650388   -9.4897275  
C    4.7111402    3.1767909  -10.9724221  
O    4.8219884    4.2204050  -11.8679265  
C    5.0626411    1.8725345  -11.2515070  
H    5.5389048   -1.1408541  -10.9371846  
H    3.6270622    2.9412192   -7.7509086  
H    4.0579789    5.3392202  -10.3085664  
H    5.1780172    3.8766973  -12.6929801  
H    5.4554136    1.6091119  -12.2266061  
H    4.8099227   -1.8772736   -8.4481971  
C    5.8620739   -2.0144357   -4.7672095  
C    5.0189108   -1.6315680   -3.7802610  
C    4.0871660   -0.7140653   -4.4178658  
C    4.5266949   -0.6571074   -5.8285941  
N    5.5666609   -1.4173872   -6.0393889  
C    3.8516100    0.1544280   -6.8036618  
C    2.7856462    0.8759522   -6.3883803  
O    2.0623755    1.6758897   -7.1902654  
C    2.3174897    0.8393084   -4.9714657  
O    1.3403408    1.5218322   -4.6639565  
C    3.0267438   -0.0008951   -3.9901699  
H    5.0280463   -1.9344358   -2.7471765  
H    1.3751539    2.0517831   -6.6109703  
H    6.6977806   -2.6927816   -4.7007668  
C    3.3003547    0.0005277   -1.4738986  
C    2.5232816    0.0003497   -2.6090746  
C    1.1623203   -0.0001319   -2.1820102  
C    1.1711884    0.0000584   -0.7636141  
N    2.4852301   -0.0014919   -0.3662359  
C    0.0000000    0.0000000    0.0000000  
C   -1.2020383    0.0000520   -0.6806479  
O   -2.3759248    0.0003493    0.0157745  
C   -1.2314655   -0.0005115   -2.0955511  
O   -2.5054388   -0.0008040   -2.6250184  
C   -0.0764513   -0.0007274   -2.8495195  
H    2.8036266    0.0088183    0.5858662  
H   -3.0835639    0.0000346   -0.6418822  
H   -2.4360043   -0.0011529   -3.5845924  
H   -0.1304091   -0.0013423   -3.9319089  
H    4.3715553    0.0004897   -1.3667133  
C    0.8681109    0.7263879    2.2709268  
C    0.6127770    0.5096195    3.5869401  
C   -0.4920590   -0.4175482    3.6542670  
C   -0.8620974   -0.7254003    2.2596025  
N    0.0000000    0.0000000    1.4700000  
C   -1.8641242   -1.5660088    1.8976294  
C   -2.6293522   -2.2103885    2.9520183  
O   -3.5512764   -2.9839180    2.7283916  
C   -2.2549728   -1.8987399    4.4361073  
O   -2.8923672   -2.4351063    5.3323774  
C   -1.1543735   -0.9755647    4.7012123  
H    1.1382914    0.9492124    4.4159191  
H   -2.1192137   -1.7782617    0.8686553  
H   -0.9013378   -0.7652422    5.7314848  
H    1.6172880    1.3558399    1.8188057  
