62

C    7.0171138   -0.7152673   -5.6652242  
C    8.3695810   -0.4659384   -5.6989238  
C    8.5991493    0.4404482   -6.7761238  
C    7.3388864    0.7111572   -7.3680532  
N    6.4003169   -0.0080173   -6.6705639  
C    7.1855716    1.5684877   -8.4617934  
C    8.3252082    2.1636133   -8.9670009  
O    8.2325650    3.0097799  -10.0339738  
C    9.5916061    1.9057382   -8.3903251  
O   10.6295074    2.5735444   -9.0068781  
C    9.7436345    1.0598616   -7.3114804  
H    9.1008912   -0.8865597   -5.0301508  
H    6.2278638    1.7788393   -8.9175894  
H    9.1311018    3.3098751  -10.2232892  
H   11.4484425    2.3445799   -8.5568514  
H   10.7264838    0.8814794   -6.8911654  
H    6.4438218   -1.3427555   -5.0045022  
C    2.8699641   -0.0020527   -4.0185824  
C    4.1345929   -0.0036612   -4.5133415  
C    4.0234321   -0.0055085   -5.9529508  
C    2.5800295   -0.0048103   -6.2585307  
N    1.9354846   -0.0030990   -5.0430271  
C    2.0594335   -0.0056967   -7.5117997  
C    2.9823235   -0.0076817   -8.6346561  
O    2.6119087   -0.0086656   -9.8013149  
C    4.5151780   -0.0087033   -8.3343880  
O    5.3018074   -0.0106812   -9.2716564  
C    4.9555130   -0.0073181   -6.9415653  
H    5.0417776   -0.0037471   -3.9357352  
H    0.9973748   -0.0050302   -7.7141396  
H    0.9396388   -0.0007141   -4.9192032  
C    3.2573673   -0.0002921   -1.5109381  
C    2.5379469   -0.0001710   -0.3591962  
C    1.1435042    0.0000332   -0.7338498  
C    1.1092607   -0.0000083   -2.2088474  
N    2.4227562    0.0001908   -2.6182610  
C   -0.0265532   -0.0002523   -2.9515663  
C   -1.3003033   -0.0002639   -2.2514979  
O   -2.3786784   -0.0004132   -2.8306425  
C   -1.2877726    0.0000312   -0.6895609  
O   -2.3539956    0.0003308   -0.0892035  
C    0.0000000    0.0000000    0.0000000  
H    2.9384091   -0.0000368    0.6389240  
H   -0.0296292   -0.0004086   -4.0327231  
H    4.3270395   -0.0004765   -1.6439444  
C    2.5285572    2.1210227    2.9438989  
C    1.9331703    1.6216660    4.0790748  
C    0.8903039    0.7472258    3.6520102  
C    0.8972198    0.7527806    2.2336141  
N    1.9028376    1.5986179    1.8362361  
C    0.0000000    0.0000000    1.4700000  
C   -0.9207814   -0.7726952    2.1506477  
O   -1.8198395   -1.5274828    1.4542253  
C   -0.9436862   -0.7911793    3.5655508  
O   -1.9197945   -1.6098497    4.0950179  
C   -0.0590329   -0.0485852    4.3195194  
H    2.2150357    1.8593692    5.0905303  
H    2.1533708    1.7953814    0.8841339  
H   -2.3621246   -1.9821033    2.1118817  
H   -1.8668290   -1.5649508    5.0545920  
H   -0.1007624   -0.0827977    5.4019087  
H    3.3491200    2.8096064    2.8367138  
