60

C    5.7620946   -3.0164447   -7.6488786  
C    6.3450311   -2.2252984   -8.6115515  
C    5.8772246   -0.8950551   -8.3965856  
C    5.0044655   -0.9362524   -7.2792143  
N    4.9555102   -2.2395355   -6.8506413  
C    4.3580266    0.1994875   -6.7822218  
C    4.5972244    1.3987140   -7.4247309  
O    3.9920706    2.5387116   -6.9806512  
C    5.4644581    1.4600107   -8.5414075  
O    5.5994142    2.7265466   -9.0715169  
C    6.1023124    0.3399290   -9.0324111  
H    7.0230683   -2.5653476   -9.3755051  
H    4.4244211   -2.5730860   -6.0666327  
H    4.2909975    3.2505228   -7.5613674  
H    6.2010025    2.6801012   -9.8208755  
H    6.7608777    0.4177533   -9.8895647  
H    5.8567326   -4.0736955   -7.4693756  
C    4.6658418   -2.0084115   -3.0381695  
C    3.5410043   -1.6272096   -2.3893217  
C    2.8760350   -0.7078756   -3.2998932  
C    3.7621632   -0.6481449   -4.4821757  
N    4.8129013   -1.4085087   -4.3345750  
C    3.4519830    0.1658076   -5.6251350  
C    2.3083468    0.8869947   -5.5888132  
O    1.8948241    1.6890060   -6.5847135  
C    1.3931660    0.8475795   -4.4102332  
O    0.3692891    1.5299498   -4.4458469  
C    1.7334695    0.0049281   -3.2500363  
H    3.2040804   -1.9322774   -1.4133648  
H    1.0533181    2.0640200   -6.2678775  
H    5.4313254   -2.6873260   -2.6974587  
C    1.1319246    0.0015678   -0.8009268  
C    0.7969914    0.0034958   -2.1169401  
C   -0.6453340    0.0035696   -2.1842669  
C   -1.1266832    0.0015410   -0.7896025  
N    0.0000000    0.0000000    0.0000000  
C   -2.4346129    0.0013913   -0.4276292  
C   -3.4350111    0.0031335   -1.4820181  
O   -4.6384614    0.0030875   -1.2583914  
C   -2.9478961    0.0050442   -2.9661074  
O   -3.7809382    0.0062135   -3.8623773  
C   -1.5113825    0.0053055   -3.2312122  
H   -2.7664565    0.0000174    0.6013448  
H   -1.1823533    0.0068381   -4.2614848  
H    2.1104316    0.0009435   -0.3488059  
C    0.8175213    0.6860729    2.3021913  
C    0.0000000    0.0000000    1.4700000  
C   -0.8887526   -0.7456559    2.3478473  
C   -0.4549825   -0.3816753    3.7138435  
N    0.5448156    0.4573574    3.6934124  
C   -1.0945674   -0.9182058    4.8835240  
C   -2.1210866   -1.7789155    4.6970523  
O   -2.8083856   -2.3554314    5.6976972  
C   -2.5824069   -2.1655116    3.3310774  
O   -3.5227682   -2.9541547    3.2362962  
C   -1.9100805   -1.6015804    2.1470656  
H   -0.7567140   -0.6349833    5.8697035  
H   -3.4728268   -2.9124471    5.2533954  
H   -2.2742832   -1.9066565    1.1752040  
H    1.6189533    1.3585343    2.0405121  
