62

C    3.3003538    0.0005281   -1.4738992  
C    2.5232800    0.0003503   -2.6090749  
C    1.1623189   -0.0001314   -2.1820098  
C    1.1711878    0.0000586   -0.7636137  
N    2.4852296   -0.0014917   -0.3662360  
C    0.0000000    0.0000000    0.0000000  
C   -1.2020393    0.0000523   -0.6806466  
O   -2.3759247    0.0003494    0.0157756  
C   -1.2314669   -0.0005109   -2.0955498  
O   -2.5054399   -0.0008032   -2.6250165  
C   -0.0764531   -0.0007268   -2.8495186  
H    2.8036266    0.0088183    0.5858656  
H   -3.0835642    0.0000351   -0.6418796  
H   -2.4360061   -0.0011523   -3.5845904  
H   -0.1304110   -0.0013413   -3.9319077  
H    4.3715543    0.0004899   -1.3667147  
C    5.8912976   -2.0917703   -4.5522480  
C    4.9784970   -1.6292445   -3.6595324  
C    4.1021045   -0.7349680   -4.3785882  
C    4.5825769   -0.7142838   -5.7734030  
N    5.6694184   -1.5569930   -5.8122174  
C    4.0183399    0.0134452   -6.7702737  
C    2.8607053    0.8310507   -6.4478795  
O    2.2818930    1.5221480   -7.2759265  
C    2.3349637    0.8245617   -4.9770429  
O    1.3612100    1.5092075   -4.6936264  
C    3.0267417   -0.0008944   -3.9901705  
H    4.9253031   -1.8851652   -2.6163220  
H    4.3863155    0.0143831   -7.7868872  
H    6.7075424   -2.7781445   -4.3956452  
C    7.5775181   -5.1901504   -7.5511146  
C    6.8814276   -4.3801369   -6.7199010  
C    6.9511192   -3.0632113   -7.3341895  
C    7.7491189   -3.2666011   -8.5623643  
N    8.1190428   -4.5114218   -8.6949037  
C    8.0486679   -2.1872186   -9.4625254  
C    7.5723290   -0.9604926   -9.1501495  
O    7.7753684    0.1366251   -9.8992479  
C    6.7636550   -0.7233166   -7.9180961  
O    6.3626330    0.4191995   -7.6966046  
C    6.4699203   -1.8467524   -7.0106067  
H    6.3822346   -4.6437591   -5.8031761  
H    8.6342790   -2.3644680  -10.3527801  
H    7.3169531    0.8513399   -9.4215536  
H    7.7603530   -6.2479792   -7.4484362  
C    2.5311839    2.1237619    3.0120429  
C    1.9795631    1.6616747    1.8395852  
C    0.9223175    0.7739173    2.1983588  
C    0.8753926    0.7337535    3.6154372  
N    1.8668922    1.5631002    4.0777464  
C   -0.0496243   -0.0427881    4.3197917  
C   -0.9437528   -0.7922060    3.5801400  
O   -1.8685244   -1.5680278    4.2172520  
C   -0.9124520   -0.7656372    2.1655264  
O   -1.8671164   -1.5663939    1.5732860  
C    0.0000000    0.0000000    1.4700000  
H    2.3005065    1.9304404    0.8477417  
H    2.0679347    1.7444845    5.0445261  
H   -0.0904770   -0.0778569    5.3997470  
H   -2.3849669   -2.0011402    3.5251786  
H   -1.7775064   -1.4909735    0.6183591  
H    3.3468514    2.8078103    3.1724291  
