62

C    9.7453298   -4.2833841   -5.7757071  
C    8.6366848   -3.4796668   -5.6437531  
C    8.1919533   -3.6020744   -4.2940014  
C    9.0758662   -4.5013748   -3.6444746  
N   10.0059804   -4.8976452   -4.5731698  
C    8.9388756   -4.8573489   -2.2993709  
C    7.8906622   -4.2950100   -1.5970874  
O    7.7108265   -4.6078549   -0.2807284  
C    6.9979833   -3.3959652   -2.2276906  
O    6.0057926   -2.9218071   -1.3945793  
C    7.1323633   -3.0445464   -3.5547074  
H    8.2013362   -2.8798899   -6.4246069  
H   10.7680886   -5.5275900   -4.3989880  
H    9.6091067   -5.5422917   -1.7985278  
H    6.9342674   -4.1143007    0.0135940  
H    5.4469849   -2.3218109   -1.8979106  
H   10.3699202   -4.4681803   -6.6328516  
C    6.1837013   -2.1071891   -4.1730114  
C    6.1473616   -1.6429257   -5.4486345  
C    5.0179313   -0.7478961   -5.5388763  
C    4.3948019   -0.7286184   -4.2016665  
N    5.1487785   -1.5734153   -3.4201764  
C    3.2973506   -0.0000934   -3.8752374  
C    2.6891812    0.8195676   -4.9100422  
O    1.6983687    1.5114227   -4.7152914  
C    3.3322628    0.8142074   -6.3334964  
O    2.8288269    1.5001143   -7.2128968  
C    4.5147638   -0.0118348   -6.5641432  
H    6.8333436   -1.8984495   -6.2365113  
H    4.9540947   -0.0098150   -7.5524287  
H    4.9752877   -1.7701683   -2.4515502  
C    3.3321174    0.0004714   -1.3379332  
C    2.6974186    0.0000115   -2.5332308  
C    1.2800441   -0.0002119   -2.2052838  
C    1.2395035    0.0000643   -0.7271293  
N    2.4394063    0.0005458   -0.2131034  
C    0.0000000    0.0000000    0.0000000  
C   -1.1468701    0.0000634   -0.7169542  
O   -2.3742201    0.0000072   -0.1695492  
C   -1.1388767    0.0001606   -2.2096354  
O   -2.2206229    0.0000903   -2.7970413  
C    0.1454526    0.0001815   -2.9324239  
H   -2.9844344    0.0001023   -0.9290168  
H    0.1083580    0.0003680   -4.0135594  
H    4.3940040    0.0007617   -1.1498630  
C    0.8576279    0.7185626    2.2703808  
C    0.0000000    0.0000000    1.4700000  
C   -0.8668858   -0.7285659    2.3373528  
C   -0.4876752   -0.4117774    3.6669281  
N    0.5635254    0.4678311    3.5902241  
C   -1.1297612   -0.9515493    4.7854808  
C   -2.1738724   -1.8268314    4.5576857  
O   -2.8357962   -2.3827064    5.6140350  
C   -2.5667212   -2.1555554    3.2384331  
O   -3.6226318   -3.0413663    3.1773122  
C   -1.9335634   -1.6236449    2.1344818  
H    1.0363952    0.8769718    4.3757045  
H   -0.8454472   -0.7142436    5.8013813  
H   -3.5178062   -2.9546422    5.2385129  
H   -3.8247440   -3.2102924    2.2519915  
H   -2.2566033   -1.8942483    1.1360343  
H    1.6567807    1.3889844    2.0042067  
