60

C    2.8725415   -3.3838174   -8.6849064  
C    2.4843054   -2.1203324   -8.3036623  
C    2.6130278   -1.2815128   -9.4501409  
C    3.0877678   -2.0955655  -10.5102657  
N    3.2364447   -3.3657124  -10.0110267  
C    3.3308042   -1.5991380  -11.7945099  
C    3.0899210   -0.2565346  -12.0126140  
O    3.3101001    0.2801891  -13.2481156  
C    2.6164798    0.5719497  -10.9674906  
O    2.4257540    1.8857881  -11.3427163  
C    2.3767563    0.0829479   -9.7002352  
H    3.5488945   -4.1626272  -10.5357008  
H    3.6927799   -2.2143169  -12.6067477  
H    3.0825977    1.2168424  -13.1834030  
H    2.1056047    2.3766034  -10.5796911  
H    2.0144117    0.7417637   -8.9197573  
H    2.9200256   -4.2961751   -8.1154275  
C    2.5185218   -2.1418784   -5.7664424  
C    2.0285782   -1.7344766   -6.9604095  
C    0.9435061   -0.8236411   -6.6295061  
C    0.9168305   -0.7971604   -5.1512734  
N    1.8378571   -1.5679055   -4.6397540  
C   -0.0307352   -0.0004646   -4.4215603  
C   -0.9113601    0.7365843   -5.1361187  
O   -1.8501209    1.5254492   -4.5861545  
C   -0.9094202    0.7313056   -6.6288105  
O   -1.7398706    1.4264149   -7.2139564  
C    0.0724713   -0.0942327   -7.3542759  
H   -2.3197102    1.9176027   -5.3443459  
H    0.0410970   -0.0704047   -8.4353302  
H    3.3327630   -2.8241129   -5.5805892  
C    3.2573670   -0.0002920   -1.5109380  
C    2.5379468   -0.0001709   -0.3591961  
C    1.1435043    0.0000332   -0.7338500  
C    1.1092609   -0.0000082   -2.2088477  
N    2.4227562    0.0001909   -2.6182613  
C   -0.0265532   -0.0002522   -2.9515663  
C   -1.3003035   -0.0002639   -2.2514981  
O   -2.3786784   -0.0004131   -2.8306429  
C   -1.2877725    0.0000312   -0.6895608  
O   -2.3539958    0.0003307   -0.0892036  
C    0.0000000    0.0000000    0.0000000  
H    2.9384091   -0.0000369    0.6389239  
H    4.3270394   -0.0004765   -1.6439446  
H    2.7280494   -0.0013406   -3.5742113  
C    0.0000000    0.0000000    1.4700000  
C    1.0662921    0.0000102    2.3034270  
C    0.4961870   -0.0000064    3.6418889  
C   -0.9663858    0.0000850    3.4240247  
N   -1.2632773    0.0000084    2.1528658  
C   -1.8985362    0.0000517    4.5177257  
C   -1.3925775   -0.0004564    5.7720543  
O   -2.1456383   -0.0005410    6.8851312  
C    0.0786232   -0.0009323    6.0245000  
O    0.4683759   -0.0012588    7.1921102  
C    1.0143166   -0.0008442    4.8859032  
H    2.1107198   -0.0000632    2.0421868  
H   -2.9622183    0.0003270    4.3293377  
H   -1.5042274   -0.0009692    7.6184419  
H    2.0724152   -0.0013148    5.1109744  
