64

C   -0.2785566    0.7073463   -7.1705415  
C   -1.5143927    0.4579282   -7.7209661  
C   -1.3133455   -0.4525930   -8.8003785  
C    0.0772307   -0.7256151   -8.8610708  
N    0.6764065   -0.0037870   -7.8587883  
C    0.6381424   -1.5871551   -9.8086555  
C   -0.2204021   -2.1841887  -10.7112237  
O    0.2742267   -3.0344601  -11.6574762  
C   -1.6107928   -1.9240591  -10.6669251  
O   -2.3327120   -2.5942046  -11.6328871  
C   -2.1648056   -1.0740303   -9.7325562  
H   -2.4460377    0.8811424   -7.3864216  
H    1.6971689   -1.7992874   -9.8602737  
H   -0.4828226   -3.3352565  -12.1767675  
H   -3.2613955   -2.3634856  -11.5332831  
H   -3.2334415   -0.8940030   -9.7232457  
H   -0.0025546    1.3373577   -6.3423705  
C    2.8699641   -0.0020527   -4.0185824  
C    4.1418710   -0.0047335   -4.5427132  
C    4.0070334   -0.0066676   -5.9627187  
C    2.6177780   -0.0047433   -6.2488846  
N    1.9559319   -0.0039085   -5.0461476  
C    2.1142957   -0.0055709   -7.5532210  
C    3.0299396   -0.0080856   -8.5875167  
O    2.5927428   -0.0086428   -9.8805252  
C    4.4200515   -0.0104086   -8.3221859  
O    5.2027699   -0.0131881   -9.4582708  
C    4.9174610   -0.0098667   -7.0356759  
H    5.0545874   -0.0063386   -3.9718023  
H    0.9584584    0.0080180   -4.9326303  
H    3.3831278   -0.0107804  -10.4360002  
H    6.1269493   -0.0146009   -9.1908871  
H    5.9874217   -0.0118732   -6.8634591  
C    3.2573673   -0.0002921   -1.5109381  
C    2.5379469   -0.0001710   -0.3591962  
C    1.1435042    0.0000332   -0.7338498  
C    1.1092607   -0.0000083   -2.2088474  
N    2.4227562    0.0001908   -2.6182610  
C   -0.0265532   -0.0002523   -2.9515663  
C   -1.3003033   -0.0002639   -2.2514979  
O   -2.3786784   -0.0004132   -2.8306425  
C   -1.2877726    0.0000312   -0.6895609  
O   -2.3539956    0.0003308   -0.0892035  
C    0.0000000    0.0000000    0.0000000  
H    2.9384091   -0.0000368    0.6389240  
H   -0.0296292   -0.0004086   -4.0327231  
H    4.3270395   -0.0004765   -1.6439444  
C    2.5285572    2.1210227    2.9438989  
C    1.9331703    1.6216660    4.0790748  
C    0.8903039    0.7472258    3.6520102  
C    0.8972198    0.7527806    2.2336141  
N    1.9028376    1.5986179    1.8362361  
C    0.0000000    0.0000000    1.4700000  
C   -0.9207814   -0.7726952    2.1506477  
O   -1.8198395   -1.5274828    1.4542253  
C   -0.9436862   -0.7911793    3.5655508  
O   -1.9197945   -1.6098497    4.0950179  
C   -0.0590329   -0.0485852    4.3195194  
H    2.2150357    1.8593692    5.0905303  
H    2.1533708    1.7953814    0.8841339  
H   -2.3621246   -1.9821033    2.1118817  
H   -1.8668290   -1.5649508    5.0545920  
H   -0.1007624   -0.0827977    5.4019087  
H    3.3491200    2.8096064    2.8367138  
