62

C    7.1069912   -3.0504802   -7.2735643  
C    6.5965562   -1.8274602   -6.9045842  
C    6.9907366   -0.8922341   -7.9068675  
C    7.7459162   -1.6084800   -8.8705185  
N    7.7988293   -2.9156596   -8.4544677  
C    8.2960709   -1.0016489  -10.0036003  
C    8.0796826    0.3528439  -10.1670132  
O    8.5940361    0.9954555  -11.2558219  
C    7.3291868    1.0847668   -9.2162974  
O    7.2024860    2.4244930   -9.5203106  
C    6.7863785    0.4868194   -8.0981091  
H    8.2591061   -3.6621032   -8.9432914  
H    8.8727183   -1.5419363  -10.7416848  
H    8.3299033    1.9213053  -11.1764485  
H    6.6825738    2.8454316   -8.8288594  
H    6.2162452    1.0733081   -7.3871538  
H    7.0335054   -4.0080206   -6.7870717  
C    6.0229652   -2.1225938   -4.4623866  
C    5.0768603   -1.6606647   -3.5769643  
C    4.2270067   -0.7730858   -4.3012247  
C    4.7073241   -0.7328636   -5.6352422  
N    5.7996513   -1.5620048   -5.6981937  
C    4.1081198    0.0435403   -6.6317060  
C    3.0037393    0.7927576   -6.2750610  
O    2.3799023    1.5684384   -7.2089565  
C    2.5098138    0.7661277   -4.9491105  
O    1.4036786    1.5666792   -4.7518147  
C    3.1006054    0.0006263   -3.9654951  
H    5.0084069   -1.9294177   -2.5367340  
H    4.4694380    0.0786527   -7.6502428  
H    1.6440966    2.0014227   -6.7568721  
H    1.1338958    1.4912304   -3.8314189  
H    6.8402640   -2.8064837   -4.3098215  
C    3.2798083    0.0005857   -1.4499652  
C    2.5571142    0.0005565   -2.5996556  
C    1.1637432    0.0001548   -2.2210361  
C    1.1336964   -0.0000200   -0.7459473  
N    2.4483512   -0.0001428   -0.3402723  
C    0.0000000    0.0000000    0.0000000  
C   -1.2757368   -0.0000186   -0.6964415  
O   -2.3524598   -0.0000639   -0.1142311  
C   -1.2676497   -0.0000872   -2.2584083  
O   -2.3355766   -0.0004101   -2.8557295  
C    0.0181558    0.0001758   -2.9516296  
H    0.0150788    0.0003319   -4.0331631  
H    4.3498547    0.0008612   -1.3200026  
H    2.7563626    0.0012823    0.6148059  
C    0.8175213    0.6860729    2.3021913  
C    0.0000000    0.0000000    1.4700000  
C   -0.8887526   -0.7456559    2.3478473  
C   -0.4549825   -0.3816753    3.7138435  
N    0.5448156    0.4573574    3.6934124  
C   -1.0945674   -0.9182058    4.8835240  
C   -2.1210866   -1.7789155    4.6970523  
O   -2.8083856   -2.3554314    5.6976972  
C   -2.5824069   -2.1655116    3.3310774  
O   -3.5227682   -2.9541547    3.2362962  
C   -1.9100805   -1.6015804    2.1470656  
H   -0.7567140   -0.6349833    5.8697035  
H   -3.4728268   -2.9124471    5.2533954  
H   -2.2742832   -1.9066565    1.1752040  
H    1.6189533    1.3585343    2.0405121  
