62

C    0.8852651   -0.7074224   -5.2161081  
C    0.5993479   -0.4569338   -6.5382184  
C   -0.5006908    0.4507935   -6.5615734  
C   -0.8459774    0.7210872   -5.2126308  
N    0.0139746    0.0003883   -4.4216235  
C   -1.8906661    1.5794580   -4.8568025  
C   -2.5995120    2.1760697   -5.8813861  
O   -3.6292747    3.0232984   -5.5901738  
C   -2.2703418    1.9186314   -7.2334922  
O   -3.0694396    2.5879581   -8.1372551  
C   -1.2400308    1.0717294   -7.5852626  
H    1.1189326   -0.8776614   -7.3820272  
H   -2.1589204    1.7895004   -3.8305844  
H   -3.9830433    3.3243423   -6.4372189  
H   -2.7809036    2.3591936   -9.0260844  
H   -1.0112977    0.8937151   -8.6295177  
H    1.6408477   -1.3360923   -4.7769872  
C    3.2798087    0.0005858   -1.4499643  
C    2.5571149    0.0005569   -2.5996548  
C    1.1637440    0.0001551   -2.2210358  
C    1.1336966   -0.0000198   -0.7459468  
N    2.4483512   -0.0001426   -0.3402714  
C    0.0000000    0.0000000    0.0000000  
C   -1.2757369   -0.0000185   -0.6964416  
O   -2.3524599   -0.0000639   -0.1142315  
C   -1.2676492   -0.0000870   -2.2584080  
O   -2.3355760   -0.0004099   -2.8557298  
C    0.0181565    0.0001762   -2.9516296  
H    2.9547360    0.0006079   -3.5989102  
H    2.7563627    0.0012824    0.6148067  
C    6.8068836    0.0035028   -4.1746982  
C    5.5278600    0.0022336   -3.7323449  
C    5.6328285    0.0014355   -2.2813170  
C    7.0869596    0.0022994   -2.0128312  
N    7.7802417    0.0035931   -3.1188818  
C    7.6138029    0.0019137   -0.6758484  
C    6.7282250    0.0011080    0.3464464  
O    7.0793816    0.0006626    1.6436474  
C    5.2547115    0.0005953    0.1078717  
O    4.5071908   -0.0002581    1.0858453  
C    4.7390849    0.0009618   -1.2727274  
H    4.6247057    0.0019725   -4.3183375  
H    8.6810612    0.0023580   -0.5089097  
H    6.2347352    0.0001400    2.1291635  
H    7.1567966    0.0044022   -5.1947641  
C    0.0000000    0.0000000    1.4700000  
C    1.0521667    0.0011902    2.3562342  
C    0.4917218    0.0011957    3.6679131  
C   -0.9187428   -0.0003148    3.5178682  
N   -1.1833171    0.0009411    2.1707914  
C   -1.7951701   -0.0010350    4.6072090  
C   -1.2375837   -0.0005224    5.8710424  
O   -2.0474215   -0.0015360    6.9697579  
C    0.1673580    0.0013566    6.0411963  
O    0.5673524    0.0020687    7.3615553  
C    1.0325770    0.0023412    4.9669890  
H    2.0953057    0.0030649    2.0900562  
H   -2.0989778   -0.0102372    1.7591824  
H   -2.8710934   -0.0020419    4.4995513  
H   -1.4634884   -0.0006497    7.7393593  
H    1.5290710    0.0033153    7.3880045  
H    2.1042148    0.0039609    5.1284455  
