64

C    0.7793615   -0.8876195   -9.6102531  
C    1.1446523   -0.4843841  -10.8737527  
C    0.8985124    0.9185137  -10.9505141  
C    0.3790878    1.3193677   -9.6929605  
N    0.3179158    0.1980486   -8.9033285  
C    0.0223348    2.6409707   -9.4085633  
C    0.1933328    3.5749830  -10.4118381  
O   -0.1386247    4.8798048  -10.1876546  
C    0.7097845    3.1944018  -11.6732861  
O    0.8203108    4.2396077  -12.5669723  
C    1.0616867    1.8907417  -11.9546404  
H    1.5388781   -1.1230429  -11.6455647  
H   -0.3742193    2.9528883   -8.4521877  
H    0.0559579    5.3554709  -11.0056667  
H    1.1764447    3.8974465  -13.3926221  
H    1.4545396    1.6291381  -12.9301966  
H    0.8101244   -1.8640189   -9.1578629  
C    1.8623198   -2.0072653   -5.4771202  
C    1.0190395   -1.6263759   -4.4895066  
C    0.0870117   -0.7080514   -5.1255131  
C    0.5265224   -0.6485023   -6.5361401  
N    1.5667223   -1.4080939   -6.7482582  
C   -0.1488129    0.1645214   -7.5097935  
C   -1.2149984    0.8849935   -7.0932569  
O   -1.9385158    1.6861030   -7.8937481  
C   -1.6831429    0.8457385   -5.6764077  
O   -2.6605019    1.5274253   -5.3677109  
C   -0.9736297    0.0040464   -4.6965763  
H    1.0282688   -1.9310392   -3.4569512  
H   -2.6258529    2.0607756   -7.3137990  
H    2.6982354   -2.6854685   -5.4118586  
C    1.1188642    0.0008222   -0.8003808  
C    0.0000000    0.0000000    0.0000000  
C   -1.1323862    0.0008899   -0.8673528  
C   -0.6382663    0.0019679   -2.1969280  
N    0.7324016    0.0038481   -2.1202242  
C   -1.4770914    0.0027318   -3.3154808  
C   -2.8395473    0.0020945   -3.0876857  
O   -3.7039201    0.0024425   -4.1440349  
C   -3.3517868    0.0013931   -1.7684331  
O   -4.7300497    0.0012366   -1.7073121  
C   -2.5248543    0.0009123   -0.6644817  
H    1.3576314   -0.0056167   -2.9057046  
H   -4.5940032    0.0021826   -3.7685128  
H   -4.9934602    0.0007259   -0.7819913  
H   -2.9462577    0.0005603    0.3339659  
H    2.1619895    0.0009355   -0.5342068  
C    2.5285572    2.1210227    2.9438989  
C    1.9331703    1.6216660    4.0790748  
C    0.8903039    0.7472258    3.6520102  
C    0.8972198    0.7527806    2.2336141  
N    1.9028376    1.5986179    1.8362361  
C    0.0000000    0.0000000    1.4700000  
C   -0.9207814   -0.7726952    2.1506477  
O   -1.8198395   -1.5274828    1.4542253  
C   -0.9436862   -0.7911793    3.5655508  
O   -1.9197945   -1.6098497    4.0950179  
C   -0.0590329   -0.0485852    4.3195194  
H    2.2150357    1.8593692    5.0905303  
H    2.1533708    1.7953814    0.8841339  
H   -2.3621246   -1.9821033    2.1118817  
H   -1.8668290   -1.5649508    5.0545920  
H   -0.1007624   -0.0827977    5.4019087  
H    3.3491200    2.8096064    2.8367138  
