62

C    3.1261199   -3.2368498   -7.8653495  
C    3.8973814   -3.1897591   -9.0035095  
C    3.8644775   -1.8433675   -9.4733455  
C    3.0507208   -1.1083525   -8.5736352  
N    2.6170209   -1.9850034   -7.6103051  
C    2.7957859    0.2576655   -8.7278817  
C    3.3730937    0.8933341   -9.8099261  
O    3.1573570    2.2264902  -10.0078291  
C    4.1877539    0.1770318  -10.7188035  
O    4.6893927    0.9511018  -11.7447260  
C    4.4394631   -1.1706505  -10.5674055  
H    4.4185895   -4.0235252   -9.4418809  
H    2.1763660    0.8235426   -8.0457504  
H    3.6441383    2.4661593  -10.8071201  
H    5.2279809    0.3915580  -12.3125610  
H    5.0674245   -1.6927067  -11.2798654  
H    2.8977249   -4.0646656   -7.2161083  
C    1.8844580   -2.1024763   -5.2000028  
C    1.7579316   -1.6369210   -6.4693819  
C    0.6249275   -0.7419054   -6.4785611  
C    0.0979868   -0.7240442   -5.1005903  
N    0.9053926   -1.5695642   -4.3752752  
C   -0.9736297    0.0040464   -4.6965763  
C   -1.6535189    0.8247015   -5.6849139  
O   -2.6280811    1.5162662   -5.4198316  
C   -1.1127789    0.8208472   -7.1503119  
O   -1.6771970    1.5075996   -7.9911821  
C    0.0504535   -0.0048498   -7.4649010  
H    0.4187481   -0.0017852   -8.4817951  
H    2.6104397   -2.7902094   -4.7976810  
H    0.8008847   -1.7673170   -3.3970019  
C    1.1188642    0.0008222   -0.8003808  
C    0.0000000    0.0000000    0.0000000  
C   -1.1323862    0.0008899   -0.8673528  
C   -0.6382663    0.0019679   -2.1969280  
N    0.7324016    0.0038481   -2.1202242  
C   -1.4770914    0.0027318   -3.3154808  
C   -2.8395473    0.0020945   -3.0876857  
O   -3.7039201    0.0024425   -4.1440349  
C   -3.3517868    0.0013931   -1.7684331  
O   -4.7300497    0.0012366   -1.7073121  
C   -2.5248543    0.0009123   -0.6644817  
H    1.3576314   -0.0056167   -2.9057046  
H   -4.5940032    0.0021826   -3.7685128  
H   -4.9934602    0.0007259   -0.7819913  
H   -2.9462577    0.0005603    0.3339659  
H    2.1619895    0.0009355   -0.5342068  
C    2.5128556    2.1077716    2.9199648  
C    1.9592212    1.6432552    4.0696553  
C    0.8915788    0.7479214    3.6910360  
C    0.8684491    0.7287414    2.2159470  
N    1.8754542    1.5738793    1.8102719  
C    0.0000000    0.0000000    1.4700000  
C   -0.9772830   -0.8200135    2.1664417  
O   -1.8021297   -1.5120829    1.5842315  
C   -0.9711318   -0.8147624    3.7284083  
O   -1.7894187   -1.5009653    4.3257297  
C    0.0140216    0.0115358    4.4216297  
H    2.2638494    1.8988021    5.0689105  
H    0.0117648    0.0094386    5.5031631  
H    3.3327358    2.7953732    2.7900019  
H    2.1123206    1.7707734    0.8551938  
