62

C    1.1188644    0.0008222   -0.8003801  
C    0.0000000    0.0000000    0.0000000  
C   -1.1323860    0.0008896   -0.8673528  
C   -0.6382657    0.0019677   -2.1969276  
N    0.7324021    0.0038479   -2.1202232  
C   -1.4770905    0.0027313   -3.3154810  
C   -2.8395469    0.0020939   -3.0876861  
O   -3.7039192    0.0024417   -4.1440353  
C   -3.3517864    0.0013925   -1.7684334  
O   -4.7300488    0.0012359   -1.7073129  
C   -2.5248543    0.0009118   -0.6644815  
H    1.3576321   -0.0056169   -2.9057036  
H   -4.5940026    0.0021818   -3.7685138  
H   -4.9934596    0.0007255   -0.7819925  
H   -2.9462582    0.0005600    0.3339656  
H    2.1619894    0.0009355   -0.5342064  
C    1.8836783   -2.1362887   -5.0810755  
C    1.8358595   -1.7275863   -6.3703601  
C    0.7030376   -0.8169594   -6.4333924  
C    0.1677643   -0.7920101   -5.0551891  
N    0.8558157   -1.5634008   -4.2579870  
C   -0.9736285    0.0040458   -4.6965762  
C   -1.5536714    0.7419460   -5.6704279  
O   -2.6247563    1.5303568   -5.4774864  
C   -1.0366283    0.7382173   -7.0707186  
O   -1.6142386    1.4340375   -7.9058357  
C    0.1355216   -0.0866900   -7.4135263  
H   -2.8038810    1.9233557   -6.3507665  
H    0.4792091   -0.0617357   -8.4389466  
H    2.5838933   -2.8188171   -4.6262934  
C    2.7273128   -2.1121042   -7.4741525  
C    3.7920053   -2.9549116   -7.4607255  
C    4.3217025   -2.9854667   -8.8036045  
C    3.4722593   -2.0848949   -9.6062297  
N    2.5245246   -1.5876805   -8.7416683  
C    3.6465033   -1.8404271  -10.9297017  
C    4.7437620   -2.5090700  -11.6090204  
O    4.9832923   -2.3545120  -12.7994154  
C    5.6558903   -3.4673540  -10.7786474  
O    6.5826328   -4.0361169  -11.3398219  
C    5.3687737   -3.6505083   -9.3581297  
H    4.1637554   -3.4938485   -6.6075182  
H    3.0120974   -1.1761031  -11.4998881  
H    6.0051530   -4.3155220   -8.7902370  
H    1.7987047   -0.9416232   -8.9923539  
C    2.5285572    2.1210227    2.9438989  
C    1.9331703    1.6216660    4.0790748  
C    0.8903039    0.7472258    3.6520102  
C    0.8972198    0.7527806    2.2336141  
N    1.9028376    1.5986179    1.8362361  
C    0.0000000    0.0000000    1.4700000  
C   -0.9207814   -0.7726952    2.1506477  
O   -1.8198395   -1.5274828    1.4542253  
C   -0.9436862   -0.7911793    3.5655508  
O   -1.9197945   -1.6098497    4.0950179  
C   -0.0590329   -0.0485852    4.3195194  
H    2.2150357    1.8593692    5.0905303  
H    2.1533708    1.7953814    0.8841339  
H   -2.3621246   -1.9821033    2.1118817  
H   -1.8668290   -1.5649508    5.0545920  
H   -0.1007624   -0.0827977    5.4019087  
H    3.3491200    2.8096064    2.8367138  
