60

C    4.4211036   -2.1170480   -1.5538555  
C    5.4072741   -1.6176331   -2.3727078  
C    4.7720741   -0.7441418   -3.3044449  
C    3.3861598   -0.7503088   -3.0025683  
N    3.2071928   -1.5955830   -1.9357506  
C    2.4521480    0.0014830   -3.7217483  
C    2.9258786    0.7738005   -4.7644766  
O    2.0572044    1.5276269   -5.4994355  
C    4.3050425    0.7928833   -5.0812735  
O    4.6193631    1.6110694   -6.1466921  
C    5.2269995    0.0512646   -4.3723847  
H    6.4553768   -1.8546901   -2.3073032  
H    2.3281654   -1.7925772   -1.4924847  
H    2.5873794    1.9821365   -6.1669679  
H    5.5689838    1.5666269   -6.2945049  
H    6.2769997    0.0859175   -4.6384221  
H    4.4873855   -2.8050771   -0.7285189  
C    0.0000000    0.0000000    0.0000000  
C    1.0662921   -0.0000106   -0.8334269  
C    0.4961870    0.0000059   -2.1718889  
C   -0.9663856   -0.0000854   -1.9540246  
N   -1.2632773   -0.0000087   -0.6828657  
C   -1.8985362   -0.0000522   -3.0477258  
C   -1.3925773    0.0004558   -4.3020541  
O   -2.1456384    0.0005402   -5.4151311  
C    0.0786236    0.0009315   -4.5544999  
O    0.4683762    0.0012578   -5.7221098  
C    1.0143167    0.0008435   -3.4159031  
H    2.1107198    0.0000631   -0.5721865  
H   -1.5042271    0.0009682   -6.1484419  
C   -3.9884050    0.7039230   -1.8242583  
C   -3.3460094   -0.0004268   -2.7913647  
C   -4.3537580   -0.7427571   -3.5112426  
C   -5.6451795   -0.4107432   -2.8797465  
N   -5.3546446    0.4703280   -1.8637777  
C   -6.8441771   -0.9105386   -3.2725752  
C   -6.8640253   -1.8374916   -4.3919051  
O   -7.8934842   -2.3421824   -4.8206280  
C   -5.5080965   -2.2034215   -5.0755414  
O   -5.5122771   -2.9830147   -6.0186622  
C   -4.2805269   -1.6000822   -4.5627976  
H   -7.7799855   -0.6539438   -2.7957823  
H   -3.3459154   -1.8584828   -5.0418124  
H   -3.5786579    1.3738258   -1.0858633  
H   -6.0311467    0.8819827   -1.2473908  
C    0.0000000    0.0000000    1.4700000  
C    1.0662921    0.0000102    2.3034270  
C    0.4961870   -0.0000064    3.6418889  
C   -0.9663858    0.0000850    3.4240247  
N   -1.2632773    0.0000084    2.1528658  
C   -1.8985362    0.0000517    4.5177257  
C   -1.3925775   -0.0004564    5.7720543  
O   -2.1456383   -0.0005410    6.8851312  
C    0.0786232   -0.0009323    6.0245000  
O    0.4683759   -0.0012588    7.1921102  
C    1.0143166   -0.0008442    4.8859032  
H    2.1107198   -0.0000632    2.0421868  
H   -2.9622183    0.0003270    4.3293377  
H   -1.5042274   -0.0009692    7.6184419  
H    2.0724152   -0.0013148    5.1109744  
