60

C    1.0237157   -0.0002861   -7.7961633  
C   -0.0568032    0.0002537   -6.9447256  
C   -1.2282171   -0.0001889   -7.7585984  
C   -0.7963259   -0.0012900   -9.1096701  
N    0.5764246    0.0006302   -9.0966551  
C   -1.6861520   -0.0022825  -10.1880943  
C   -3.0365700   -0.0024683   -9.8973208  
O   -3.9490300   -0.0037745  -10.9124219  
C   -3.4870397   -0.0010062   -8.5557208  
O   -4.8609823   -0.0009793   -8.4307099  
C   -2.6097718    0.0002467   -7.4913312  
H   -0.0068473    0.0019937   -5.8693213  
H    1.1645323   -0.0101424   -9.9102856  
H   -1.3633575   -0.0029802  -11.2200853  
H   -4.8207288   -0.0033729  -10.4960016  
H   -5.0811715    0.0000218   -7.4941633  
H   -2.9843903    0.0015342   -6.4744059  
C    3.1006060    0.0006268   -3.9654947  
C    4.3994792    0.0008534   -4.3456354  
C    4.3646294    0.0008282   -5.8000375  
C    2.9251417    0.0004559   -6.1383557  
N    2.1793118    0.0004171   -5.0670355  
C    2.4634066    0.0003686   -7.4991965  
C    3.3972670    0.0010300   -8.4775826  
O    3.1090951    0.0010281   -9.7902120  
C    4.8575565    0.0017902   -8.1682048  
O    5.6513835    0.0022443   -9.1089808  
C    5.3059849    0.0018211   -6.7643400  
H    5.2733148    0.0011078   -3.7167579  
H    3.9761783    0.0016099  -10.2344183  
H    6.3723227    0.0024981   -6.5822606  
C    3.2798085    0.0005859   -1.4499648  
C    2.5571146    0.0005569   -2.5996553  
C    1.1637437    0.0001551   -2.2210359  
C    1.1336966   -0.0000198   -0.7459471  
N    2.4483513   -0.0001427   -0.3402720  
C    0.0000000    0.0000000    0.0000000  
C   -1.2757366   -0.0000185   -0.6964416  
O   -2.3524595   -0.0000640   -0.1142313  
C   -1.2676493   -0.0000870   -2.2584084  
O   -2.3355759   -0.0004098   -2.8557296  
C    0.0181563    0.0001763   -2.9516295  
H    0.0150795    0.0003323   -4.0331630  
H    4.3498549    0.0008614   -1.3200020  
H    2.7563627    0.0012824    0.6148062  
C    0.8400945    0.7047457    2.2710304  
C    0.0000000    0.0000000    1.4700000  
C   -0.8844236   -0.7423113    2.3369512  
C   -0.4878984   -0.4098547    3.7186280  
N    0.5629682    0.4714286    3.6095011  
C   -1.0836927   -0.9095027    4.8308716  
C   -2.1891196   -1.8367527    4.6554461  
O   -2.7906899   -2.3413415    5.5944904  
C   -2.6257283   -2.2031529    3.2011665  
O   -3.5549479   -2.9829990    3.0410059  
C   -1.9068976   -1.5999348    2.0816745  
H   -0.7774656   -0.6525820    5.8354244  
H   -2.2155208   -1.8586617    1.0779135  
H    1.6384792    1.3747609    1.9961646  
H    1.0518368    0.8833920    4.3830260  
