62

C    4.3642520   -0.5472083   -8.9530202  
C    5.0738089   -0.4409208  -10.1267747  
C    4.9971389    0.9228734  -10.5376114  
C    4.2215115    1.6070054   -9.5668938  
N    3.8515783    0.6846466   -8.6197819  
C    3.9394685    2.9738465   -9.6504806  
C    4.4499669    3.6626692  -10.7335754  
O    4.2052319    4.9991094  -10.8641300  
C    5.2257483    2.9976219  -11.7127034  
O    5.6616800    3.8211751  -12.7300846  
C    5.5041605    1.6491631  -11.6310262  
H    5.5829988   -1.2473931  -10.6260967  
H    3.3488382    3.5010972   -8.9140259  
H    4.6458325    5.2792526  -11.6769377  
H    6.1775227    3.2942467  -13.3480301  
H    6.1011021    1.1670725  -12.3963540  
H    4.1820981   -1.4045540   -8.3279304  
C    4.1166494   -0.7277101   -4.4446869  
C    4.3274848   -0.5121302   -5.7687521  
C    3.3125442    0.4146604   -6.2112337  
C    2.4872304    0.7235866   -5.0279277  
N    3.0267438   -0.0008951   -3.9901699  
C    1.4218480    1.5642113   -5.0317842  
C    1.0640306    2.2074764   -6.2850648  
O    0.1212873    2.9809282   -6.3914060  
C    1.9240500    1.8946790   -7.5508964  
O    1.6321787    2.4301016   -8.6117423  
C    3.0488654    0.9715983   -7.4221959  
H    5.1051269   -0.9522731   -6.3672176  
H    0.8297749    1.7772620   -4.1525972  
H    4.6656585   -1.3565620   -3.7627603  
C    3.3003547    0.0005277   -1.4738986  
C    2.5232816    0.0003497   -2.6090746  
C    1.1623203   -0.0001319   -2.1820102  
C    1.1711884    0.0000584   -0.7636141  
N    2.4852301   -0.0014919   -0.3662359  
C    0.0000000    0.0000000    0.0000000  
C   -1.2020383    0.0000520   -0.6806479  
O   -2.3759248    0.0003493    0.0157745  
C   -1.2314655   -0.0005115   -2.0955511  
O   -2.5054388   -0.0008040   -2.6250184  
C   -0.0764513   -0.0007274   -2.8495195  
H    2.8036266    0.0088183    0.5858662  
H   -3.0835639    0.0000346   -0.6418822  
H   -2.4360043   -0.0011529   -3.5845924  
H   -0.1304091   -0.0013423   -3.9319089  
H    4.3715553    0.0004897   -1.3667133  
C    2.4951002    2.0940188    2.9809380  
C    1.9440701    1.6314916    1.8291961  
C    0.8759964    0.7350050    2.2038498  
C    0.8497377    0.7130254    3.6788474  
N    1.8560616    1.5571714    4.0882609  
C   -0.0205033   -0.0168748    4.4215661  
C   -0.9962600   -0.8356168    3.7214979  
O   -1.8224391   -1.5286685    4.3006425  
C   -0.9864710   -0.8277881    2.1595606  
O   -1.8030528   -1.5133726    1.5592035  
C    0.0000000    0.0000000    1.4700000  
H    2.2509283    1.8888011    0.8310761  
H   -0.0229599   -0.0187323    5.5027230  
H    3.3143982    2.7817323    3.1139444  
H    2.0889452    1.7545833    5.0442112  
