60

C   -8.0669888   -0.5572301   -2.9965330  
C   -8.3774776    0.2823655   -1.9519551  
C   -9.7963389    0.2598802   -1.8072932  
C  -10.3019897   -0.6186886   -2.7994426  
N   -9.2255727   -1.0960033   -3.5052135  
C  -11.6664887   -0.8831796   -2.9510189  
C  -12.5363590   -0.2494471   -2.0850595  
O  -13.8789923   -0.4721947   -2.1886622  
C  -12.0510985    0.6308909   -1.0888947  
O  -13.0425852    1.1841740   -0.3052014  
C  -10.7051389    0.8924954   -0.9389580  
H   -7.6686147    0.8430102   -1.3669901  
H   -9.2739968   -1.7489064   -4.2663666  
H  -12.0582567   -1.5516369   -3.7052645  
H  -14.2980118    0.0599998   -1.4998540  
H  -12.6304549    1.7653461    0.3413212  
H  -10.3631400    1.5716597   -0.1667851  
C   -3.9877627    0.7060338   -1.9730979  
C   -3.2941076    0.0012878   -2.9038237  
C   -4.2616237   -0.7404937   -3.6774571  
C   -5.5852979   -0.4077256   -3.1171519  
N   -5.3499626    0.4732136   -2.0868834  
C   -6.7614337   -0.9068529   -3.5746248  
C   -6.7208869   -1.8338311   -4.6933757  
O   -7.7257850   -2.3379508   -5.1774661  
C   -5.3299840   -2.2005531   -5.3022342  
O   -5.2832945   -2.9801745   -6.2441849  
C   -4.1317825   -1.5978942   -4.7234697  
H   -3.1726434   -1.8568414   -5.1509306  
H   -3.6184115    1.3757280   -1.2135067  
H   -6.0587599    0.8852726   -1.5082127  
C    0.0000000    0.0000000    0.0000000  
C    1.0541688   -0.0001723   -0.8560392  
C    0.5103136   -0.0000455   -2.1935956  
C   -0.9576373    0.0002461   -2.0455730  
N   -1.2018460   -0.0001389   -0.6915968  
C   -1.8348314    0.0008319   -3.0810607  
C   -1.2972851    0.0009739   -4.4314603  
O   -2.0050676    0.0014268   -5.4301316  
C    0.2542619    0.0004184   -4.6117572  
O    0.7184666    0.0002257   -5.7439122  
C    1.0974551    0.0000873   -3.4189129  
H    2.0940752   -0.0005484   -0.5817983  
H    2.1707276   -0.0000912   -3.5523673  
H   -2.1128194    0.0014915   -0.2706789  
C    3.2798086   -0.0005857    2.9199648  
C    2.5571146   -0.0005566    4.0696553  
C    1.1637436   -0.0001548    3.6910360  
C    1.1336965    0.0000200    2.2159470  
N    2.4483514    0.0001428    1.8102719  
C    0.0000000    0.0000000    1.4700000  
C   -1.2757367    0.0000186    2.1664417  
O   -2.3524596    0.0000640    1.5842315  
C   -1.2676493    0.0000873    3.7284083  
O   -2.3355761    0.0004100    4.3257297  
C    0.0181563   -0.0001760    4.4216297  
H    2.9547357   -0.0006076    5.0689105  
H    0.0150794   -0.0003319    5.5031631  
H    4.3498549   -0.0008612    2.7900019  
H    2.7563627   -0.0012824    0.8551938  
