60

C   -3.3399628    0.0000191   -7.2034580  
C   -4.0257337    0.0005005   -6.0109036  
C   -5.4159643    0.0002030   -6.3300562  
C   -5.5182222   -0.0007533   -7.7447887  
N   -4.2393440    0.0011097   -8.2438721  
C   -6.7456243   -0.0015803   -8.4143210  
C   -7.8906560   -0.0017463   -7.6416111  
O   -9.1154851   -0.0028937   -8.2439461  
C   -7.8091675   -0.0004272   -6.2287511  
O   -9.0377560   -0.0003597   -5.6011236  
C   -6.5986464    0.0006624   -5.5675679  
H   -3.5789282    0.0021092   -5.0314367  
H   -3.9964963   -0.0095889   -9.2179829  
H   -6.8303192   -0.0021670   -9.4922954  
H   -9.7694374   -0.0025068   -7.5328828  
H   -8.8933745    0.0005379   -4.6499364  
H   -6.5676586    0.0018429   -4.4842784  
C    0.0139742    0.0003878   -4.4216236  
C    1.0778908    0.0006076   -5.2580807  
C    0.5039802    0.0007585   -6.5949153  
C   -0.9579668    0.0004850   -6.3728908  
N   -1.2512408    0.0003478   -5.1008926  
C   -1.8932250    0.0005799   -7.4639358  
C   -1.3908370    0.0013211   -8.7196988  
O   -2.1470611    0.0014885   -9.8306281  
C    0.0796396    0.0019849   -8.9763283  
O    0.4660691    0.0025199  -10.1450425  
C    1.0185685    0.0018290   -7.8403984  
H    2.1230574    0.0007511   -4.9998126  
H   -1.5077391    0.0020885  -10.5657605  
H    2.0760226    0.0024411   -8.0684786  
C    3.2798085    0.0005856   -1.4499646  
C    2.5571146    0.0005565   -2.5996553  
C    1.1637435    0.0001548   -2.2210360  
C    1.1336964   -0.0000200   -0.7459470  
N    2.4483515   -0.0001429   -0.3402716  
C    0.0000000    0.0000000    0.0000000  
C   -1.2757368   -0.0000187   -0.6964415  
O   -2.3524594   -0.0000640   -0.1142314  
C   -1.2676495   -0.0000873   -2.2584081  
O   -2.3355761   -0.0004101   -2.8557295  
C    0.0181563    0.0001759   -2.9516296  
H    2.9547358    0.0006075   -3.5989104  
H    4.3498547    0.0008611   -1.3200019  
H    2.7563628    0.0012823    0.6148064  
C    0.0000000    0.0000000    1.4700000  
C    1.0662921    0.0000102    2.3034270  
C    0.4961870   -0.0000064    3.6418889  
C   -0.9663858    0.0000850    3.4240247  
N   -1.2632773    0.0000084    2.1528658  
C   -1.8985362    0.0000517    4.5177257  
C   -1.3925775   -0.0004564    5.7720543  
O   -2.1456383   -0.0005410    6.8851312  
C    0.0786232   -0.0009323    6.0245000  
O    0.4683759   -0.0012588    7.1921102  
C    1.0143166   -0.0008442    4.8859032  
H    2.1107198   -0.0000632    2.0421868  
H   -2.9622183    0.0003270    4.3293377  
H   -1.5042274   -0.0009692    7.6184419  
H    2.0724152   -0.0013148    5.1109744  
