64

C    0.1744505    0.6290812   -9.3653221  
C    1.2686087   -0.2015610   -9.4382544  
C    1.7408693   -0.1509398  -10.7832483  
C    0.8882459    0.7347744  -11.4906870  
N   -0.0530304    1.1890989  -10.6006285  
C    1.0580576    1.0255206  -12.8476763  
C    2.1078921    0.4111831  -13.5023644  
O    2.3195292    0.6598910  -14.8276441  
C    2.9691985   -0.4758901  -12.8138379  
O    3.9669154   -1.0076278  -13.6045089  
C    2.8021077   -0.7633920  -11.4752018  
H    1.6755710   -0.7744473   -8.6226714  
H   -0.7863770    1.8408444  -10.8137286  
H    0.4116001    1.6995538  -13.3926310  
H    3.0909838    0.1377893  -15.0836377  
H    4.5032578   -1.5950713  -13.0633523  
H    3.4777088   -1.4471098  -10.9746306  
C    0.2216271   -0.7182097   -5.1532608  
C   -0.8712826    0.0001710   -4.7267111  
C   -1.3561982    0.7285936   -5.8531468  
C   -0.5122258    0.4119093   -6.9482939  
N    0.4362930   -0.4675019   -6.4883311  
C   -0.6953617    0.9515866   -8.2250077  
C   -1.7498723    1.8266652   -8.3994259  
O   -1.9744413    2.3824405   -9.6256786  
C   -2.6027024    2.1552828   -7.3189129  
O   -3.6065556    3.0408922   -7.6525584  
C   -2.4224654    1.6234654   -6.0590672  
H    1.1661414   -0.8765340   -7.0433046  
H   -2.7470703    2.9542380   -9.5289468  
H   -4.1364893    3.2097575   -6.8675371  
H   -3.0918134    1.8939834   -5.2508151  
H    0.8658677   -1.3884866   -4.6104511  
C    1.0965514    0.0001359   -0.8010305  
C    0.0000000    0.0000000    0.0000000  
C   -1.1546563    0.0001470   -0.8669513  
C   -0.6372014    0.0003519   -2.2486282  
N    0.7342871    0.0007337   -2.1395014  
C   -1.4147739    0.0001352   -3.3608717  
C   -2.8576049   -0.0001048   -3.1854462  
O   -3.6427779   -0.0002494   -4.1244907  
C   -3.4275840   -0.0000725   -1.7311666  
O   -4.6406831    0.0000333   -1.5710060  
C   -2.4891867   -0.0001091   -0.6116744  
H   -2.8919122   -0.0002918    0.3920866  
H    2.1388272    0.0000663   -0.5261648  
H    1.3735872   -0.0006099   -2.9130262  
C    0.8576279    0.7185626    2.2703808  
C    0.0000000    0.0000000    1.4700000  
C   -0.8668858   -0.7285659    2.3373528  
C   -0.4876752   -0.4117774    3.6669281  
N    0.5635254    0.4678311    3.5902241  
C   -1.1297612   -0.9515493    4.7854808  
C   -2.1738724   -1.8268314    4.5576857  
O   -2.8357962   -2.3827064    5.6140350  
C   -2.5667212   -2.1555554    3.2384331  
O   -3.6226318   -3.0413663    3.1773122  
C   -1.9335634   -1.6236449    2.1344818  
H    1.0363952    0.8769718    4.3757045  
H   -0.8454472   -0.7142436    5.8013813  
H   -3.5178062   -2.9546422    5.2385129  
H   -3.8247440   -3.2102924    2.2519915  
H   -2.2566033   -1.8942483    1.1360343  
H    1.6567807    1.3889844    2.0042067  
