60

C    4.3617190   -3.7129167   -6.4840074  
C    5.3043942   -4.5157565   -5.8846097  
C    5.1446194   -4.3645905   -4.4752762  
C    4.0799612   -3.4494575   -4.2728868  
N    3.6284256   -3.0718420   -5.5131045  
C    3.6452443   -3.0642678   -3.0011012  
C    4.2969694   -3.6131264   -1.9138172  
O    3.9127175   -3.2717732   -0.6493644  
C    5.3616699   -4.5276051   -2.0953600  
O    5.9087297   -4.9853159   -0.9144409  
C    5.7912366   -4.9078483   -3.3497179  
H    6.0199822   -5.1334293   -6.3997877  
H    2.8345053   -2.3671362   -2.8401283  
H    4.4892769   -3.7602904   -0.0475369  
H    6.6202611   -5.5973519   -1.1259544  
H    6.6095432   -5.6101550   -3.4575026  
H    4.1553511   -3.5457628   -7.5272862  
C    2.5185215   -2.1418780   -5.7664428  
C    2.0285777   -1.7344761   -6.9604104  
C    0.9435058   -0.8236405   -6.6295061  
C    0.9168304   -0.7971602   -5.1512739  
N    1.8378567   -1.5679052   -4.6397550  
C   -0.0307352   -0.0004646   -4.4215603  
C   -0.9113601    0.7365845   -5.1361187  
O   -1.8501211    1.5254496   -4.5861545  
C   -0.9094206    0.7313062   -6.6288105  
O   -1.7398708    1.4264157   -7.2139564  
C    0.0724707   -0.0942318   -7.3542764  
H    2.3623447   -2.0170704   -7.9441870  
H   -2.3197104    1.9176033   -5.3443459  
H    0.0410964   -0.0704039   -8.4353302  
C    3.2573670   -0.0002920   -1.5109380  
C    2.5379468   -0.0001709   -0.3591961  
C    1.1435043    0.0000332   -0.7338500  
C    1.1092609   -0.0000082   -2.2088477  
N    2.4227562    0.0001909   -2.6182613  
C   -0.0265532   -0.0002522   -2.9515663  
C   -1.3003035   -0.0002639   -2.2514981  
O   -2.3786784   -0.0004131   -2.8306429  
C   -1.2877725    0.0000312   -0.6895608  
O   -2.3539958    0.0003307   -0.0892036  
C    0.0000000    0.0000000    0.0000000  
H    2.9384091   -0.0000369    0.6389239  
H    4.3270394   -0.0004765   -1.6439446  
H    2.7280494   -0.0013406   -3.5742113  
C    0.8681109    0.7263879    2.2709268  
C    0.6127770    0.5096195    3.5869401  
C   -0.4920590   -0.4175482    3.6542670  
C   -0.8620974   -0.7254003    2.2596025  
N    0.0000000    0.0000000    1.4700000  
C   -1.8641242   -1.5660088    1.8976294  
C   -2.6293522   -2.2103885    2.9520183  
O   -3.5512764   -2.9839180    2.7283916  
C   -2.2549728   -1.8987399    4.4361073  
O   -2.8923672   -2.4351063    5.3323774  
C   -1.1543735   -0.9755647    4.7012123  
H    1.1382914    0.9492124    4.4159191  
H   -2.1192137   -1.7782617    0.8686553  
H   -0.9013378   -0.7652422    5.7314848  
H    1.6172880    1.3558399    1.8188057  
