66

C   -3.3039370    0.0352494   -1.5420461  
C   -2.5843829    0.0281426   -0.3695873  
C   -1.2039309    0.0128882   -0.7283601  
C   -1.1421754    0.0116226   -2.1454382  
N   -2.4347492    0.0234517   -2.6077487  
C    0.0655087   -0.0015811   -2.8497913  
C    1.2321062   -0.0134216   -2.1101384  
O    2.4391434   -0.0262247   -2.7472494  
C    1.1910533   -0.0127490   -0.6955248  
O    2.4370159   -0.0258552   -0.1032836  
C    0.0000000    0.0000000    0.0000000  
H   -3.0029808    0.0322116    0.6222556  
H   -2.7052271    0.0360685   -3.5745287  
H    0.1193367   -0.0027619   -3.9297469  
H    3.1131239   -0.0332599   -2.0551752  
H    2.3198992   -0.0244264    0.8516432  
C   -5.7155363    0.0607657   -0.7739158  
C   -4.7574522    0.0504134   -1.7610507  
C   -5.4464040    0.0555178   -3.0100181  
C   -6.8346866    0.0694439   -2.7194955  
N   -6.9630420    0.0703472   -1.3526957  
C   -7.8157499    0.0780310   -3.7156029  
C   -7.3875462    0.0727654   -5.0289161  
O   -8.3032935    0.0810599   -6.0410192  
C   -6.0067753    0.0585220   -5.3388936  
O   -5.7410269    0.0544533   -6.6926682  
C   -5.0383817    0.0497712   -4.3567212  
H   -7.8327502    0.0895448   -0.8514768  
H   -7.7993898    0.0751247   -6.8652227  
H   -4.7868391    0.0447315   -6.8152824  
H   -3.9883529    0.0387246   -4.6246700  
H   -5.6077361    0.0606270    0.2972233  
C   -9.2563688    0.0922765   -3.4235180  
C   -9.9158168    0.1009360   -2.2162400  
C  -11.3126374    0.1142487   -2.5048829  
C  -11.4458607    0.1127842   -3.9170354  
N  -10.1782651    0.1012671   -4.4439960  
C  -12.6875791    0.1235526   -4.5595378  
C  -13.8153556    0.1357197   -3.7619497  
O  -15.0530340    0.1462148   -4.3373269  
C  -13.7029343    0.1377535   -2.3512143  
O  -14.9174183    0.1508355   -1.6968447  
C  -12.4782718    0.1274080   -1.7166901  
H   -9.4476726    0.0991218   -1.2467909  
H   -9.9569301    0.0870743   -5.4231743  
H  -12.7958642    0.1226466   -5.6353980  
H  -15.6912189    0.1539381   -3.6121205  
H  -14.7522368    0.1513156   -0.7490480  
H  -12.4235555    0.1294527   -0.6343405  
C    2.5285572    2.1210227    2.9438989  
C    1.9331703    1.6216660    4.0790748  
C    0.8903039    0.7472258    3.6520102  
C    0.8972198    0.7527806    2.2336141  
N    1.9028376    1.5986179    1.8362361  
C    0.0000000    0.0000000    1.4700000  
C   -0.9207814   -0.7726952    2.1506477  
O   -1.8198395   -1.5274828    1.4542253  
C   -0.9436862   -0.7911793    3.5655508  
O   -1.9197945   -1.6098497    4.0950179  
C   -0.0590329   -0.0485852    4.3195194  
H    2.2150357    1.8593692    5.0905303  
H    2.1533708    1.7953814    0.8841339  
H   -2.3621246   -1.9821033    2.1118817  
H   -1.8668290   -1.5649508    5.0545920  
H   -0.1007624   -0.0827977    5.4019087  
H    3.3491200    2.8096064    2.8367138  
