60

C    9.8240260    0.7084604   -4.4587704  
C   11.1767465    0.4583977   -4.4496390  
C   11.4251836   -0.4490486   -3.3775287  
C   10.1756351   -0.7196179   -2.7632423  
N    9.2250472    0.0006541   -3.4431011  
C   10.0415749   -1.5778231   -1.6676596  
C   11.1898018   -2.1739829   -1.1835652  
O   11.1159271   -3.0210325   -0.1158282  
C   12.4457513   -1.9162642   -1.7827228  
O   13.4942248   -2.5851487   -1.1855313  
C   12.5787871   -1.0695249   -2.8633988  
H   11.8961240    0.8792218   -5.1311054  
H    9.0921140   -1.7880734   -1.1948791  
H   12.0175639   -3.3217610    0.0570208  
H   14.3050496   -2.3562182   -1.6500296  
H   13.5540073   -0.8912879   -3.3011843  
H    9.2392694    1.3368239   -5.1085227  
C    6.7793184   -0.0000202   -4.0582541  
C    7.7853564    0.0004709   -3.1461341  
C    7.1695420    0.0010648   -1.8401450  
C    5.7118176    0.0008487   -2.0678072  
N    5.5416283    0.0005848   -3.4330637  
C    4.7795901    0.0008674   -1.0815733  
C    5.2428769    0.0013428    0.2960699  
O    4.4818131    0.0014585    1.2547580  
C    6.7823177    0.0018303    0.5605058  
O    7.1842444    0.0025393    1.7162372  
C    7.6891545    0.0014823   -0.5847011  
H    8.7535772    0.0016181   -0.3930572  
H    6.8379584   -0.0005567   -5.1345671  
H    4.6549022   -0.0011624   -3.9029153  
C    3.3321168    0.0004716   -1.3379341  
C    2.6974177    0.0000118   -2.5332316  
C    1.2800432   -0.0002116   -2.2052842  
C    1.2395033    0.0000644   -0.7271298  
N    2.4394059    0.0005460   -0.2131041  
C    0.0000000    0.0000000    0.0000000  
C   -1.1468704    0.0000635   -0.7169542  
O   -2.3742206    0.0000074   -0.1695488  
C   -1.1388774    0.0001608   -2.2096352  
O   -2.2206238    0.0000906   -2.7970409  
C    0.1454514    0.0001818   -2.9324241  
H    3.1367978   -0.0000649   -3.5160956  
H   -2.9844350    0.0001027   -0.9290164  
H    0.1083567    0.0003684   -4.0135594  
C    0.8175213    0.6860729    2.3021913  
C    0.0000000    0.0000000    1.4700000  
C   -0.8887526   -0.7456559    2.3478473  
C   -0.4549825   -0.3816753    3.7138435  
N    0.5448156    0.4573574    3.6934124  
C   -1.0945674   -0.9182058    4.8835240  
C   -2.1210866   -1.7789155    4.6970523  
O   -2.8083856   -2.3554314    5.6976972  
C   -2.5824069   -2.1655116    3.3310774  
O   -3.5227682   -2.9541547    3.2362962  
C   -1.9100805   -1.6015804    2.1470656  
H   -0.7567140   -0.6349833    5.8697035  
H   -3.4728268   -2.9124471    5.2533954  
H   -2.2742832   -1.9066565    1.1752040  
H    1.6189533    1.3585343    2.0405121  
