64

C    7.2341847   -3.5947680   -3.8699469  
C    8.3085358   -4.3748020   -4.2302037  
C    8.4802186   -4.2224435   -5.6380072  
C    7.4731023   -3.3296800   -6.0859114  
N    6.7328663   -2.9692068   -4.9874003  
C    7.3406491   -2.9492312   -7.4247553  
C    8.2414687   -3.4794476   -8.3278458  
O    8.1577417   -3.1412018   -9.6475405  
C    9.2530476   -4.3720520   -7.9003150  
O   10.0716975   -4.8135943   -8.9192335  
C    9.3841409   -4.7480240   -6.5797156  
H    8.8955248   -4.9801185   -3.5608539  
H    6.5751543   -2.2693317   -7.7725439  
H    8.8697534   -3.6151778  -10.0965960  
H   10.7266072   -5.4113192   -8.5458394  
H   10.1688362   -5.4336762   -6.2820400  
H    6.7849512   -3.4362566   -2.9045340  
C    5.5927687   -2.0413270   -4.9982261  
C    4.8287721   -1.6475005   -3.9528606  
C    3.8535672   -0.7319536   -4.5249175  
C    4.1839225   -0.6880032   -5.9655833  
N    5.2025041   -1.4536080   -6.2490079  
C    3.4384733    0.1179388   -6.8928634  
C    2.4095201    0.8465426   -6.4032447  
O    1.6292569    1.6424639   -7.1540708  
C    2.0511536    0.8230559   -4.9543892  
O    1.1023882    1.5114740   -4.5786956  
C    2.8310662   -0.0116220   -4.0232752  
H    4.9161336   -1.9419918   -2.9210085  
H    3.7020821    0.1311624   -7.9403578  
H    0.9895017    2.0254574   -6.5270283  
C    3.3041270    0.0001177   -1.5420434  
C    2.5845372   -0.0004781   -0.3695856  
C    1.2040006   -0.0000008   -0.7283592  
C    1.1422371    0.0006037   -2.1454375  
N    2.4348636    0.0026109   -2.6077467  
C   -0.0655183    0.0008798   -2.8497920  
C   -1.2321770    0.0002326   -2.1101400  
O   -2.4392818    0.0001147   -2.7472520  
C   -1.1911210   -0.0000007   -0.6955263  
O   -2.4371527   -0.0002320   -0.1032859  
C    0.0000000    0.0000000    0.0000000  
H    3.0031533   -0.0000660    0.6222577  
H   -0.1193553    0.0014844   -3.9297472  
H   -3.1132989   -0.0000648   -2.0551784  
H   -2.3200282   -0.0004069    0.8516410  
H    4.3686624    0.0004070   -1.7024294  
C    2.5311839    2.1237619    3.0120429  
C    1.9795631    1.6616747    1.8395852  
C    0.9223175    0.7739173    2.1983588  
C    0.8753926    0.7337535    3.6154372  
N    1.8668922    1.5631002    4.0777464  
C   -0.0496243   -0.0427881    4.3197917  
C   -0.9437528   -0.7922060    3.5801400  
O   -1.8685244   -1.5680278    4.2172520  
C   -0.9124520   -0.7656372    2.1655264  
O   -1.8671164   -1.5663939    1.5732860  
C    0.0000000    0.0000000    1.4700000  
H    2.3005065    1.9304404    0.8477417  
H    2.0679347    1.7444845    5.0445261  
H   -0.0904770   -0.0778569    5.3997470  
H   -2.3849669   -2.0011402    3.5251786  
H   -1.7775064   -1.4909735    0.6183591  
H    3.3468514    2.8078103    3.1724291  
