62

C   -7.6821512    0.0113413   -2.3598348  
C   -8.4677000    0.6859813   -1.4541634  
C   -9.8204895    0.3242147   -1.7256163  
C   -9.7981076   -0.5817876   -2.8167556  
N   -8.4843919   -0.7484068   -3.1787008  
C  -10.9584592   -1.1465127   -3.3547699  
C  -12.1633304   -0.7903771   -2.7806339  
O  -13.3269847   -1.3126126   -3.2666307  
C  -12.2062021    0.1123309   -1.6915534  
O  -13.4813747    0.3674015   -1.2308809  
C  -11.0619065    0.6700422   -1.1604513  
H   -8.1098222    1.3572295   -0.6923614  
H   -8.1570872   -1.3438848   -3.9177943  
H  -10.9481488   -1.8375243   -4.1863939  
H  -14.0387676   -0.9384790   -2.7312298  
H  -13.4213296    0.9854446   -0.4960196  
H  -11.1260687    1.3586859   -0.3261066  
C   -4.4297974    2.1087675   -0.2339396  
C   -5.6380117    1.6447708   -0.6450366  
C   -5.3911869    0.7496349   -1.7507689  
C   -3.9296541    0.7300042   -1.9515855  
N   -3.4052340    1.5747191   -1.0006225  
C   -3.2941076    0.0012878   -2.9038237  
C   -4.1035802   -0.8182212   -3.7902173  
O   -3.6253066   -1.5102279   -4.6794205  
C   -5.6534092   -0.8124874   -3.5957844  
O   -6.3452686   -1.4982635   -4.3362586  
C   -6.2225101    0.0137349   -2.5340255  
H   -6.5931606    1.9005378   -0.2220859  
H   -4.2016940    2.7960867    0.5644659  
H   -2.4284972    1.7712471   -0.8805868  
C    0.0000000    0.0000000    0.0000000  
C    1.0541688   -0.0001723   -0.8560392  
C    0.5103136   -0.0000455   -2.1935956  
C   -0.9576373    0.0002461   -2.0455730  
N   -1.2018460   -0.0001389   -0.6915968  
C   -1.8348314    0.0008319   -3.0810607  
C   -1.2972851    0.0009739   -4.4314603  
O   -2.0050676    0.0014268   -5.4301316  
C    0.2542619    0.0004184   -4.6117572  
O    0.7184666    0.0002257   -5.7439122  
C    1.0974551    0.0000873   -3.4189129  
H    2.0940752   -0.0005484   -0.5817983  
H    2.1707276   -0.0000912   -3.5523673  
H   -2.1128194    0.0014915   -0.2706789  
C    1.1188642   -0.0008217    2.2703808  
C    0.0000000    0.0000000    1.4700000  
C   -1.1323862   -0.0008904    2.3373528  
C   -0.6382662   -0.0019682    3.6669281  
N    0.7324016   -0.0038477    3.5902241  
C   -1.4770914   -0.0027325    4.7854808  
C   -2.8395474   -0.0020958    4.5576857  
O   -3.7039201   -0.0024443    5.6140350  
C   -3.3517868   -0.0013946    3.2384331  
O   -4.7300496   -0.0012389    3.1773122  
C   -2.5248543   -0.0009135    2.1344818  
H    1.3576314    0.0056174    4.3757045  
H   -1.1067570   -0.0036993    5.8013813  
H   -4.5940033   -0.0021850    5.2385129  
H   -4.9934601   -0.0007286    2.2519915  
H   -2.9462578   -0.0005617    1.1360343  
H    2.1619896   -0.0009344    2.0042067  
