60

C    2.9172492   -3.3817360   -8.6859461  
C    2.5290135   -2.1183610   -8.3043374  
C    2.6577362   -1.2792105   -9.4505729  
C    3.1324757   -2.0929575  -10.5109345  
N    3.2811522   -3.3632485  -10.0120612  
C    3.3755123   -1.5961595  -11.7950345  
C    3.1346296   -0.2534932  -12.0127511  
O    3.3548089    0.2835870  -13.2480978  
C    2.6611889    0.5746898  -10.9673887  
O    2.4704636    1.8886365  -11.3422352  
C    2.4214652    0.0853223   -9.7002744  
H    3.5936017   -4.1600119  -10.5369661  
H    3.7374877   -2.2111042  -12.6074498  
H    3.1273069    1.2202217  -13.1831149  
H    2.1503145    2.3792317  -10.5790674  
H    2.0591209    0.7439131   -8.9196064  
H    2.9647328   -4.2942581   -8.1167295  
C    2.5632301   -2.1406391   -5.7671238  
C    2.0732866   -1.7328926   -6.9609732  
C    0.9882149   -0.8221521   -6.6298070  
C    0.9615394   -0.7960980   -5.1515667  
N    1.8825657   -1.5669911   -4.6402698  
C    0.0139741    0.0003876   -4.4216236  
C   -0.8666505    0.7376430   -5.1359692  
O   -1.8054110    1.5263495   -4.5857773  
C   -0.8647107    0.7327951   -6.6286625  
O   -1.6951609    1.4280735   -7.2136077  
C    0.1171803   -0.0925343   -7.3543662  
H   -2.2750002    1.9187220   -5.3438555  
H    0.0858060   -0.0683943   -8.4354135  
H    3.3774711   -2.8229275   -5.5814675  
C    3.2798085    0.0005853   -1.4499648  
C    2.5571144    0.0005562   -2.5996554  
C    1.1637436    0.0001546   -2.2210360  
C    1.1336965   -0.0000201   -0.7459470  
N    2.4483513   -0.0001430   -0.3402717  
C    0.0000000    0.0000000    0.0000000  
C   -1.2757367   -0.0000188   -0.6964414  
O   -2.3524597   -0.0000640   -0.1142313  
C   -1.2676494   -0.0000875   -2.2584081  
O   -2.3355762   -0.0004102   -2.8557294  
C    0.0181562    0.0001757   -2.9516296  
H    2.9547357    0.0006072   -3.5989105  
H    4.3498550    0.0008609   -1.3200021  
H    2.7563627    0.0012824    0.6148063  
C    2.3971438    2.0127888    3.1728260  
C    1.9431056    1.6308205    1.9564670  
C    0.8496017    0.7127664    2.2356185  
C    0.7794028    0.6545384    3.7115134  
N    1.6840587    1.4146091    4.2663826  
C   -0.1885723   -0.1578550    4.3957118  
C   -1.0476298   -0.8789867    3.6398520  
O   -2.0015663   -1.6796266    4.1448486  
C   -1.0022026   -0.8410666    2.1483229  
O   -1.8147390   -1.5232959    1.5241687  
C    0.0000000    0.0000000    1.4700000  
H    2.3054237    1.9346118    0.9892483  
H   -0.2170646   -0.1815267    5.4753125  
H   -2.4487139   -2.0549881    3.3649027  
H    3.2048689    2.6911772    3.3971983  
