62

C    8.3919349   -0.7316432    0.6892356  
C    8.1647704   -0.0114219   -0.4606100  
C    9.3655072    0.7025966   -0.7487242  
C   10.2984351    0.3756321    0.2684606  
N    9.6743976   -0.4957729    1.1262763  
C   11.5940392    0.9000213    0.3033334  
C   11.9545219    1.7700967   -0.7072102  
O   13.2075875    2.3110502   -0.7217162  
C   11.0376550    2.1087997   -1.7306608  
O   11.5466275    2.9877075   -2.6643700  
C    9.7592578    1.5920675   -1.7655453  
H   10.0931544   -0.9091578    1.9397487  
H   12.3097592    0.6549014    1.0759027  
H   13.2496062    2.8817793   -1.5000266  
H   10.8645161    3.1641542   -3.3194997  
H    9.0790194    1.8700407   -2.5620895  
H    7.7401502   -1.3938164    1.2329839  
C    5.6484569   -0.0000679   -0.6807739  
C    4.7161325   -0.0005435   -1.6923264  
C    5.4371286    0.0004103   -2.9230838  
C    6.8175141    0.0011681   -2.5968002  
N    6.9105275    0.0028046   -1.2271423  
C    7.8240136    0.0018978   -3.5672365  
C    7.4298419    0.0015546   -4.8911725  
O    8.3714605    0.0018840   -5.8792852  
C    6.0574640    0.0011751   -5.2367107  
O    5.8267420    0.0012873   -6.5968985  
C    5.0639868    0.0007283   -4.2798774  
H    8.8778474    0.0026214   -3.3250874  
H    7.8889784    0.0018556   -6.7162296  
H    4.8759896    0.0009845   -6.7441179  
H    4.0211712    0.0006261   -4.5748594  
H    5.5130317   -0.0001048    0.3872238  
C    3.2573665   -0.0002920   -1.5109385  
C    2.5379463   -0.0001709   -0.3591964  
C    1.1435038    0.0000331   -0.7338500  
C    1.1092599   -0.0000083   -2.2088477  
N    2.4227553    0.0001909   -2.6182613  
C   -0.0265539   -0.0002524   -2.9515660  
C   -1.3003040   -0.0002640   -2.2514977  
O   -2.3786790   -0.0004133   -2.8306421  
C   -1.2877727    0.0000311   -0.6895603  
O   -2.3539959    0.0003306   -0.0892030  
C    0.0000000    0.0000000    0.0000000  
H    2.9384091   -0.0000367    0.6389234  
H   -0.0296303   -0.0004086   -4.0327229  
H    2.7280482   -0.0013407   -3.5742119  
C    2.5128556    2.1077716    2.9199648  
C    1.9592212    1.6432552    4.0696553  
C    0.8915788    0.7479214    3.6910360  
C    0.8684491    0.7287414    2.2159470  
N    1.8754542    1.5738793    1.8102719  
C    0.0000000    0.0000000    1.4700000  
C   -0.9772830   -0.8200135    2.1664417  
O   -1.8021297   -1.5120829    1.5842315  
C   -0.9711318   -0.8147624    3.7284083  
O   -1.7894187   -1.5009653    4.3257297  
C    0.0140216    0.0115358    4.4216297  
H    2.2638494    1.8988021    5.0689105  
H    0.0117648    0.0094386    5.5031631  
H    3.3327358    2.7953732    2.7900019  
H    2.1123206    1.7707734    0.8551938  
