62

C    2.5001917   -3.0504834   -8.9839265  
C    2.1639593   -1.8274873   -8.4512954  
C    2.1566560   -0.8921566   -9.5281897  
C    2.4986404   -1.6083172  -10.7038121  
N    2.7025630   -2.9155489  -10.3375099  
C    2.5873633   -1.0013723  -11.9602096  
C    2.3257985    0.3531489  -12.0311652  
O    2.3977832    0.9958705  -13.2331388  
C    1.9833456    1.0849878  -10.8692902  
O    1.7526630    2.4247557  -11.1041329  
C    1.8958959    0.4869283   -9.6294500  
H    2.9476585   -3.6619527  -10.9626430  
H    2.8476616   -1.5415943  -12.8599908  
H    2.1822769    1.9217214  -13.0610306  
H    1.5276455    2.8456325  -10.2687691  
H    1.6315451    1.0733545   -8.7572681  
H    2.6130643   -4.0080796   -8.5051480  
C    2.5409787   -2.1228911   -5.9711679  
C    1.9926482   -1.6610299   -4.7970794  
C    0.9342950   -0.7733297   -5.1527156  
C    0.8833348   -0.7329666   -6.5696486  
N    1.8736002   -1.5621444   -7.0348961  
C   -0.0437619    0.0435813   -7.2712567  
C   -0.9358595    0.7928004   -6.5289556  
O   -1.8625194    1.5686187   -7.1633227  
C   -0.9005316    0.7660311   -5.1144410  
O   -1.8535894    1.5666038   -4.5193714  
C    0.0139741    0.0003876   -4.4216236  
H    2.3164397   -1.9299053   -3.8061918  
H   -0.0876905    0.0788014   -8.3510857  
H   -2.3770355    2.0015784   -6.4697198  
H   -1.7612554    1.4910552   -3.5647142  
H    3.3562566   -2.8068326   -6.1339727  
C    3.2798085    0.0005853   -1.4499648  
C    2.5571144    0.0005562   -2.5996554  
C    1.1637436    0.0001546   -2.2210360  
C    1.1336965   -0.0000201   -0.7459470  
N    2.4483513   -0.0001430   -0.3402717  
C    0.0000000    0.0000000    0.0000000  
C   -1.2757367   -0.0000188   -0.6964414  
O   -2.3524597   -0.0000640   -0.1142313  
C   -1.2676494   -0.0000875   -2.2584081  
O   -2.3355762   -0.0004102   -2.8557294  
C    0.0181562    0.0001757   -2.9516296  
H    2.9547357    0.0006072   -3.5989105  
H    4.3498550    0.0008609   -1.3200021  
H    2.7563627    0.0012824    0.6148063  
C    2.3971438    2.0127888    3.1728260  
C    1.9431056    1.6308205    1.9564670  
C    0.8496017    0.7127664    2.2356185  
C    0.7794028    0.6545384    3.7115134  
N    1.6840587    1.4146091    4.2663826  
C   -0.1885723   -0.1578550    4.3957118  
C   -1.0476298   -0.8789867    3.6398520  
O   -2.0015663   -1.6796266    4.1448486  
C   -1.0022026   -0.8410666    2.1483229  
O   -1.8147390   -1.5232959    1.5241687  
C    0.0000000    0.0000000    1.4700000  
H    2.3054237    1.9346118    0.9892483  
H   -0.2170646   -0.1815267    5.4753125  
H   -2.4487139   -2.0549881    3.3649027  
H    3.2048689    2.6911772    3.3971983  
