64

C   -8.5582924    2.7946729   -2.4256107  
C   -7.6521187    1.8739938   -2.8985473  
C   -8.3240873    0.6168431   -2.9498441  
C   -9.6490752    0.8341722   -2.4925680  
N   -9.7570645    2.1667263   -2.1807087  
C  -10.5979431   -0.1893324   -2.4096416  
C  -10.2021201   -1.4552320   -2.7956471  
O  -11.0887840   -2.4911708   -2.7350406  
C   -8.8844093   -1.6920584   -3.2543068  
O   -8.6443056   -3.0055457   -3.6013588  
C   -7.9477241   -0.6828739   -3.3361215  
H   -6.6319135    2.0825863   -3.1717897  
H  -10.5868399    2.6176035   -1.8398828  
H  -11.6093430   -0.0302391   -2.0618466  
H  -10.6153129   -3.2742789   -3.0446084  
H   -7.7327483   -3.0794587   -3.9000266  
H   -8.4439376    3.8493109   -2.2422512  
C   -3.9676974    0.7295157   -2.0473343  
C   -5.3027969    0.5139982   -2.1703652  
C   -5.4806623   -0.4130395   -3.2629769  
C   -4.1300602   -0.7221789   -3.7700241  
N   -3.2578655    0.0024282   -2.9908505  
C   -3.8704414   -1.5630664   -4.8030828  
C   -4.9963852   -2.2064100   -5.4595085  
O   -4.8663875   -2.9800941   -6.3990907  
C   -6.4355318   -1.8933908   -4.9392384  
O   -7.3913137   -2.4288771   -5.4842120  
C   -6.5888722   -0.9700330   -3.8177438  
H   -6.0749212    0.9543376   -1.5649406  
H   -2.8721775   -1.7762701   -5.1593463  
H   -3.4426404    1.3584980   -1.3469156  
C    0.0000000    0.0000000    0.0000000  
C    1.0521666   -0.0011982   -0.8862343  
C    0.4917215   -0.0011996   -2.1979132  
C   -0.9187429    0.0003215   -2.0478682  
N   -1.1833171   -0.0009323   -0.7007913  
C   -1.7951703    0.0010483   -3.1372089  
C   -1.2375841    0.0005313   -4.4010422  
O   -2.0474218    0.0015510   -5.4997578  
C    0.1673576   -0.0013585   -4.5711963  
O    0.5673520   -0.0020735   -5.8915554  
C    1.0325768   -0.0023493   -3.4969892  
H    2.0953056   -0.0030808   -0.6200564  
H   -2.0989778    0.0102529   -0.2891822  
H   -1.4634888    0.0006601   -6.2693595  
H    1.5290707   -0.0033271   -5.9180047  
H    2.1042146   -0.0039770   -3.6584456  
C    0.0000000    0.0000000    1.4700000  
C    1.0521667    0.0011902    2.3562342  
C    0.4917218    0.0011957    3.6679131  
C   -0.9187428   -0.0003148    3.5178682  
N   -1.1833171    0.0009411    2.1707914  
C   -1.7951701   -0.0010350    4.6072090  
C   -1.2375837   -0.0005224    5.8710424  
O   -2.0474215   -0.0015360    6.9697579  
C    0.1673580    0.0013566    6.0411963  
O    0.5673524    0.0020687    7.3615553  
C    1.0325770    0.0023412    4.9669890  
H    2.0953057    0.0030649    2.0900562  
H   -2.0989778   -0.0102372    1.7591824  
H   -2.8710934   -0.0020419    4.4995513  
H   -1.4634884   -0.0006497    7.7393593  
H    1.5290710    0.0033153    7.3880045  
H    2.1042148    0.0039609    5.1284455  
