64

C    4.4612581    0.0039980   -6.6636105  
C    5.6470648   -0.6506908   -6.9038429  
C    6.0888502   -0.2499394   -8.1995378  
C    5.1240149    0.6581864   -8.7058250  
N    4.1483167    0.7885286   -7.7489345  
C    5.2362420    1.2571218   -9.9641854  
C    6.3427740    0.9336465  -10.7251922  
O    6.5021133    1.4900539  -11.9613286  
C    7.3161005    0.0294004  -10.2375539  
O    8.3587628   -0.1907328  -11.1137620  
C    7.2058952   -0.5620488   -8.9963576  
H    6.1332214   -1.3339954   -6.2287581  
H    3.3379440    1.3766024   -7.8227317  
H    4.5042713    1.9499430  -10.3558740  
H    7.3272998    1.1347189  -12.3163924  
H    8.9708592   -0.8123325  -10.7081076  
H    7.9672832   -1.2509843   -8.6497531  
C    4.4925592   -2.1138022   -2.7420818  
C    4.8565036   -1.6946790   -3.9763668  
C    3.8030385   -0.7794117   -4.3874589  
C    2.8583248   -0.7634594   -3.2499853  
N    3.2572738   -1.5436999   -2.2824862  
C    1.6628945    0.0339172   -3.2649299  
C    1.4223703    0.7816763   -4.3659925  
O    0.3461535    1.5724674   -4.5158195  
C    2.3568203    0.7871866   -5.5300086  
O    2.0745624    1.4917544   -6.4990984  
C    3.5763791   -0.0392793   -5.4905725  
H    5.7317949   -1.9722544   -4.5384099  
H    0.4536188    1.9730614   -5.3973685  
H    5.0117291   -2.8025036   -2.0946821  
C    1.1243410    0.0100105   -0.7919003  
C    0.7474072    0.0234665   -2.1148542  
C   -0.6787384    0.0234379   -2.1414698  
C   -1.1201748    0.0098411   -0.7935547  
N    0.0000000    0.0000000    0.0000000  
C   -2.4730818    0.0063307   -0.4408240  
C   -3.3971962    0.0170429   -1.4675058  
O   -4.7313520    0.0145490   -1.1793468  
C   -2.9763654    0.0303020   -2.8186325  
O   -4.0166484    0.0394464   -3.7247625  
C   -1.6418567    0.0334992   -3.1673480  
H   -2.8160166   -0.0041569    0.5845966  
H   -5.1938823    0.0230023   -2.0274386  
H   -3.6464680    0.0481700   -4.6127343  
H   -1.3497475    0.0435647   -4.2109234  
H    2.1062466    0.0053162   -0.3505405  
C    0.8676693    0.7151171    2.2619005  
C    0.5875920    0.4624972    3.5848544  
C   -0.5048400   -0.4542819    3.6114698  
C   -0.8517165   -0.7276451    2.2635546  
N    0.0000000    0.0000000    1.4700000  
C   -1.8902865   -1.5946756    1.9108239  
C   -2.5912627   -2.1969500    2.9375057  
O   -3.6148162   -3.0527051    2.6493466  
C   -2.2603868   -1.9365747    4.2886322  
O   -3.0513550   -2.6123276    5.1947621  
C   -1.2361111   -1.0811317    4.6373480  
H    1.1060808    0.8876438    4.4271209  
H   -2.1597133   -1.8070987    0.8854031  
H   -3.9636755   -3.3565188    3.4974381  
H   -2.7621927   -2.3810384    6.0827341  
H   -1.0058879   -0.9010589    5.6809233  
H    1.6167816    1.3499334    1.8205408  
