62

C    3.9135223    0.7615428   -7.3866846  
C    5.0021781   -0.0579041   -7.1974695  
C    5.8065598    0.0407218   -8.3712851  
C    5.1528457    0.9428318   -9.2492267  
N    4.0056611    1.3603346   -8.6213133  
C    5.6644808    1.2795447  -10.5060662  
C    6.8579277    0.6951669  -10.8833779  
O    7.4023848    0.9891353  -12.0999962  
C    7.5249587   -0.2076107  -10.0214736  
O    8.7020710   -0.7053380  -10.5411068  
C    7.0206633   -0.5404536   -8.7815425  
H    5.1925151   -0.6543239   -6.3216568  
H    3.3425042    2.0131795   -8.9981383  
H    5.1710215    1.9662909  -11.1799202  
H    8.2220587    0.4816509  -12.1621260  
H    9.0888113   -1.3062550   -9.8969531  
H    7.5539404   -1.2351914   -8.1432376  
C    2.8405919   -0.6921323   -3.3577788  
C    3.4604999   -0.4644327   -4.5443467  
C    2.6384068    0.4700294   -5.2763160  
C    1.4804521    0.7702492   -4.4127189  
N    1.6628945    0.0339172   -3.2649299  
C    0.4714003    1.6144659   -4.7456112  
C    0.5296169    2.2710623   -6.0409979  
O   -0.3306321    3.0486891   -6.4328757  
C    1.7466584    1.9676547   -6.9718900  
O    1.8063723    2.5143249   -8.0649800  
C    2.7724704    1.0395745   -6.5026043  
H    4.3877438   -0.9013742   -4.8697905  
H   -0.3689152    1.8209773   -4.0974342  
H    3.1449039   -1.3294203   -2.5434397  
C    1.1243410    0.0100105   -0.7919003  
C    0.7474072    0.0234665   -2.1148542  
C   -0.6787384    0.0234379   -2.1414698  
C   -1.1201748    0.0098411   -0.7935547  
N    0.0000000    0.0000000    0.0000000  
C   -2.4730818    0.0063307   -0.4408240  
C   -3.3971962    0.0170429   -1.4675058  
O   -4.7313520    0.0145490   -1.1793468  
C   -2.9763654    0.0303020   -2.8186325  
O   -4.0166484    0.0394464   -3.7247625  
C   -1.6418567    0.0334992   -3.1673480  
H   -2.8160166   -0.0041569    0.5845966  
H   -5.1938823    0.0230023   -2.0274386  
H   -3.6464680    0.0481700   -4.6127343  
H   -1.3497475    0.0435647   -4.2109234  
H    2.1062466    0.0053162   -0.3505405  
C    2.5528530    2.1414826    2.8079335  
C    2.0663498    1.7338582    4.0032312  
C    0.9804344    0.8229586    3.6752840  
C    0.9495562    0.7966882    2.1971295  
N    1.8690446    1.5676019    1.6831036  
C    0.0000000    0.0000000    1.4700000  
C   -0.8785127   -0.7372425    2.1869543  
O   -1.8187535   -1.5261249    1.6395491  
C   -0.8723269   -0.7321790    3.6796354  
O   -1.7010379   -1.4274584    4.2670412  
C    0.1115397    0.0933559    4.4024240  
H    2.4028853    2.0163452    4.9860947  
H   -2.2861435   -1.9184361    2.3990168  
H    0.0832434    0.0693689    5.4835595  
H    3.3664920    2.8238276    2.6198634  
