62

C    7.6085589    0.0220573   -6.7318269  
C    7.2036688    0.0338484   -8.0465102  
C    5.7773125    0.0241651   -8.0429892  
C    5.3645620    0.0066659   -6.6860592  
N    6.5012974    0.0038874   -5.9163571  
C    4.0194658   -0.0062579   -6.3048273  
C    3.0738099   -0.0011214   -7.3117464  
O    1.7460895   -0.0128580   -6.9954667  
C    3.4658946    0.0159027   -8.6714520  
O    2.4066570    0.0186023   -9.5553915  
C    4.7926835    0.0283859   -9.0482815  
H    7.8561172    0.0466170   -8.9027480  
H    3.6983561   -0.0197625   -5.2723990  
H    1.2656930   -0.0069703   -7.8335889  
H    2.7579219    0.0304349  -10.4509803  
H    5.0625989    0.0411359  -10.0977867  
H    8.5995810    0.0237250   -6.3113151  
C    6.5323619    0.0028964   -4.4466857  
C    7.6043853    0.0022110   -3.6131151  
C    7.0889182    0.0013271   -2.2643646  
C    5.6181665    0.0015261   -2.3813325  
N    5.3453997    0.0028890   -3.7298448  
C    4.7630507    0.0004755   -1.3275395  
C    5.3290143   -0.0007198    0.0111983  
O    4.6424941   -0.0016577    1.0246035  
C    6.8840247   -0.0006989    0.1586670  
O    7.3720510   -0.0013929    1.2807592  
C    7.7018218    0.0002121   -1.0517294  
H    8.6382649    0.0024954   -3.9092703  
H    8.7776749    0.0000151   -0.9409858  
H    4.4257341    0.0017848   -4.1314187  
C    3.3003548    0.0005276   -1.4738982  
C    2.5232817    0.0003497   -2.6090743  
C    1.1623204   -0.0001319   -2.1820101  
C    1.1711886    0.0000583   -0.7636140  
N    2.4852302   -0.0014919   -0.3662356  
C    0.0000000    0.0000000    0.0000000  
C   -1.2020379    0.0000520   -0.6806479  
O   -2.3759249    0.0003495    0.0157742  
C   -1.2314652   -0.0005112   -2.0955511  
O   -2.5054384   -0.0008036   -2.6250184  
C   -0.0764510   -0.0007271   -2.8495195  
H    2.8919962   -0.0005619   -3.6205297  
H    2.8036267    0.0088181    0.5858667  
H   -3.0835636    0.0000348   -0.6418823  
H   -2.4360038   -0.0011526   -3.5845925  
H   -0.1304090   -0.0013420   -3.9319089  
C    2.4951002    2.0940188    2.9809380  
C    1.9440701    1.6314916    1.8291961  
C    0.8759964    0.7350050    2.2038498  
C    0.8497377    0.7130254    3.6788474  
N    1.8560616    1.5571714    4.0882609  
C   -0.0205033   -0.0168748    4.4215661  
C   -0.9962600   -0.8356168    3.7214979  
O   -1.8224391   -1.5286685    4.3006425  
C   -0.9864710   -0.8277881    2.1595606  
O   -1.8030528   -1.5133726    1.5592035  
C    0.0000000    0.0000000    1.4700000  
H    2.2509283    1.8888011    0.8310761  
H   -0.0229599   -0.0187323    5.5027230  
H    3.3143982    2.7817323    3.1139444  
H    2.0889452    1.7545833    5.0442112  
