60

C   -5.2687335    2.1322580   -6.0019915  
C   -4.0330791    1.6710636   -6.3930490  
C   -4.2474267    0.7852025   -7.4902753  
C   -5.6455653    0.7452224   -7.7259355  
N   -6.2361767    1.5728475   -6.8035293  
C   -6.2200663   -0.0296324   -8.7380315  
C   -5.3675984   -0.7775205   -9.5267895  
O   -5.8754911   -1.5516609  -10.5296689  
C   -3.9698153   -0.7511079   -9.3069667  
O   -3.2553552   -1.5502171  -10.1754793  
C   -3.4023861    0.0128655   -8.3085206  
H   -3.0929736    1.9391908   -5.9421586  
H   -7.2211671    1.7539445   -6.7329653  
H   -7.2849068   -0.0645522   -8.9226817  
H   -5.1206235   -1.9839085  -10.9499105  
H   -2.3209367   -1.4750232   -9.9591199  
H   -5.5366347    2.8148744   -5.2138149  
C   -1.0641738    0.0073911   -4.6315339  
C    0.2051247    0.0079407   -5.1010655  
C    0.0692337    0.0101851   -6.5495229  
C   -1.3902935    0.0106361   -6.7869342  
N   -2.0598289    0.0090850   -5.6663500  
C   -1.9455310    0.0127610   -8.1123753  
C   -1.0819577    0.0147513   -9.1533232  
O   -1.4606997    0.0168505  -10.4427384  
C    0.3963086    0.0147286   -8.9462286  
O    1.1228019    0.0164823   -9.9399214  
C    0.9412629    0.0124832   -7.5769427  
H    1.1205717    0.0070363   -4.5344694  
H   -0.6266011    0.0179439  -10.9461564  
H    2.0176805    0.0126570   -7.4694464  
C    1.1319245    0.0015656   -0.8009271  
C    0.7969914    0.0034943   -2.1169404  
C   -0.6453340    0.0035712   -2.1842672  
C   -1.1266833    0.0015434   -0.7896027  
N    0.0000000    0.0000000    0.0000000  
C   -2.4346131    0.0013965   -0.4276296  
C   -3.4350110    0.0031409   -1.4820182  
O   -4.6384610    0.0030975   -1.2583916  
C   -2.9478961    0.0050507   -2.9661073  
O   -3.7809383    0.0062220   -3.8623773  
C   -1.5113824    0.0053091   -3.2312124  
H    1.4821237    0.0045409   -2.9459193  
H   -2.7664564    0.0000233    0.6013449  
H    2.1104315    0.0009392   -0.3488061  
C    0.8681109    0.7263879    2.2709268  
C    0.6127770    0.5096195    3.5869401  
C   -0.4920590   -0.4175482    3.6542670  
C   -0.8620974   -0.7254003    2.2596025  
N    0.0000000    0.0000000    1.4700000  
C   -1.8641242   -1.5660088    1.8976294  
C   -2.6293522   -2.2103885    2.9520183  
O   -3.5512764   -2.9839180    2.7283916  
C   -2.2549728   -1.8987399    4.4361073  
O   -2.8923672   -2.4351063    5.3323774  
C   -1.1543735   -0.9755647    4.7012123  
H    1.1382914    0.9492124    4.4159191  
H   -2.1192137   -1.7782617    0.8686553  
H   -0.9013378   -0.7652422    5.7314848  
H    1.6172880    1.3558399    1.8188057  
