60

C    6.6001509    0.0019432   -4.3713018  
C    7.6333548    0.0021445   -3.4630299  
C    7.0453158    0.0020498   -2.1634874  
C    5.6383368    0.0015002   -2.3433059  
N    5.4022898    0.0034000   -3.6956727  
C    4.7390844    0.0009612   -1.2727295  
C    5.2698384    0.0006705    0.0026047  
O    4.4369622   -0.0002078    1.0839608  
C    6.6708714    0.0015853    0.2024109  
O    7.0428739    0.0015757    1.5309279  
C    7.5585980    0.0023904   -0.8532718  
H    8.6818874    0.0034412   -3.7071041  
H    4.4955250   -0.0070442   -4.1265439  
H    5.0045013    0.0000319    1.8657301  
H    8.0038201    0.0021938    1.5776952  
H    8.6265856    0.0032634   -0.6692047  
H    6.6229014    0.0023217   -5.4476104  
C    3.2798077    0.0005856   -1.4499659  
C    2.5571132    0.0005565   -2.5996562  
C    1.1637425    0.0001548   -2.2210364  
C    1.1336957   -0.0000200   -0.7459472  
N    2.4483508   -0.0001429   -0.3402728  
C    0.0000000    0.0000000    0.0000000  
C   -1.2757370   -0.0000187   -0.6964410  
O   -2.3524597   -0.0000640   -0.1142306  
C   -1.2676501   -0.0000873   -2.2584079  
O   -2.3355772   -0.0004101   -2.8557287  
C    0.0181552    0.0001759   -2.9516296  
H    2.9547343    0.0006074   -3.5989115  
H    2.7563624    0.0012823    0.6148054  
C    2.5632278   -2.1406389   -5.7671252  
C    2.0732834   -1.7328922   -6.9609744  
C    0.9882122   -0.8221518   -6.6298075  
C    0.9615374   -0.7960977   -5.1515672  
N    1.8825638   -1.5669907   -4.6402709  
C    0.0139724    0.0003878   -4.4216237  
C   -0.8666524    0.7376432   -5.1359687  
O   -1.8054128    1.5263499   -4.5857763  
C   -0.8647136    0.7327955   -6.6286620  
O   -1.6951640    1.4280743   -7.2136068  
C    0.1171771   -0.0925338   -7.3543662  
H    2.4070497   -2.0152030   -7.9448322  
H   -2.2750023    1.9187223   -5.3438547  
H    0.0858021   -0.0683938   -8.4354136  
H    3.3774686   -2.8229271   -5.5814694  
C    2.5128556    2.1077716    2.9199648  
C    1.9592212    1.6432552    4.0696553  
C    0.8915788    0.7479214    3.6910360  
C    0.8684491    0.7287414    2.2159470  
N    1.8754542    1.5738793    1.8102719  
C    0.0000000    0.0000000    1.4700000  
C   -0.9772830   -0.8200135    2.1664417  
O   -1.8021297   -1.5120829    1.5842315  
C   -0.9711318   -0.8147624    3.7284083  
O   -1.7894187   -1.5009653    4.3257297  
C    0.0140216    0.0115358    4.4216297  
H    2.2638494    1.8988021    5.0689105  
H    0.0117648    0.0094386    5.5031631  
H    3.3327358    2.7953732    2.7900019  
H    2.1123206    1.7707734    0.8551938  
