62

C    2.4862159   -2.1188255   -8.3614859  
C    3.4849742   -2.9692982   -8.7757871  
C    3.4539082   -2.9846064  -10.2017611  
C    2.4067217   -2.1168203  -10.6045933  
N    1.8386012   -1.6092989   -9.4625438  
C    2.0882631   -1.8879265  -11.9465995  
C    2.8408365   -2.5468303  -12.8993103  
O    2.5726945   -2.3592266  -14.2244205  
C    3.8894989   -3.4169331  -12.5171520  
O    4.5454318   -3.9983826  -13.5825219  
C    4.2040475   -3.6434249  -11.1934127  
H    4.1529552   -3.5127525   -8.1296814  
H    1.0770155   -0.9557190   -9.4342295  
H    1.2912713   -1.2278611  -12.2601599  
H    3.2049092   -2.9042452  -14.7107589  
H    5.2379913   -4.5703490  -13.2378191  
H    5.0127097   -4.3155562  -10.9311480  
C    2.6001991   -2.1411822   -5.8266036  
C    2.0730547   -1.7332820   -7.0044479  
C    0.9991591   -0.8222837   -6.6393041  
C    1.0189900   -0.7962637   -5.1609555  
N    1.9554492   -1.5673976   -4.6788913  
C    0.0950446    0.0004351   -4.4015596  
C   -0.8074265    0.7379267   -5.0878438  
O   -1.7282260    1.5268491   -4.5083871  
C   -0.8524303    0.7331197   -6.5798604  
O   -1.7006928    1.4286186   -7.1383869  
C    0.1059499   -0.0924314   -7.3360990  
H   -2.2213255    1.9193581   -5.2513151  
H    0.0406008   -0.0682539   -8.4156246  
H    3.4197066   -2.8236757   -5.6666591  
C    3.3321173    0.0004713   -1.3379338  
C    2.6974181    0.0000116   -2.5332314  
C    1.2800438   -0.0002119   -2.2052841  
C    1.2395034    0.0000643   -0.7271299  
N    2.4394062    0.0005460   -0.2131038  
C    0.0000000    0.0000000    0.0000000  
C   -1.1468702    0.0000634   -0.7169543  
O   -2.3742203    0.0000074   -0.1695487  
C   -1.1388770    0.0001607   -2.2096355  
O   -2.2206234    0.0000905   -2.7970411  
C    0.1454522    0.0001815   -2.9324241  
H    3.1367984   -0.0000653   -3.5160950  
H   -2.9844346    0.0001026   -0.9290167  
H    4.3940038    0.0007618   -1.1498640  
C    0.8576279    0.7185626    2.2703808  
C    0.0000000    0.0000000    1.4700000  
C   -0.8668858   -0.7285659    2.3373528  
C   -0.4876752   -0.4117774    3.6669281  
N    0.5635254    0.4678311    3.5902241  
C   -1.1297612   -0.9515493    4.7854808  
C   -2.1738724   -1.8268314    4.5576857  
O   -2.8357962   -2.3827064    5.6140350  
C   -2.5667212   -2.1555554    3.2384331  
O   -3.6226318   -3.0413663    3.1773122  
C   -1.9335634   -1.6236449    2.1344818  
H    1.0363952    0.8769718    4.3757045  
H   -0.8454472   -0.7142436    5.8013813  
H   -3.5178062   -2.9546422    5.2385129  
H   -3.8247440   -3.2102924    2.2519915  
H   -2.2566033   -1.8942483    1.1360343  
H    1.6567807    1.3889844    2.0042067  
