62

C   -6.0484660   -0.7120738   -6.3327717  
C   -6.4294903   -0.4624473   -7.6308377  
C   -7.5276157    0.4461801   -7.5750190  
C   -7.7737748    0.7178858   -6.2047968  
N   -6.8591837   -0.0028733   -5.4777161  
C   -8.7891860    1.5774261   -5.7747744  
C   -9.5701365    2.1737769   -6.7456817  
O  -10.5753645    3.0221088   -6.3811788  
C   -9.3402705    1.9149375   -8.1178994  
O  -10.2024006    2.5841794   -8.9618129  
C   -8.3388964    1.0668814   -8.5428408  
H   -5.9729099   -0.8843118   -8.5097907  
H   -8.9820094    1.7885473   -4.7319663  
H  -10.9895061    3.3227431   -7.2005505  
H   -9.9793809    2.3544336   -9.8690529  
H   -8.1867744    0.8878063   -9.6007955  
H   -5.2634625   -1.3410096   -5.9491465  
C   -3.3460096   -0.0004265   -2.7913646  
C   -4.0351702    0.0003055   -1.6007663  
C   -5.4244878    0.0001005   -1.9238725  
C   -5.5227199   -0.0010603   -3.3388900  
N   -4.2424270    0.0005973   -3.8343331  
C   -6.7482124   -0.0018647   -4.0119112  
C   -7.8954377   -0.0017972   -3.2424625  
O   -9.1185481   -0.0029120   -3.8482795  
C   -7.8179689   -0.0002715   -1.8293762  
O   -9.0483375    0.0000156   -1.2052468  
C   -6.6093340    0.0007956   -1.1647522  
H   -3.5911531    0.0020178   -0.6200323  
H   -3.9968101   -0.0102739   -4.8077478  
H   -9.7745213   -0.0023507   -3.1390798  
H   -8.9066624    0.0010428   -0.2536529  
H   -6.5814276    0.0021374   -0.0813789  
C    0.0000000    0.0000000    0.0000000  
C    1.0662919   -0.0000103   -0.8334269  
C    0.4961869    0.0000064   -2.1718889  
C   -0.9663859   -0.0000850   -1.9540246  
N   -1.2632774   -0.0000084   -0.6828657  
C   -1.8985363   -0.0000518   -3.0477257  
C   -1.3925778    0.0004564   -4.3020545  
O   -2.1456384    0.0005409   -5.4151311  
C    0.0786230    0.0009323   -4.5544998  
O    0.4683758    0.0012588   -5.7221098  
C    1.0143164    0.0008442   -3.4159030  
H    2.1107195    0.0000633   -0.5721867  
H   -1.5042275    0.0009691   -6.1484418  
H    2.0724152    0.0013148   -3.6409744  
C    1.0672568    0.0000697    2.3021913  
C    0.0000000    0.0000000    1.4700000  
C   -1.1601224    0.0000736    2.3478473  
C   -0.5938729    0.0000769    3.7138435  
N    0.7113367    0.0001554    3.6934124  
C   -1.4286986    0.0001879    4.8835240  
C   -2.7683114    0.0006799    4.6970523  
O   -3.6653903    0.0008304    5.6976972  
C   -3.3702025    0.0010610    3.3310774  
O   -4.5974910    0.0013779    3.2362962  
C   -2.4926826    0.0008943    2.1470656  
H   -0.9878360   -0.0000190    5.8697035  
H   -4.5324246    0.0012261    5.2533954  
H   -2.9677772    0.0012974    1.1752040  
H    2.1134392    0.0000545    2.0405121  
