62

C    6.7844971   -0.0032746   -6.4989884  
C    7.4085373   -0.0055463   -5.2730050  
C    8.8132378   -0.0073026   -5.5208222  
C    8.9875330   -0.0056964   -6.9284955  
N    7.7357792   -0.0052138   -7.4921691  
C   10.2474923   -0.0064593   -7.5345431  
C   11.3516134   -0.0085810   -6.7044283  
O   12.6055750   -0.0090581   -7.2434972  
C   11.1981546   -0.0105823   -5.2975660  
O   12.3931239   -0.0129884   -4.6080825  
C    9.9554806   -0.0101043   -4.6989965  
H    6.9123460   -0.0069998   -4.3176070  
H    7.5429576    0.0064364   -8.4773923  
H   10.3870687   -0.0053883   -8.6067919  
H   13.2224017   -0.0109069   -6.5000016  
H   12.2004070   -0.0142013   -3.6655003  
H    9.8692689   -0.0118586   -3.6186992  
C    3.1006060    0.0006268   -3.9654947  
C    4.4058794   -0.0003265   -4.3999232  
C    4.3701028   -0.0003734   -5.8258685  
C    3.0041052    0.0008689   -6.2079358  
N    2.2602342   -0.0005000   -5.0541279  
C    2.5925324    0.0014788   -7.5441224  
C    3.5778769    0.0011295   -8.5122523  
O    3.2316415    0.0020455   -9.8325295  
C    4.9461775   -0.0004815   -8.1509103  
O    5.8059953   -0.0010568   -9.2298253  
C    5.3529314   -0.0013571   -6.8329292  
H    5.2766925   -0.0020210   -3.7669343  
H    1.2572719    0.0104892   -5.0102251  
H    1.5530432    0.0022816   -7.8418858  
H    4.0587371    0.0013038  -10.3317064  
H    6.7093483   -0.0021241   -8.8988327  
C    3.2798085    0.0005859   -1.4499648  
C    2.5571146    0.0005569   -2.5996553  
C    1.1637437    0.0001551   -2.2210359  
C    1.1336966   -0.0000198   -0.7459471  
N    2.4483513   -0.0001427   -0.3402720  
C    0.0000000    0.0000000    0.0000000  
C   -1.2757366   -0.0000185   -0.6964416  
O   -2.3524595   -0.0000640   -0.1142313  
C   -1.2676493   -0.0000870   -2.2584084  
O   -2.3355759   -0.0004098   -2.8557296  
C    0.0181563    0.0001763   -2.9516295  
H    0.0150795    0.0003323   -4.0331630  
H    4.3498549    0.0008614   -1.3200020  
H    2.7563627    0.0012824    0.6148062  
C    2.5528530    2.1414826    2.8079335  
C    2.0663498    1.7338582    4.0032312  
C    0.9804344    0.8229586    3.6752840  
C    0.9495562    0.7966882    2.1971295  
N    1.8690446    1.5676019    1.6831036  
C    0.0000000    0.0000000    1.4700000  
C   -0.8785127   -0.7372425    2.1869543  
O   -1.8187535   -1.5261249    1.6395491  
C   -0.8723269   -0.7321790    3.6796354  
O   -1.7010379   -1.4274584    4.2670412  
C    0.1115397    0.0933559    4.4024240  
H    2.4028853    2.0163452    4.9860947  
H   -2.2861435   -1.9184361    2.3990168  
H    0.0832434    0.0693689    5.4835595  
H    3.3664920    2.8238276    2.6198634  
