60

C    4.1515996   -0.0027171    5.0832100  
C    4.5621417   -0.0028715    3.7702277  
C    5.9885024   -0.0025338    3.7799825  
C    6.3954276   -0.0024655    5.1387822  
N    5.2553835   -0.0006296    5.9035793  
C    7.7389015   -0.0024594    5.5259092  
C    8.6888923   -0.0028303    4.5230656  
O   10.0152683   -0.0031925    4.8451559  
C    8.3026479   -0.0025282    3.1615840  
O    9.3656957   -0.0025388    2.2822250  
C    6.9774641   -0.0022609    2.7789435  
H    3.9133706   -0.0020830    2.9111071  
H    5.2297883   -0.0107152    6.9071836  
H    8.0555804   -0.0022635    6.5597935  
H   10.4992708   -0.0031121    4.0090902  
H    9.0182765   -0.0023524    1.3850604  
H    3.1587599   -0.0024853    5.4994172  
C    6.6174608   -0.0017048    1.3537072  
C    5.3857487   -0.0012517    0.7819021  
C    5.5854748   -0.0008504   -0.6481134  
C    7.0449747   -0.0011378   -0.8641002  
N    7.6133360   -0.0012549    0.3888384  
C    7.6418658   -0.0012960   -2.0828803  
C    6.7899754   -0.0009490   -3.2605127  
O    7.2316300   -0.0009952   -4.4021091  
C    5.2415210   -0.0003890   -3.0553446  
O    4.5141870    0.0002132   -4.0393394  
C    4.7161325   -0.0005435   -1.6923264  
H    4.4446715   -0.0010218    1.3024657  
H    8.7143806   -0.0016366   -2.2193405  
H    8.5996515   -0.0030073    0.5738403  
C    3.2573665   -0.0002920   -1.5109385  
C    2.5379463   -0.0001709   -0.3591964  
C    1.1435038    0.0000331   -0.7338500  
C    1.1092599   -0.0000083   -2.2088477  
N    2.4227553    0.0001909   -2.6182613  
C   -0.0265539   -0.0002524   -2.9515660  
C   -1.3003040   -0.0002640   -2.2514977  
O   -2.3786790   -0.0004133   -2.8306421  
C   -1.2877727    0.0000311   -0.6895603  
O   -2.3539959    0.0003306   -0.0892030  
C    0.0000000    0.0000000    0.0000000  
H    2.9384091   -0.0000367    0.6389234  
H   -0.0296303   -0.0004086   -4.0327229  
H    2.7280482   -0.0013407   -3.5742119  
C    0.8681109    0.7263879    2.2709268  
C    0.6127770    0.5096195    3.5869401  
C   -0.4920590   -0.4175482    3.6542670  
C   -0.8620974   -0.7254003    2.2596025  
N    0.0000000    0.0000000    1.4700000  
C   -1.8641242   -1.5660088    1.8976294  
C   -2.6293522   -2.2103885    2.9520183  
O   -3.5512764   -2.9839180    2.7283916  
C   -2.2549728   -1.8987399    4.4361073  
O   -2.8923672   -2.4351063    5.3323774  
C   -1.1543735   -0.9755647    4.7012123  
H    1.1382914    0.9492124    4.4159191  
H   -2.1192137   -1.7782617    0.8686553  
H   -0.9013378   -0.7652422    5.7314848  
H    1.6172880    1.3558399    1.8188057  
