60

C    7.9816081   -3.6419547   -4.4847806  
C    6.9454237   -3.0441293   -3.8055204  
C    7.0065826   -3.5101943   -2.4588047  
C    8.1102066   -4.3972864   -2.3750908  
N    8.6789073   -4.4560671   -3.6231859  
C    8.4707235   -5.0462201   -1.1903117  
C    7.7033385   -4.7948285   -0.0695525  
O    8.0113401   -5.4017912    1.1135555  
C    6.5981219   -3.9132037   -0.1332017  
O    5.9336766   -3.7672552    1.0670290  
C    6.2417214   -3.2728778   -1.3017425  
H    9.4878529   -4.9982381   -3.8673966  
H    9.3106283   -5.7235793   -1.1199755  
H    7.3597810   -5.0930946    1.7565487  
H    5.2019012   -3.1563038    0.9372318  
H    5.3898851   -2.6031620   -1.3199995  
H    8.2775761   -3.5531510   -5.5160303  
C    5.9718892   -2.1066112   -4.3836112  
C    5.8824610   -1.6421421   -5.6565394  
C    4.7503159   -0.7470241   -5.6995007  
C    4.1834490   -0.7279187   -4.3374842  
N    4.9692736   -1.5728895   -3.5882225  
C    3.1006054    0.0006263   -3.9654951  
C    2.4499042    0.8204921   -4.9739311  
O    1.4681172    1.5123811   -4.7379552  
C    3.0331132    0.8153166   -6.4229463  
O    2.4935205    1.5013966   -7.2804980  
C    4.2049168   -0.0107663   -6.7027955  
H    6.5349989   -1.8975853   -6.4723559  
H    4.6026857   -0.0086178   -7.7085287  
H    4.8362807   -1.7697856   -2.6132391  
C    3.2798083    0.0005857   -1.4499652  
C    2.5571142    0.0005565   -2.5996556  
C    1.1637432    0.0001548   -2.2210361  
C    1.1336964   -0.0000200   -0.7459473  
N    2.4483512   -0.0001428   -0.3402723  
C    0.0000000    0.0000000    0.0000000  
C   -1.2757368   -0.0000186   -0.6964415  
O   -2.3524598   -0.0000639   -0.1142311  
C   -1.2676497   -0.0000872   -2.2584083  
O   -2.3355766   -0.0004101   -2.8557295  
C    0.0181558    0.0001758   -2.9516296  
H    0.0150788    0.0003319   -4.0331631  
H    4.3498547    0.0008612   -1.3200026  
H    2.7563626    0.0012823    0.6148059  
C    0.8400945    0.7047457    2.2710304  
C    0.0000000    0.0000000    1.4700000  
C   -0.8844236   -0.7423113    2.3369512  
C   -0.4878984   -0.4098547    3.7186280  
N    0.5629682    0.4714286    3.6095011  
C   -1.0836927   -0.9095027    4.8308716  
C   -2.1891196   -1.8367527    4.6554461  
O   -2.7906899   -2.3413415    5.5944904  
C   -2.6257283   -2.2031529    3.2011665  
O   -3.5549479   -2.9829990    3.0410059  
C   -1.9068976   -1.5999348    2.0816745  
H   -0.7774656   -0.6525820    5.8354244  
H   -2.2155208   -1.8586617    1.0779135  
H    1.6384792    1.3747609    1.9961646  
H    1.0518368    0.8833920    4.3830260  
