60

C   -7.4595894    5.3234319    1.0224581  
C   -6.5913976    4.4015265    0.4850552  
C   -7.2661775    3.1448356    0.4849400  
C   -8.5536786    3.3636957    1.0384425  
N   -8.6374621    4.6966815    1.3558500  
C   -9.4945447    2.3410139    1.1923334  
C   -9.1291363    1.0743779    0.7796737  
O  -10.0096226    0.0391894    0.9067318  
C   -7.8490074    0.8360247    0.2253506  
O   -7.6360529   -0.4780353   -0.1369200  
C   -6.9202186    1.8443968    0.0734841  
H   -5.5939819    4.6090289    0.1370641  
H   -9.4395291    5.1485781    1.7564191  
H  -10.4774284    2.5012744    1.6135923  
H   -9.5608089   -0.7446293    0.5640063  
H   -6.7490584   -0.5529838   -0.5019221  
H   -7.3313009    6.3781865    1.1956427  
C   -4.3991028    2.0926370   -0.0704356  
C   -3.3610094    1.6305297   -0.8140045  
C   -3.9159994    0.7341915   -1.8006144  
C   -5.3729682    0.7118418   -1.5692442  
N   -5.6007886    1.5556535   -0.5067144  
C   -6.2559171   -0.0180489   -2.2968193  
C   -5.7365717   -0.8363895   -3.3799325  
O   -6.4507762   -1.5294000   -4.0926375  
C   -4.1968645   -0.8281647   -3.6426857  
O   -3.7479705   -1.5134097   -4.5516380  
C   -3.3460097   -0.0004262   -2.7913647  
H   -2.3247245    1.8880235   -0.6858468  
H   -7.3209339   -0.0201814   -2.1106904  
H   -4.3873341    2.7801298    0.7596881  
C    0.0000000    0.0000000    0.0000000  
C    1.0662919   -0.0000103   -0.8334272  
C    0.4961868    0.0000066   -2.1718889  
C   -0.9663860   -0.0000849   -1.9540248  
N   -1.2632775   -0.0000084   -0.6828659  
C   -1.8985364   -0.0000515   -3.0477258  
C   -1.3925778    0.0004567   -4.3020543  
O   -2.1456385    0.0005412   -5.4151314  
C    0.0786229    0.0009326   -4.5544999  
O    0.4683756    0.0012594   -5.7221104  
C    1.0143162    0.0008443   -3.4159034  
H    2.1107195    0.0000631   -0.5721869  
H   -1.5042277    0.0009692   -6.1484420  
H    2.0724151    0.0013151   -3.6409746  
C    0.0000000    0.0000000    1.4700000  
C    1.0541688    0.0001722    2.3260392  
C    0.5103138    0.0000454    3.6635956  
C   -0.9576371   -0.0002459    3.5155732  
N   -1.2018458    0.0001392    2.1615969  
C   -1.8348311   -0.0008317    4.5510609  
C   -1.2972847   -0.0009736    5.9014604  
O   -2.0050672   -0.0014265    6.9001319  
C    0.2542623   -0.0004184    6.0817573  
O    0.7184670   -0.0002256    7.2139121  
C    1.0974552   -0.0000873    4.8889129  
H    2.0940752    0.0005483    2.0517982  
H   -2.9081052   -0.0011668    4.4207061  
H    2.1707277    0.0000911    5.0223670  
H   -2.1128194   -0.0014912    1.7406791  
