64

C    3.5339806   -4.3016419   -2.0859154  
C    4.5575497   -4.9112821   -2.7737472  
C    4.4780091   -4.4602338   -4.1246098  
C    3.3770342   -3.5692640   -4.2017707  
N    2.8249735   -3.4970813   -2.9469255  
C    3.0017688   -2.9317340   -5.3881600  
C    3.7517762   -3.1982573   -6.5171560  
O    3.4293077   -2.6023486   -7.7020274  
C    4.8536215   -4.0845539   -6.4603030  
O    5.4995433   -4.2466004   -7.6685533  
C    5.2242370   -4.7140550   -5.2903039  
H    5.2728006   -5.5976105   -2.3537906  
H    2.0342890   -2.9331934   -2.6923077  
H    4.0698058   -2.9211141   -8.3511920  
H    6.2302870   -4.8596628   -7.5429660  
H    6.0728462   -5.3879809   -5.2774651  
H    3.2526986   -4.3781754   -1.0495850  
C    1.8623200   -2.0072652   -5.4771196  
C    1.0190394   -1.6263762   -4.4895061  
C    0.0870120   -0.7080517   -5.1255130  
C    0.5265230   -0.6485027   -6.5361399  
N    1.5667227   -1.4080943   -6.7482576  
C   -0.1488120    0.1645209   -7.5097932  
C   -1.2149977    0.8849929   -7.0932566  
O   -1.9385152    1.6861028   -7.8937484  
C   -1.6831425    0.8457383   -5.6764081  
O   -2.6605014    1.5274250   -5.3677112  
C   -0.9736297    0.0040464   -4.6965763  
H    1.0282686   -1.9310392   -3.4569505  
H    0.1941654    0.1891585   -8.5338384  
H   -2.6258523    2.0607754   -7.3137993  
C    1.1188642    0.0008222   -0.8003808  
C    0.0000000    0.0000000    0.0000000  
C   -1.1323862    0.0008899   -0.8673528  
C   -0.6382663    0.0019679   -2.1969280  
N    0.7324016    0.0038481   -2.1202242  
C   -1.4770914    0.0027318   -3.3154808  
C   -2.8395473    0.0020945   -3.0876857  
O   -3.7039201    0.0024425   -4.1440349  
C   -3.3517868    0.0013931   -1.7684331  
O   -4.7300497    0.0012366   -1.7073121  
C   -2.5248543    0.0009123   -0.6644817  
H    1.3576314   -0.0056167   -2.9057046  
H   -4.5940032    0.0021826   -3.7685128  
H   -4.9934602    0.0007259   -0.7819913  
H   -2.9462577    0.0005603    0.3339659  
H    2.1619895    0.0009355   -0.5342068  
C    0.8676693    0.7151171    2.2619005  
C    0.5875920    0.4624972    3.5848544  
C   -0.5048400   -0.4542819    3.6114698  
C   -0.8517165   -0.7276451    2.2635546  
N    0.0000000    0.0000000    1.4700000  
C   -1.8902865   -1.5946756    1.9108239  
C   -2.5912627   -2.1969500    2.9375057  
O   -3.6148162   -3.0527051    2.6493466  
C   -2.2603868   -1.9365747    4.2886322  
O   -3.0513550   -2.6123276    5.1947621  
C   -1.2361111   -1.0811317    4.6373480  
H    1.1060808    0.8876438    4.4271209  
H   -2.1597133   -1.8070987    0.8854031  
H   -3.9636755   -3.3565188    3.4974381  
H   -2.7621927   -2.3810384    6.0827341  
H   -1.0058879   -0.9010589    5.6809233  
H    1.6167816    1.3499334    1.8205408  
