62

C    6.8094405   -0.0163116   -6.3852803  
C    7.6555867   -0.0264729   -7.4699005  
C    8.9873525   -0.0154470   -6.9591380  
C    8.8903111    0.0011539   -5.5441343  
N    7.5541064    0.0021293   -5.2292169  
C   10.0117479    0.0149853   -4.7092833  
C   11.2537744    0.0116968   -5.3138801  
O   12.3820832    0.0243861   -4.5459135  
C   11.3711169   -0.0044069   -6.7241242  
O   12.6755382   -0.0052680   -7.1733770  
C   10.2652222   -0.0177845   -7.5483472  
H    7.3504739   -0.0390446   -8.5022478  
H    9.9445165    0.0278130   -3.6301556  
H   13.1292390    0.0197472   -5.1582870  
H   12.6659006   -0.0165821   -8.1353458  
H   10.3863733   -0.0297933   -8.6252198  
H    5.7336541   -0.0193135   -6.3448672  
C    7.0021973    0.0016962   -3.8667574  
C    5.7010034    0.0007395   -3.4946387  
C    5.7268785    0.0007366   -2.0400491  
C    7.1642509    0.0016709   -1.6928548  
N    7.9166766    0.0023172   -2.7595521  
C    7.6175803    0.0019949   -0.3291911  
C    6.6777004    0.0018009    0.6434139  
O    6.9577664    0.0020527    1.9577974  
C    5.2193472    0.0012353    0.3250318  
O    4.4197302    0.0009616    1.2608916  
C    4.7795901    0.0008674   -1.0815733  
H    4.8310648    0.0002032   -4.1288958  
H    8.6741765    0.0024744   -0.1044396  
H    6.0879590    0.0018432    2.3966452  
C    3.3321168    0.0004716   -1.3379341  
C    2.6974177    0.0000118   -2.5332316  
C    1.2800432   -0.0002116   -2.2052842  
C    1.2395033    0.0000644   -0.7271298  
N    2.4394059    0.0005460   -0.2131041  
C    0.0000000    0.0000000    0.0000000  
C   -1.1468704    0.0000635   -0.7169542  
O   -2.3742206    0.0000074   -0.1695488  
C   -1.1388774    0.0001608   -2.2096352  
O   -2.2206238    0.0000906   -2.7970409  
C    0.1454514    0.0001818   -2.9324241  
H    3.1367978   -0.0000649   -3.5160956  
H   -2.9844350    0.0001027   -0.9290164  
H    0.1083567    0.0003684   -4.0135594  
C    2.5311839    2.1237619    3.0120429  
C    1.9795631    1.6616747    1.8395852  
C    0.9223175    0.7739173    2.1983588  
C    0.8753926    0.7337535    3.6154372  
N    1.8668922    1.5631002    4.0777464  
C   -0.0496243   -0.0427881    4.3197917  
C   -0.9437528   -0.7922060    3.5801400  
O   -1.8685244   -1.5680278    4.2172520  
C   -0.9124520   -0.7656372    2.1655264  
O   -1.8671164   -1.5663939    1.5732860  
C    0.0000000    0.0000000    1.4700000  
H    2.3005065    1.9304404    0.8477417  
H    2.0679347    1.7444845    5.0445261  
H   -0.0904770   -0.0778569    5.3997470  
H   -2.3849669   -2.0011402    3.5251786  
H   -1.7775064   -1.4909735    0.6183591  
H    3.3468514    2.8078103    3.1724291  
