64

C    8.9839866    0.0004455   -2.3627813  
C   10.0385691   -0.0004103   -1.4794219  
C   11.2337896    0.0001153   -2.2579102  
C   10.8424837    0.0015903   -3.6212894  
N    9.4699568   -0.0001967   -3.6493200  
C   11.7641519    0.0027586   -4.6726289  
C   13.1052734    0.0027390   -4.3416145  
O   14.0476728    0.0042034   -5.3289832  
C   13.5154344    0.0009036   -2.9871473  
O   14.8850243    0.0007096   -2.8211175  
C   12.6067366   -0.0005229   -1.9494605  
H    9.9564843   -0.0024087   -0.4059920  
H    8.9064379    0.0108335   -4.4801660  
H   11.4723530    0.0037411   -5.7138088  
H   14.9065322    0.0036130   -4.8866891  
H   15.0771168   -0.0005428   -1.8784072  
H   12.9507860   -0.0020968   -0.9217903  
C    6.6540972   -0.0013091    1.3962729  
C    5.4018071   -0.0015693    0.8268552  
C    5.5874904   -0.0008946   -0.5874013  
C    6.9861179   -0.0005210   -0.8235500  
N    7.6043962    0.0011648    0.4021525  
C    7.5360617   -0.0001390   -2.1089881  
C    6.6581048   -0.0004411   -3.1754633  
O    7.1413991   -0.0004415   -4.4519588  
C    5.2593677   -0.0004399   -2.9601678  
O    4.5179016   -0.0003362   -4.1235989  
C    4.7161325   -0.0005435   -1.6923264  
H    4.4691976   -0.0010661    1.3646588  
H    8.5971759   -0.0087721    0.5513882  
H    6.3714461   -0.0003763   -5.0354278  
H    3.5847247   -0.0003699   -3.8895380  
H    6.9446140   -0.0012467    2.4328827  
C    3.2573665   -0.0002920   -1.5109385  
C    2.5379463   -0.0001709   -0.3591964  
C    1.1435038    0.0000331   -0.7338500  
C    1.1092599   -0.0000083   -2.2088477  
N    2.4227553    0.0001909   -2.6182613  
C   -0.0265539   -0.0002524   -2.9515660  
C   -1.3003040   -0.0002640   -2.2514977  
O   -2.3786790   -0.0004133   -2.8306421  
C   -1.2877727    0.0000311   -0.6895603  
O   -2.3539959    0.0003306   -0.0892030  
C    0.0000000    0.0000000    0.0000000  
H    2.9384091   -0.0000367    0.6389234  
H   -0.0296303   -0.0004086   -4.0327229  
H    2.7280482   -0.0013407   -3.5742119  
C    2.5311839    2.1237619    3.0120429  
C    1.9795631    1.6616747    1.8395852  
C    0.9223175    0.7739173    2.1983588  
C    0.8753926    0.7337535    3.6154372  
N    1.8668922    1.5631002    4.0777464  
C   -0.0496243   -0.0427881    4.3197917  
C   -0.9437528   -0.7922060    3.5801400  
O   -1.8685244   -1.5680278    4.2172520  
C   -0.9124520   -0.7656372    2.1655264  
O   -1.8671164   -1.5663939    1.5732860  
C    0.0000000    0.0000000    1.4700000  
H    2.3005065    1.9304404    0.8477417  
H    2.0679347    1.7444845    5.0445261  
H   -0.0904770   -0.0778569    5.3997470  
H   -2.3849669   -2.0011402    3.5251786  
H   -1.7775064   -1.4909735    0.6183591  
H    3.3468514    2.8078103    3.1724291  
