60

C    6.7726140   -0.0573876   -4.5660650  
C    7.8372138   -0.7136865   -3.9930318  
C    9.0040172   -0.3242489   -4.7151862  
C    8.5858870    0.5789536   -5.7257891  
N    7.2251283    0.7173646   -5.6083405  
C    9.4756145    1.1667616   -6.6300337  
C   10.8118223    0.8370153   -6.5117353  
O   11.7235634    1.3825130   -7.3685734  
C   11.2483826   -0.0624694   -5.5101573  
O   12.6090681   -0.2899250   -5.5221196  
C   10.3711682   -0.6429426   -4.6179300  
H    7.7797284   -1.3907801   -3.1580271  
H    6.6496082    1.3044245   -6.1846374  
H    9.1632481    1.8557801   -7.4026153  
H   12.5843729    1.0243890   -7.1155523  
H   12.8203990   -0.9076513   -4.8154675  
H   10.7349208   -1.3284632   -3.8614752  
C    4.2926942   -2.1403414   -1.5040813  
C    5.3604710   -1.7320209   -2.2284475  
C    4.8134481   -0.8208704   -3.2219619  
C    3.3612075   -0.7952319   -2.9446113  
N    3.0500070   -1.5667026   -1.9386405  
C    2.4521483    0.0014840   -3.7217481  
C    2.9703735    0.7393569   -4.7298757  
O    2.2390463    1.5283419   -5.5352977  
C    4.4316781    0.7349405   -5.0343914  
O    4.8335663    1.4307759   -5.9668720  
C    5.3436401   -0.0906363   -4.2228046  
H    6.3919441   -2.0142020   -2.1038949  
H    2.8845127    1.9211529   -6.1502980  
H    4.2782631   -2.8230632   -0.6694220  
C    0.0000000    0.0000000    0.0000000  
C    1.0662923   -0.0000101   -0.8334270  
C    0.4961873    0.0000065   -2.1718887  
C   -0.9663854   -0.0000848   -1.9540250  
N   -1.2632773   -0.0000083   -0.6828660  
C   -1.8985359   -0.0000514   -3.0477261  
C   -1.3925770    0.0004566   -4.3020547  
O   -2.1456378    0.0005414   -5.4151314  
C    0.0786240    0.0009326   -4.5545000  
O    0.4683767    0.0012591   -5.7221100  
C    1.0143171    0.0008444   -3.4159031  
H    2.1107200    0.0000633   -0.5721865  
H   -2.9622181   -0.0003268   -2.8593381  
H   -1.5042265    0.0009697   -6.1484419  
C    1.1319247   -0.0015655    2.2709268  
C    0.7969915   -0.0034943    3.5869401  
C   -0.6453339   -0.0035710    3.6542670  
C   -1.1266833   -0.0015433    2.2596025  
N    0.0000000    0.0000000    1.4700000  
C   -2.4346130   -0.0013964    1.8976294  
C   -3.4350110   -0.0031408    2.9520183  
O   -4.6384611   -0.0030974    2.7283916  
C   -2.9478959   -0.0050506    4.4361073  
O   -3.7809380   -0.0062218    5.3323774  
C   -1.5113823   -0.0053090    4.7012123  
H    1.4821238   -0.0045407    4.4159191  
H   -2.7664565   -0.0000232    0.8686553  
H   -1.1823530   -0.0068408    5.7314848  
H    2.1104316   -0.0009391    1.8188057  
