62

C    0.0000000    0.0000000    0.0000000  
C    1.0521671   -0.0011900   -0.8862338  
C    0.4917227   -0.0011956   -2.1979130  
C   -0.9187416    0.0003147   -2.0478688  
N   -1.1833166   -0.0009412   -0.7007918  
C   -1.7951691    0.0010348   -3.1372097  
C   -1.2375822    0.0005225   -4.4010429  
O   -2.0474193    0.0015357   -5.4997592  
C    0.1673600   -0.0013569   -4.5711965  
O    0.5673547   -0.0020690   -5.8915550  
C    1.0325783   -0.0023412   -3.4969888  
H    2.0953063   -0.0030647   -0.6200555  
H   -2.0989776    0.0102369   -0.2891834  
H   -2.8710921    0.0020417   -3.0295528  
H   -1.4634857    0.0006492   -6.2693603  
H    1.5290734   -0.0033155   -5.9180037  
C    4.1863646   -2.1477870   -1.3902869  
C    5.2964380   -1.7419933   -2.0495650  
C    4.8117036   -0.8307027   -3.0747877  
C    3.3454852   -0.8022262   -2.8851123  
N    2.9730544   -1.5722877   -1.8990645  
C    2.4861715   -0.0045380   -3.7159914  
C    3.0653213    0.7315528   -4.6917426  
O    2.3851023    1.5211674   -5.5401837  
C    4.5422563    0.7242591   -4.9080059  
O    5.0006616    1.4185849   -5.8151978  
C    5.4023468   -0.1022662   -4.0425438  
H    6.3180558   -2.0259185   -1.8631254  
H    3.0670354    1.9123003   -6.1156263  
H    6.4672357   -0.0798975   -4.2316006  
C    5.1722084   -3.7138465    0.3457814  
C    4.7590571   -4.5094845    1.3657527  
C    3.3221328   -4.3880993    1.4388896  
C    2.9291906   -3.4498185    0.3702380  
N    4.0967359   -3.0774171   -0.2550976  
C    1.6519722   -3.0720555    0.1100206  
C    0.5937153   -3.6264234    0.9378509  
O   -0.5881580   -3.3481116    0.7828689  
C    0.9869439   -4.6218217    2.0755494  
O    0.1046356   -5.0947879    2.7791797  
C    2.3977935   -4.9530335    2.2590017  
H    5.3890244   -5.1124474    1.9951897  
H    1.3851893   -2.3825412   -0.6788435  
H    2.6616861   -5.6431702    3.0488093  
H    6.1718889   -3.5387209   -0.0173435  
C    0.0000000    0.0000000    1.4700000  
C    1.0521667    0.0011902    2.3562342  
C    0.4917218    0.0011957    3.6679131  
C   -0.9187428   -0.0003148    3.5178682  
N   -1.1833171    0.0009411    2.1707914  
C   -1.7951701   -0.0010350    4.6072090  
C   -1.2375837   -0.0005224    5.8710424  
O   -2.0474215   -0.0015360    6.9697579  
C    0.1673580    0.0013566    6.0411963  
O    0.5673524    0.0020687    7.3615553  
C    1.0325770    0.0023412    4.9669890  
H    2.0953057    0.0030649    2.0900562  
H   -2.0989778   -0.0102372    1.7591824  
H   -2.8710934   -0.0020419    4.4995513  
H   -1.4634884   -0.0006497    7.7393593  
H    1.5290710    0.0033153    7.3880045  
H    2.1042148    0.0039609    5.1284455  
