62

C    3.3003538    0.0005277   -1.4738997  
C    2.5232800    0.0003498   -2.6090755  
C    1.1623189   -0.0001317   -2.1820104  
C    1.1711885    0.0000584   -0.7636143  
N    2.4852296   -0.0014919   -0.3662366  
C    0.0000000    0.0000000    0.0000000  
C   -1.2020388    0.0000520   -0.6806474  
O   -2.3759248    0.0003495    0.0157753  
C   -1.2314671   -0.0005110   -2.0955505  
O   -2.5054396   -0.0008035   -2.6250170  
C   -0.0764528   -0.0007270   -2.8495192  
H    2.8919941   -0.0005617   -3.6205310  
H    2.8036262    0.0088181    0.5858654  
H   -3.0835648    0.0000349   -0.6418809  
H   -2.4360068   -0.0011524   -3.5845911  
H   -0.1304109   -0.0013418   -3.9319085  
C    6.5323583    0.0028966   -4.4466895  
C    7.6043827    0.0022111   -3.6131201  
C    7.0889160    0.0013272   -2.2643690  
C    5.6181649    0.0015263   -2.3813358  
N    5.3453965    0.0028891   -3.7298484  
C    4.7630498    0.0004756   -1.3275417  
C    5.3290147   -0.0007198    0.0111956  
O    4.6424950   -0.0016577    1.0246014  
C    6.8840251   -0.0006990    0.1586630  
O    7.3720527   -0.0013931    1.2807547  
C    7.7018213    0.0002121   -1.0517341  
H    8.6382616    0.0024954   -3.9092761  
H    6.5095784    0.0036233   -5.5243582  
H    4.4257310    0.0017850   -4.1314211  
C   10.0497712    0.7269058   -1.6821409  
C   11.3327021    0.5096859   -1.2935808  
C   11.2864572   -0.4184099   -0.1884405  
C    9.8612037   -0.7263146    0.0365885  
N    9.1640947   -0.0000558   -0.9012156  
C    9.3984513   -1.5676877    0.9955755  
C   10.3688818   -2.2128937    1.8642002  
O   10.0519573   -2.9871467    2.7577282  
C   11.8835343   -1.9012054    1.6440126  
O   12.7097765   -2.4382633    2.3693764  
C   12.2600295   -0.9771662    0.5771224  
H   12.2111751    0.9495634   -1.7310800  
H    8.3487460   -1.7799646    1.1437848  
H   13.3108163   -0.7668216    0.4310873  
H    9.6767984    1.3570611   -2.4731432  
C    2.5285572    2.1210227    2.9438989  
C    1.9331703    1.6216660    4.0790748  
C    0.8903039    0.7472258    3.6520102  
C    0.8972198    0.7527806    2.2336141  
N    1.9028376    1.5986179    1.8362361  
C    0.0000000    0.0000000    1.4700000  
C   -0.9207814   -0.7726952    2.1506477  
O   -1.8198395   -1.5274828    1.4542253  
C   -0.9436862   -0.7911793    3.5655508  
O   -1.9197945   -1.6098497    4.0950179  
C   -0.0590329   -0.0485852    4.3195194  
H    2.2150357    1.8593692    5.0905303  
H    2.1533708    1.7953814    0.8841339  
H   -2.3621246   -1.9821033    2.1118817  
H   -1.8668290   -1.5649508    5.0545920  
H   -0.1007624   -0.0827977    5.4019087  
H    3.3491200    2.8096064    2.8367138  
