60

C    3.6797796   -3.0453527   -5.7985601  
C    4.4193411   -3.6909872   -6.7622367  
C    5.3889741   -4.4846779   -6.0807181  
C    5.1908600   -4.2813836   -4.6909883  
N    4.1467430   -3.4005500   -4.5547238  
C    5.9716367   -4.9094160   -3.7159229  
C    6.9704072   -5.7583673   -4.1517138  
O    7.7620535   -6.3977385   -3.2420347  
C    7.1838029   -5.9737840   -5.5340578  
O    8.2166840   -6.8465006   -5.8076702  
C    6.4141060   -5.3543408   -6.4965468  
H    4.2781263   -3.6001250   -7.8256253  
H    3.7714636   -3.0759164   -3.6819356  
H    5.8258020   -4.7585672   -2.6551780  
H    8.3849078   -6.9330995   -3.7506673  
H    8.2939348   -6.9365500   -6.7624095  
H    6.6011973   -5.5387151   -7.5479650  
C    2.5563875   -2.1074455   -5.9371939  
C    1.9637234   -1.6426512   -7.0671454  
C    0.9098256   -0.7472301   -6.6519886  
C    0.9372947   -0.7283014   -5.1769702  
N    1.9574929   -1.5736536   -4.8062070  
C    0.0950446    0.0004351   -4.4015596  
C   -0.9054234    0.8207086   -5.0639420  
O   -1.7097172    1.5127953   -4.4536732  
C   -0.9528383    0.8157264   -6.6252016  
O   -1.7910247    1.5021495   -7.1939966  
C    0.0078414   -0.0105930   -7.3519361  
H    2.2338689   -1.8980692   -8.0763022  
H   -0.0315010   -0.0083085   -8.4327557  
H    2.2269416   -1.7707466   -3.8598459  
C    3.3321173    0.0004713   -1.3379338  
C    2.6974181    0.0000116   -2.5332314  
C    1.2800438   -0.0002119   -2.2052841  
C    1.2395034    0.0000643   -0.7271299  
N    2.4394062    0.0005460   -0.2131038  
C    0.0000000    0.0000000    0.0000000  
C   -1.1468702    0.0000634   -0.7169543  
O   -2.3742203    0.0000074   -0.1695487  
C   -1.1388770    0.0001607   -2.2096355  
O   -2.2206234    0.0000905   -2.7970411  
C    0.1454522    0.0001815   -2.9324241  
H    3.1367984   -0.0000653   -3.5160950  
H   -2.9844346    0.0001026   -0.9290167  
H    4.3940038    0.0007618   -1.1498640  
C    0.0000000    0.0000000    1.4700000  
C    1.0662921    0.0000102    2.3034270  
C    0.4961870   -0.0000064    3.6418889  
C   -0.9663858    0.0000850    3.4240247  
N   -1.2632773    0.0000084    2.1528658  
C   -1.8985362    0.0000517    4.5177257  
C   -1.3925775   -0.0004564    5.7720543  
O   -2.1456383   -0.0005410    6.8851312  
C    0.0786232   -0.0009323    6.0245000  
O    0.4683759   -0.0012588    7.1921102  
C    1.0143166   -0.0008442    4.8859032  
H    2.1107198   -0.0000632    2.0421868  
H   -2.9622183    0.0003270    4.3293377  
H   -1.5042274   -0.0009692    7.6184419  
H    2.0724152   -0.0013148    5.1109744  
