64

C    1.2378925   -1.0660627   -7.7131804  
C    2.2875926   -1.9521049   -7.7875161  
C    2.5197244   -2.2074215   -9.1715430  
C    1.5731972   -1.4426429   -9.9003268  
N    0.8092797   -0.7629654   -8.9843096  
C    1.5097693   -1.4494363  -11.2970085  
C    2.4186049   -2.2424855  -11.9702608  
O    2.4011141   -2.2860388  -13.3343758  
C    3.3703704   -3.0129887  -11.2608360  
O    4.2057413   -3.7507325  -12.0739978  
C    3.4333454   -3.0069817   -9.8829669  
H    2.8197416   -2.3646246   -6.9474939  
H    0.0619050   -0.1306511   -9.2070001  
H    0.7906683   -0.8689331  -11.8583572  
H    3.1068101   -2.8911213  -13.5973095  
H    4.8173193   -4.2414507  -11.5165286  
H    4.1732531   -3.6077395   -9.3671140  
C    0.9246155   -0.7181122   -5.2309988  
C    0.0950446    0.0004351   -4.4015596  
C   -0.8009650    0.7292744   -5.2385542  
C   -0.4676168    0.4126610   -6.5804038  
N    0.5854648   -0.4671111   -6.5399388  
C   -1.1476011    0.9527177   -7.6761910  
C   -2.1831566    1.8281098   -7.4125793  
O   -2.8808312    2.3842615   -8.4455168  
C   -2.5304872    2.1566625   -6.0805770  
O   -3.5835491    3.0426139   -5.9831355  
C   -1.8599253    1.6244710   -4.9990750  
H   -0.8983257    0.7155466   -8.7012824  
H   -3.5494779    2.9562300   -8.0467325  
H   -3.7537872    3.2114094   -5.0514002  
H   -2.1484976    1.8949484   -3.9900921  
H    1.7323258   -1.3886940   -4.9924969  
C    3.3321173    0.0004713   -1.3379338  
C    2.6974181    0.0000116   -2.5332314  
C    1.2800438   -0.0002119   -2.2052841  
C    1.2395034    0.0000643   -0.7271299  
N    2.4394062    0.0005460   -0.2131038  
C    0.0000000    0.0000000    0.0000000  
C   -1.1468702    0.0000634   -0.7169543  
O   -2.3742203    0.0000074   -0.1695487  
C   -1.1388770    0.0001607   -2.2096355  
O   -2.2206234    0.0000905   -2.7970411  
C    0.1454522    0.0001815   -2.9324241  
H    3.1367984   -0.0000653   -3.5160950  
H   -2.9844346    0.0001026   -0.9290167  
H    4.3940038    0.0007618   -1.1498640  
C    0.8676693    0.7151171    2.2619005  
C    0.5875920    0.4624972    3.5848544  
C   -0.5048400   -0.4542819    3.6114698  
C   -0.8517165   -0.7276451    2.2635546  
N    0.0000000    0.0000000    1.4700000  
C   -1.8902865   -1.5946756    1.9108239  
C   -2.5912627   -2.1969500    2.9375057  
O   -3.6148162   -3.0527051    2.6493466  
C   -2.2603868   -1.9365747    4.2886322  
O   -3.0513550   -2.6123276    5.1947621  
C   -1.2361111   -1.0811317    4.6373480  
H    1.1060808    0.8876438    4.4271209  
H   -2.1597133   -1.8070987    0.8854031  
H   -3.9636755   -3.3565188    3.4974381  
H   -2.7621927   -2.3810384    6.0827341  
H   -1.0058879   -0.9010589    5.6809233  
H    1.6167816    1.3499334    1.8205408  
