64

C   -3.9681781    0.7212692   -2.0574928  
C   -3.2578657    0.0024038   -2.9908501  
C   -4.2079312   -0.7249070   -3.7673780  
C   -5.4928337   -0.4070758   -3.2575406  
N   -5.3109899    0.4719187   -2.2188306  
C   -6.6702840   -0.9454748   -3.7852959  
C   -6.5484325   -1.8204302   -4.8472676  
O   -7.6659791   -2.3749797   -5.4009617  
C   -5.2751705   -2.1501798   -5.3696517  
O   -5.3203493   -3.0355026   -6.4267734  
C   -4.1131455   -1.6196243   -4.8493302  
H   -6.0450863    0.8815467   -1.6699334  
H   -7.6525968   -0.7073695   -3.4011482  
H   -7.3607867   -2.9469131   -6.1172116  
H   -4.4199147   -3.2051863   -6.7200807  
H   -3.1520870   -1.8909908   -5.2702876  
H   -3.6231050    1.3910304   -1.2885303  
C    0.0000000    0.0000000    0.0000000  
C    1.0521666   -0.0011902   -0.8862342  
C    0.4917215   -0.0011958   -2.1979130  
C   -0.9187431    0.0003147   -2.0478680  
N   -1.1833172   -0.0009412   -0.7007911  
C   -1.7951703    0.0010349   -3.1372087  
C   -1.2375842    0.0005222   -4.4010418  
O   -2.0474221    0.0015357   -5.4997576  
C    0.1673575   -0.0013569   -4.5711960  
O    0.5673518   -0.0020691   -5.8915554  
C    1.0325767   -0.0023415   -3.4969891  
H    2.0953058   -0.0030650   -0.6200564  
H   -2.0989777    0.0102372   -0.2891820  
H   -1.4634890    0.0006494   -6.2693593  
H    1.5290704   -0.0033156   -5.9180047  
C    3.4023819   -0.7104414   -3.0044226  
C    2.4861699   -0.0045385   -3.7159923  
C    3.2127734    0.7364348   -4.7199052  
C    4.6376150    0.4019321   -4.5335603  
N    4.6849703   -0.4791379   -3.4779266  
C    5.6494171    0.8998893   -5.2885437  
C    5.3126247    1.8273487   -6.3557484  
O    6.1523075    2.3305054   -7.0906412  
C    3.8100690    2.1959017   -6.5709216  
O    3.5144062    2.9759429   -7.4661199  
C    2.8092773    1.5943911   -5.6931672  
H    6.6880023    0.6414818   -5.1353249  
H    1.7711209    1.8546034   -5.8488738  
H    3.2485434   -1.3800076   -2.1738178  
H    5.5220882   -0.8922341   -3.1096439  
C    1.1243417   -0.0099156    2.2619005  
C    0.7474090   -0.0234034    3.5848544  
C   -0.6787367   -0.0234952    3.6114698  
C   -1.1201739   -0.0099357    2.2635546  
N    0.0000000    0.0000000    1.4700000  
C   -2.4730812   -0.0065396    1.9108239  
C   -3.3971947   -0.0173298    2.9375057  
O   -4.7313508   -0.0149487    2.6493466  
C   -2.9763630   -0.0305536    4.2886322  
O   -4.0166453   -0.0397858    5.1947621  
C   -1.6418541   -0.0336380    4.6373480  
H    1.4178735   -0.0310004    4.4271209  
H   -2.8160170    0.0039190    0.8854031  
H   -5.1938803   -0.0234410    3.4974381  
H   -3.6464643   -0.0484781    6.0827341  
H   -1.3497443   -0.0436789    5.6809233  
H    2.1062470   -0.0051382    1.8205408  
