66

C   -0.2086889   -0.5191828   -9.6382415  
C    0.4470097   -0.4356772  -10.8447042  
C    0.3627468    0.9228444  -11.2712243  
C   -0.3617875    1.6273863  -10.2759359  
N   -0.6953594    0.7217275   -9.2996523  
C   -0.6361303    2.9953685  -10.3662122  
C   -0.1703175    3.6643676  -11.4813957  
O   -0.4098021    5.0009635  -11.6198590  
C    0.5541408    2.9787888  -12.4853685  
O    0.9495971    3.7840840  -13.5334407  
C    0.8249207    1.6291915  -12.3970978  
H    0.9260614   -1.2535629  -11.3551611  
H   -1.1879275    3.5381211   -9.6111346  
H   -0.0047445    5.2657531  -12.4559685  
H    1.4321396    3.2439793  -14.1667221  
H    1.3820662    1.1311312  -13.1819563  
H   -0.3689560   -1.3660226   -8.9931543  
C   -0.2041197   -0.6662877   -5.1294033  
C   -1.2456329    0.0471727   -4.5828766  
C   -1.8465396    0.7861438   -5.6446833  
C   -1.1230379    0.4806687   -6.8258505  
N   -0.1315494   -0.4025054   -6.4771797  
C   -1.4397848    1.0325676   -8.0707873  
C   -2.5065213    1.9085691   -8.1243733  
O   -2.8591359    2.4760474   -9.3146021  
C   -3.2403723    2.2261124   -6.9567065  
O   -4.2735451    3.1142222   -7.1738689  
C   -2.9282866    1.6822348   -5.7281602  
H    0.5354761   -0.8056371   -7.1100647  
H   -3.6170368    3.0463484   -9.1312772  
H   -4.7175626    3.2751067   -6.3356754  
H   -3.5084512    1.9444460   -4.8511582  
H    0.4936112   -1.3413496   -4.6641916  
C    1.1243410    0.0099923   -0.7919003  
C    0.7474076    0.0234544   -2.1148543  
C   -0.6787381    0.0234490   -2.1414700  
C   -1.1201745    0.0098592   -0.7935546  
N    0.0000000    0.0000000    0.0000000  
C   -2.4730816    0.0063709   -0.4408240  
C   -3.3971958    0.0170982   -1.4675058  
O   -4.7313517    0.0146259   -1.1793471  
C   -2.9763648    0.0303504   -2.8186324  
O   -4.0166480    0.0395118   -3.7247624  
C   -1.6418562    0.0335260   -3.1673481  
H    1.4178717    0.0310972   -2.9571209  
H   -2.8160166   -0.0041111    0.5845966  
H   -5.1938818    0.0230867   -2.0274384  
H   -3.6464675    0.0482293   -4.6127343  
H    2.1062467    0.0052819   -0.3505407  
C    0.0000000    0.0000000    1.4700000  
C    1.0521667    0.0011902    2.3562342  
C    0.4917218    0.0011957    3.6679131  
C   -0.9187428   -0.0003148    3.5178682  
N   -1.1833171    0.0009411    2.1707914  
C   -1.7951701   -0.0010350    4.6072090  
C   -1.2375837   -0.0005224    5.8710424  
O   -2.0474215   -0.0015360    6.9697579  
C    0.1673580    0.0013566    6.0411963  
O    0.5673524    0.0020687    7.3615553  
C    1.0325770    0.0023412    4.9669890  
H    2.0953057    0.0030649    2.0900562  
H   -2.0989778   -0.0102372    1.7591824  
H   -2.8710934   -0.0020419    4.4995513  
H   -1.4634884   -0.0006497    7.7393593  
H    1.5290710    0.0033153    7.3880045  
H    2.1042148    0.0039609    5.1284455  
