60

C   -7.0223136    4.2421567    2.6446698  
C   -6.0249965    4.9056176    3.3211641  
C   -4.7893836    4.5274365    2.7171446  
C   -5.0981941    3.6238425    1.6682974  
N   -6.4624018    3.4711315    1.6530213  
C   -4.1187238    3.0460985    0.8548852  
C   -2.8035772    3.3869681    1.1046363  
O   -1.8072873    2.8521317    0.3401950  
C   -2.4754473    4.2864550    2.1467835  
O   -1.1221820    4.5250849    2.2695517  
C   -3.4411787    4.8565849    2.9498034  
H   -6.1701147    5.5784465    4.1489542  
H   -6.9748861    2.8966157    1.0086047  
H   -0.9786582    3.2163843    0.6777724  
H   -0.9867419    5.1420635    2.9952220  
H   -3.1595106    5.5421058    3.7404997  
H   -8.0886346    4.2568187    2.7919850  
C   -4.4297989    2.1087668   -0.2339402  
C   -5.6380128    1.6447699   -0.6450376  
C   -5.3911879    0.7496341   -1.7507698  
C   -3.9296547    0.7300037   -1.9515860  
N   -3.4052355    1.5747187   -1.0006228  
C   -3.2941076    0.0012878   -2.9038237  
C   -4.1035800   -0.8182215   -3.7902177  
O   -3.6253056   -1.5102279   -4.6794206  
C   -5.6534083   -0.8124880   -3.5957852  
O   -6.3452678   -1.4982644   -4.3362598  
C   -6.2225102    0.0137342   -2.5340264  
H   -6.5931621    1.9005366   -0.2220868  
H   -7.2964266    0.0119726   -2.4058679  
H   -2.4284984    1.7712471   -0.8805870  
C    0.0000000    0.0000000    0.0000000  
C    1.0541688   -0.0001723   -0.8560392  
C    0.5103136   -0.0000455   -2.1935956  
C   -0.9576373    0.0002461   -2.0455730  
N   -1.2018460   -0.0001389   -0.6915968  
C   -1.8348314    0.0008319   -3.0810607  
C   -1.2972851    0.0009739   -4.4314603  
O   -2.0050676    0.0014268   -5.4301316  
C    0.2542619    0.0004184   -4.6117572  
O    0.7184666    0.0002257   -5.7439122  
C    1.0974551    0.0000873   -3.4189129  
H    2.0940752   -0.0005484   -0.5817983  
H    2.1707276   -0.0000912   -3.5523673  
H   -2.1128194    0.0014915   -0.2706789  
C    1.1319247   -0.0015655    2.2709268  
C    0.7969915   -0.0034943    3.5869401  
C   -0.6453339   -0.0035710    3.6542670  
C   -1.1266833   -0.0015433    2.2596025  
N    0.0000000    0.0000000    1.4700000  
C   -2.4346130   -0.0013964    1.8976294  
C   -3.4350110   -0.0031408    2.9520183  
O   -4.6384611   -0.0030974    2.7283916  
C   -2.9478959   -0.0050506    4.4361073  
O   -3.7809380   -0.0062218    5.3323774  
C   -1.5113823   -0.0053090    4.7012123  
H    1.4821238   -0.0045407    4.4159191  
H   -2.7664565   -0.0000232    0.8686553  
H   -1.1823530   -0.0068408    5.7314848  
H    2.1104316   -0.0009391    1.8188057  
