62

C   -3.2578652    0.0024039   -2.9908507  
C   -4.0349370    0.0043587   -1.8556754  
C   -5.3958972    0.0056179   -2.2827405  
C   -5.3870307    0.0040490   -3.7011356  
N   -4.0729884    0.0040658   -4.0985152  
C   -6.5582193    0.0043937   -4.4647492  
C   -7.7602567    0.0060510   -3.7841021  
O   -8.9341432    0.0061072   -4.4805238  
C   -7.7896818    0.0080075   -2.3692002  
O   -9.0636546    0.0099261   -1.8397339  
C   -6.6346677    0.0079419   -1.6152323  
H   -3.6662213    0.0059254   -0.8442213  
H   -3.7546020   -0.0074429   -5.0506068  
H   -6.5582194    0.0033485   -5.5460456  
H   -9.6417813    0.0076765   -3.8228683  
H   -8.9942189    0.0111418   -0.8801607  
H   -6.6886244    0.0096502   -0.5328440  
C    0.0000000    0.0000000    0.0000000  
C    1.0521668   -0.0011902   -0.8862340  
C    0.4917219   -0.0011956   -2.1979129  
C   -0.9187425    0.0003149   -2.0478680  
N   -1.1833171   -0.0009411   -0.7007913  
C   -1.7951698    0.0010351   -3.1372090  
C   -1.2375834    0.0005226   -4.4010421  
O   -2.0474212    0.0015361   -5.4997584  
C    0.1673583   -0.0013565   -4.5711959  
O    0.5673528   -0.0020685   -5.8915549  
C    1.0325773   -0.0023411   -3.4969889  
H    2.0953059   -0.0030649   -0.6200560  
H   -2.0989777    0.0102372   -0.2891824  
H   -1.4634882    0.0006499   -6.2693595  
H    1.5290714   -0.0033151   -5.9180044  
C    2.4861705   -0.0045381   -3.7159918  
C    3.4897069   -0.0059404   -2.8011217  
C    4.7313103   -0.0078381   -3.5381784  
C    4.3662426   -0.0073941   -4.9676946  
N    2.9909952   -0.0057670   -5.0074600  
C    5.2594875   -0.0083968   -5.9893676  
C    6.6748999   -0.0102480   -5.6590047  
O    7.5569795   -0.0113207   -6.5076724  
C    7.0843359   -0.0110003   -4.1516340  
O    8.2730124   -0.0128635   -3.8612799  
C    6.0304249   -0.0095093   -3.1401394  
H    3.3734533   -0.0058581   -1.7319637  
H    4.9706902   -0.0079170   -7.0312436  
H    6.3222875   -0.0098370   -2.0987266  
H    2.4390590   -0.0035500   -5.8455584  
C    1.0965515   -0.0001358    2.2710304  
C    0.0000000    0.0000000    1.4700000  
C   -1.1546562   -0.0001469    2.3369512  
C   -0.6372014   -0.0003519    3.7186280  
N    0.7342871   -0.0007337    3.6095011  
C   -1.4147739   -0.0001353    4.8308716  
C   -2.8576048    0.0001048    4.6554461  
O   -3.6427778    0.0002493    5.5944904  
C   -3.4275839    0.0000726    3.2011665  
O   -4.6406829   -0.0000333    3.0410059  
C   -2.4891866    0.0001091    2.0816745  
H   -1.0150448   -0.0001615    5.8354244  
H   -2.8919121    0.0002919    1.0779135  
H    2.1388271   -0.0000662    1.9961646  
H    1.3735872    0.0006099    4.3830260  
