60

C   11.0222442    2.1241907   -2.1902188  
C   12.0089143    1.6253691   -1.3716065  
C   11.3745888    0.7507946   -0.4402897  
C    9.9886695    0.7557196   -0.7421633  
N    9.8088559    1.6013275   -1.8085745  
C    9.0554111    0.0026475   -0.0233452  
C    9.5299142   -0.7696967    1.0190117  
O    8.6619960   -1.5247455    1.7536079  
C   10.9090977   -0.7875516    1.3357998  
O   11.2242370   -1.6059349    2.4008247  
C   11.8303106   -0.0446698    0.6272675  
H   13.0567792    1.8635065   -1.4368971  
H    8.9296319    1.7976550   -2.2517456  
H    9.1926255   -1.9790455    2.4209218  
H   12.1738122   -1.5606131    2.5486588  
H   12.8803460   -0.0783996    0.8932885  
H   11.0878374    2.8126825   -3.0152237  
C    7.0021977    0.0016964   -3.8667569  
C    5.7010038    0.0007394   -3.4946381  
C    5.7268785    0.0007367   -2.0400488  
C    7.1642508    0.0016711   -1.6928540  
N    7.9166770    0.0023173   -2.7595516  
C    7.6175797    0.0019951   -0.3291902  
C    6.6776994    0.0018010    0.6434145  
O    6.9577654    0.0020529    1.9577977  
C    5.2193467    0.0012353    0.3250321  
O    4.4197297    0.0009616    1.2608917  
C    4.7795901    0.0008674   -1.0815733  
H    4.8310653    0.0002032   -4.1288957  
H    6.0879580    0.0018433    2.3966452  
H    7.4070859    0.0020142   -4.8662762  
C    3.3321168    0.0004716   -1.3379341  
C    2.6974177    0.0000118   -2.5332316  
C    1.2800432   -0.0002116   -2.2052842  
C    1.2395033    0.0000644   -0.7271298  
N    2.4394059    0.0005460   -0.2131041  
C    0.0000000    0.0000000    0.0000000  
C   -1.1468704    0.0000635   -0.7169542  
O   -2.3742206    0.0000074   -0.1695488  
C   -1.1388774    0.0001608   -2.2096352  
O   -2.2206238    0.0000906   -2.7970409  
C    0.1454514    0.0001818   -2.9324241  
H    3.1367978   -0.0000649   -3.5160956  
H   -2.9844350    0.0001027   -0.9290164  
H    0.1083567    0.0003684   -4.0135594  
C    2.4951002    2.0940188    2.9809380  
C    1.9440701    1.6314916    1.8291961  
C    0.8759964    0.7350050    2.2038498  
C    0.8497377    0.7130254    3.6788474  
N    1.8560616    1.5571714    4.0882609  
C   -0.0205033   -0.0168748    4.4215661  
C   -0.9962600   -0.8356168    3.7214979  
O   -1.8224391   -1.5286685    4.3006425  
C   -0.9864710   -0.8277881    2.1595606  
O   -1.8030528   -1.5133726    1.5592035  
C    0.0000000    0.0000000    1.4700000  
H    2.2509283    1.8888011    0.8310761  
H   -0.0229599   -0.0187323    5.5027230  
H    3.3143982    2.7817323    3.1139444  
H    2.0889452    1.7545833    5.0442112  
