60

C    3.2884234   -3.0467755   -5.7908117  
C    4.0279888   -3.6927332   -6.7542687  
C    4.9976264   -4.4861865   -6.0724802  
C    4.7995110   -4.2824209   -4.6828196  
N    3.7553888   -3.4015472   -4.5468546  
C    5.5802913   -4.9101172   -3.7075407  
C    6.5790672   -5.7592110   -4.1430429  
O    7.3707171   -6.3982684   -3.2331464  
C    6.7924642   -5.9750964   -5.5253135  
O    7.8253505   -6.8478999   -5.7986291  
C    6.0227637   -5.3559850   -6.4880131  
H    3.8867735   -3.6022334   -7.8176881  
H    3.3801074   -3.0766191   -3.6741769  
H    5.4344556   -4.7589087   -2.6468471  
H    7.9935746   -6.9337986   -3.7415969  
H    7.9026018   -6.9382735   -6.7533378  
H    6.2098562   -5.5407157   -7.5393685  
C    2.1650260   -2.1089222   -5.9297644  
C    1.5723593   -1.6445155   -7.0598740  
C    0.5184562   -0.7489596   -6.6450216  
C    0.5459251   -0.7295293   -5.1700098  
N    1.5661282   -1.5747494   -4.7989591  
C   -0.2963293   -0.0005341   -4.3948471  
C   -1.2968021    0.8195083   -5.0575083  
O   -2.1011000    1.5117977   -4.4474750  
C   -1.3442169    0.8139950   -6.6187661  
O   -2.1824072    1.5002198   -7.1877946  
C   -0.3835323   -0.0125658   -7.3452196  
H    1.8425064   -1.9002750   -8.0689433  
H   -0.4228746   -0.0106490   -8.4260399  
H    1.8355779   -1.7715191   -3.8525310  
C    3.1301146   -0.0010313   -1.7028256  
C    2.5367765   -0.0002766   -0.4864669  
C    1.1089901    0.0001027   -0.7656184  
C    1.0177865   -0.0004150   -2.2415133  
N    2.1993571   -0.0011612   -2.7963824  
C   -0.2459219   -0.0002879   -2.9257116  
C   -1.3675326   -0.0000606   -2.1698520  
O   -2.6129318    0.0000865   -2.6748483  
C   -1.3083588    0.0000910   -0.6783229  
O   -2.3693264    0.0004206   -0.0541685  
C    0.0000000    0.0000000    0.0000000  
H    3.0096016   -0.0001007    0.4807518  
H   -3.1967444    0.0002093   -1.8949026  
H    4.1849275   -0.0015114   -1.9271979  
C    0.8400945    0.7047457    2.2710304  
C    0.0000000    0.0000000    1.4700000  
C   -0.8844236   -0.7423113    2.3369512  
C   -0.4878984   -0.4098547    3.7186280  
N    0.5629682    0.4714286    3.6095011  
C   -1.0836927   -0.9095027    4.8308716  
C   -2.1891196   -1.8367527    4.6554461  
O   -2.7906899   -2.3413415    5.5944904  
C   -2.6257283   -2.2031529    3.2011665  
O   -3.5549479   -2.9829990    3.0410059  
C   -1.9068976   -1.5999348    2.0816745  
H   -0.7774656   -0.6525820    5.8354244  
H   -2.2155208   -1.8586617    1.0779135  
H    1.6384792    1.3747609    1.9961646  
H    1.0518368    0.8833920    4.3830260  
