60

C    7.1590645   -5.3181880   -7.5218986  
C    7.6865990   -4.7965164   -8.6803600  
C    7.3767954   -3.4041988   -8.6888835  
C    6.6530988   -3.1315542   -7.4998268  
N    6.5369264   -4.3157732   -6.8151751  
C    6.1844892   -1.8548050   -7.1756277  
C    6.4515706   -0.8346465   -8.0678846  
O    6.0174031    0.4314464   -7.8004494  
C    7.1717844   -1.0869154   -9.2597191  
O    7.3565297    0.0322645  -10.0449893  
C    7.6341475   -2.3462633   -9.5803246  
H    8.2271504   -5.3514677   -9.4279078  
H    6.0808233   -4.4310230   -5.9282320  
H    6.3055814    0.9810166   -8.5408492  
H    7.8509947   -0.2247130  -10.8292530  
H    8.1828388   -2.5090653  -10.5006031  
H    7.1761204   -6.3262809   -7.1445191  
C    5.7052418   -2.0986834   -4.6958678  
C    4.8302131   -1.6343311   -3.7670103  
C    3.9272651   -0.7382854   -4.4501079  
C    4.3509919   -0.7185537   -5.8632097  
N    5.4336785   -1.5634478   -5.9458740  
C    3.7483766    0.0103194   -6.8365048  
C    2.6063696    0.8302496   -6.4676277  
O    1.9959435    1.5225183   -7.2716453  
C    2.1405131    0.8248035   -4.9767381  
O    1.1803932    1.5114043   -4.6542322  
C    2.8699641   -0.0020530   -4.0185824  
H    4.8187253   -1.8901546   -2.7224834  
H    4.0749502    0.0105271   -7.8671644  
H    6.5257691   -2.7867004   -4.5723460  
C    3.2573670   -0.0002921   -1.5109382  
C    2.5379468   -0.0001711   -0.3591962  
C    1.1435043    0.0000330   -0.7338498  
C    1.1092608   -0.0000085   -2.2088474  
N    2.4227562    0.0001906   -2.6182610  
C   -0.0265533   -0.0002525   -2.9515663  
C   -1.3003033   -0.0002641   -2.2514979  
O   -2.3786785   -0.0004132   -2.8306425  
C   -1.2877724    0.0000310   -0.6895608  
O   -2.3539956    0.0003306   -0.0892035  
C    0.0000000    0.0000000    0.0000000  
H    2.9384091   -0.0000370    0.6389240  
H   -0.0296290   -0.0004088   -4.0327231  
H    4.3270394   -0.0004767   -1.6439445  
C    0.8400945    0.7047457    2.2710304  
C    0.0000000    0.0000000    1.4700000  
C   -0.8844236   -0.7423113    2.3369512  
C   -0.4878984   -0.4098547    3.7186280  
N    0.5629682    0.4714286    3.6095011  
C   -1.0836927   -0.9095027    4.8308716  
C   -2.1891196   -1.8367527    4.6554461  
O   -2.7906899   -2.3413415    5.5944904  
C   -2.6257283   -2.2031529    3.2011665  
O   -3.5549479   -2.9829990    3.0410059  
C   -1.9068976   -1.5999348    2.0816745  
H   -0.7774656   -0.6525820    5.8354244  
H   -2.2155208   -1.8586617    1.0779135  
H    1.6384792    1.3747609    1.9961646  
H    1.0518368    0.8833920    4.3830260  
