60

C   -4.3878629    2.1187252   -4.4534143  
C   -5.6104186    1.6190334   -4.8382938  
C   -5.3746296    0.7448059   -5.9404416  
C   -3.9774554    0.7508294   -6.1849688  
N   -3.4084388    1.5967296   -5.2655716  
C   -3.3846727   -0.0016373   -7.2033945  
C   -4.2174664   -0.7744946   -7.9890943  
O   -3.6911369   -1.5289903   -8.9974228  
C   -5.6140321   -0.7934451   -7.7609239  
O   -6.3078264   -1.6122242   -8.6278692  
C   -6.1995454   -0.0511611   -6.7565757  
H   -6.5559974    1.8563831   -4.3816328  
H   -2.4270717    1.7937908   -5.1876865  
H   -4.4343347   -1.9837916   -9.4146504  
H   -7.2428449   -1.5676464   -8.4057037  
H   -7.2721899   -0.0857289   -6.6058544  
H   -4.1371894    2.8072879   -3.6647430  
C   -0.0307354   -0.0004645   -4.4215603  
C    1.0331812   -0.0004858   -5.2580179  
C    0.4592705   -0.0007207   -6.5948520  
C   -1.0026765   -0.0009308   -6.3728279  
N   -1.2959505   -0.0007012   -5.1008297  
C   -1.9379347   -0.0011511   -7.4638724  
C   -1.4355466   -0.0007721   -8.7196356  
O   -2.1917708   -0.0009257   -9.8305658  
C    0.0349299   -0.0001817   -8.9762653  
O    0.4213592    0.0000164  -10.1449796  
C    0.9738587   -0.0000095   -7.8403354  
H    2.0783477   -0.0002675   -4.9997498  
H   -1.5524490   -0.0005378  -10.5656984  
H    2.0313129    0.0005373   -8.0684166  
C    3.2573669   -0.0002919   -1.5109381  
C    2.5379467   -0.0001709   -0.3591962  
C    1.1435042    0.0000332   -0.7338501  
C    1.1092607   -0.0000081   -2.2088477  
N    2.4227561    0.0001910   -2.6182614  
C   -0.0265534   -0.0002522   -2.9515663  
C   -1.3003036   -0.0002639   -2.2514981  
O   -2.3786785   -0.0004131   -2.8306428  
C   -1.2877726    0.0000312   -0.6895608  
O   -2.3539957    0.0003306   -0.0892035  
C    0.0000000    0.0000000    0.0000000  
H    2.9384091   -0.0000368    0.6389238  
H    4.3270391   -0.0004764   -1.6439447  
H    2.7280492   -0.0013405   -3.5742114  
C    2.3971438    2.0127888    3.1728260  
C    1.9431056    1.6308205    1.9564670  
C    0.8496017    0.7127664    2.2356185  
C    0.7794028    0.6545384    3.7115134  
N    1.6840587    1.4146091    4.2663826  
C   -0.1885723   -0.1578550    4.3957118  
C   -1.0476298   -0.8789867    3.6398520  
O   -2.0015663   -1.6796266    4.1448486  
C   -1.0022026   -0.8410666    2.1483229  
O   -1.8147390   -1.5232959    1.5241687  
C    0.0000000    0.0000000    1.4700000  
H    2.3054237    1.9346118    0.9892483  
H   -0.2170646   -0.1815267    5.4753125  
H   -2.4487139   -2.0549881    3.3649027  
H    3.2048689    2.6911772    3.3971983  
