60

C   -0.3367160   -0.6937742   -9.5737497  
C   -0.7115684    0.5589648   -9.1464347  
C   -0.6186020    1.4284087  -10.2733886  
C   -0.1784636    0.6432529  -11.3696245  
N   -0.0150940   -0.6398996  -10.9097905  
C    0.0240914    1.1741460  -12.6470885  
C   -0.2224484    2.5221442  -12.8211488  
O   -0.0411570    3.0920040  -14.0480989  
C   -0.6617527    3.3221309  -11.7395526  
O   -0.8631747    4.6456141  -12.0729676  
C   -0.8615295    2.7991193  -10.4789682  
H    0.2798550   -1.4223693  -11.4654237  
H    0.3595646    0.5811036  -13.4867086  
H   -0.2656884    4.0265702  -13.9509598  
H   -1.1585114    5.1156653  -11.2871999  
H   -1.1983429    3.4366393   -9.6698922  
H   -0.2719510   -1.6211633   -9.0308739  
C    0.8071496   -0.7052396   -5.2248761  
C   -0.0307352   -0.0004646   -4.4215603  
C   -0.9176980    0.7416309   -5.2860992  
C   -0.5250709    0.4090153   -6.6688504  
N    0.5261926   -0.4721444   -6.5625869  
C   -1.1240786    0.9084415   -7.7794666  
C   -2.2290975    1.8356035   -7.6010306  
O   -2.8333889    2.3399948   -8.5384326  
C   -2.6616047    2.2021689   -6.1455678  
O   -3.5904454    2.9819428   -5.9828763  
C   -1.9395302    1.5991863   -5.0280379  
H   -2.2453231    1.8580266   -4.0234404  
H    1.6063821   -1.3751332   -4.9521863  
H    1.0129011   -0.8841695   -7.3374394  
C    3.2573670   -0.0002920   -1.5109380  
C    2.5379468   -0.0001709   -0.3591961  
C    1.1435043    0.0000332   -0.7338500  
C    1.1092609   -0.0000082   -2.2088477  
N    2.4227562    0.0001909   -2.6182613  
C   -0.0265532   -0.0002522   -2.9515663  
C   -1.3003035   -0.0002639   -2.2514981  
O   -2.3786784   -0.0004131   -2.8306429  
C   -1.2877725    0.0000312   -0.6895608  
O   -2.3539958    0.0003307   -0.0892036  
C    0.0000000    0.0000000    0.0000000  
H    2.9384091   -0.0000369    0.6389239  
H    4.3270394   -0.0004765   -1.6439446  
H    2.7280494   -0.0013406   -3.5742113  
C    2.5128556    2.1077716    2.9199648  
C    1.9592212    1.6432552    4.0696553  
C    0.8915788    0.7479214    3.6910360  
C    0.8684491    0.7287414    2.2159470  
N    1.8754542    1.5738793    1.8102719  
C    0.0000000    0.0000000    1.4700000  
C   -0.9772830   -0.8200135    2.1664417  
O   -1.8021297   -1.5120829    1.5842315  
C   -0.9711318   -0.8147624    3.7284083  
O   -1.7894187   -1.5009653    4.3257297  
C    0.0140216    0.0115358    4.4216297  
H    2.2638494    1.8988021    5.0689105  
H    0.0117648    0.0094386    5.5031631  
H    3.3327358    2.7953732    2.7900019  
H    2.1123206    1.7707734    0.8551938  
