60

C    6.8064685    0.0000404   -4.0743115  
C    7.7887309    0.0006880   -3.1111770  
C    7.1308653    0.0013418   -1.8455495  
C    5.7357517    0.0007678   -2.1016435  
N    5.5736262    0.0019338   -3.4648498  
C    4.7795897    0.0008677   -1.0815734  
C    5.2401781    0.0012527    0.2207462  
O    4.3497074    0.0010154    1.2551913  
C    6.6282667    0.0022032    0.4964749  
O    6.9274451    0.0029070    1.8432619  
C    7.5721097    0.0023784   -0.5093511  
H    8.8489888    0.0017942   -3.2978485  
H    4.6916428   -0.0086999   -3.9444066  
H    4.8738769    0.0016566    2.0666778  
H    7.8844229    0.0034998    1.9422367  
H    8.6285026    0.0032962   -0.2674566  
H    6.8877375   -0.0001765   -5.1477887  
C    3.3321166    0.0004717   -1.3379342  
C    2.6974176    0.0000121   -2.5332317  
C    1.2800432   -0.0002115   -2.2052842  
C    1.2395033    0.0000645   -0.7271297  
N    2.4394059    0.0005461   -0.2131042  
C    0.0000000    0.0000000    0.0000000  
C   -1.1468704    0.0000636   -0.7169540  
O   -2.3742206    0.0000073   -0.1695488  
C   -1.1388774    0.0001610   -2.2096351  
O   -2.2206238    0.0000908   -2.7970408  
C    0.1454514    0.0001820   -2.9324241  
H    3.1367977   -0.0000646   -3.5160953  
H   -2.9844351    0.0001027   -0.9290163  
C    2.5365541   -2.0936791   -5.9975184  
C    2.0254109   -1.6312718   -4.8274815  
C    0.9452516   -0.7345680   -5.1651393  
C    0.8684328   -0.7123300   -6.6383652  
N    1.8600003   -1.5565491   -7.0821878  
C   -0.0266561    0.0178227   -7.3506836  
C   -0.9777112    0.8365834   -6.6174311  
O   -1.8231606    1.5298532   -7.1677886  
C   -0.9143692    0.8284838   -5.0567494  
O   -1.7097820    1.5140814   -4.4286288  
C    0.0950440    0.0004357   -4.4015596  
H    2.3662767   -1.8887974   -3.8405140  
H   -0.0661846    0.0198671   -8.4311208  
H    3.3507071   -2.7814868   -6.1586564  
H    2.0599372   -1.7538295   -8.0455942  
C    2.5528530    2.1414826    2.8079335  
C    2.0663498    1.7338582    4.0032312  
C    0.9804344    0.8229586    3.6752840  
C    0.9495562    0.7966882    2.1971295  
N    1.8690446    1.5676019    1.6831036  
C    0.0000000    0.0000000    1.4700000  
C   -0.8785127   -0.7372425    2.1869543  
O   -1.8187535   -1.5261249    1.6395491  
C   -0.8723269   -0.7321790    3.6796354  
O   -1.7010379   -1.4274584    4.2670412  
C    0.1115397    0.0933559    4.4024240  
H    2.4028853    2.0163452    4.9860947  
H   -2.2861435   -1.9184361    2.3990168  
H    0.0832434    0.0693689    5.4835595  
H    3.3664920    2.8238276    2.6198634  
