62

C    1.1243355    0.0105987   -0.7919006  
C    0.7473945    0.0238570   -2.1148544  
C   -0.6787509    0.0230821   -2.1414699  
C   -1.1201794    0.0092544   -0.7935549  
N    0.0000000    0.0000000    0.0000000  
C   -2.4730849    0.0050361   -0.4408239  
C   -3.3972045    0.0152643   -1.4675060  
O   -4.7313584    0.0120721   -1.1793468  
C   -2.9763813    0.0287439   -2.8186323  
O   -4.0166687    0.0373435   -3.7247617  
C   -1.6418745    0.0326391   -3.1673482  
H   -2.8160141   -0.0056308    0.5845971  
H   -5.1938933    0.0202831   -2.0274379  
H   -3.6464930    0.0462604   -4.6127340  
H   -1.3497708    0.0428573   -4.2109231  
H    2.1062432    0.0064181   -0.3505407  
C    2.8413489   -0.6900443   -3.3574580  
C    3.4610195   -0.4621977   -4.5441211  
C    2.6379327    0.4710677   -5.2765002  
C    1.4796534    0.7704252   -4.4130394  
N    1.6628762    0.0347866   -3.2649301  
C    0.4697019    1.6134185   -4.7463024  
C    0.5272240    2.2695144   -6.0419741  
O   -0.3338532    3.0460519   -6.4341940  
C    1.7445935    1.9670035   -6.9727284  
O    1.8037296    2.5132628   -8.0660556  
C    2.7713942    1.0402236   -6.5030348  
H   -0.3708369    1.8193134   -4.0982197  
H    3.6111336    0.8362795   -7.1533954  
H    3.1463371   -1.3266531   -2.5428408  
C    4.7290698   -1.0582727   -4.9886912  
C    5.5174075   -1.9335373   -4.3223464  
C    6.6348869   -2.1889843   -5.2181626  
C    6.3516981   -1.3637167   -6.4120309  
N    5.2358838   -0.6986077   -6.2832783  
C    7.2344823   -1.3374663   -7.5456485  
C    8.3496817   -2.1006546   -7.4890021  
O    9.2608641   -2.1724658   -8.4742082  
C    8.6634559   -2.9439993   -6.2980038  
O    9.6961944   -3.6136058   -6.3152939  
C    7.7421461   -2.9538715   -5.1477790  
H    5.3600822   -2.3538404   -3.3437401  
H    7.0025949   -0.7252937   -8.4049404  
H    9.9354007   -2.7927005   -8.1433580  
H    8.0054116   -3.5779563   -4.3043105  
C    0.8676693    0.7151171    2.2619005  
C    0.5875920    0.4624972    3.5848544  
C   -0.5048400   -0.4542819    3.6114698  
C   -0.8517165   -0.7276451    2.2635546  
N    0.0000000    0.0000000    1.4700000  
C   -1.8902865   -1.5946756    1.9108239  
C   -2.5912627   -2.1969500    2.9375057  
O   -3.6148162   -3.0527051    2.6493466  
C   -2.2603868   -1.9365747    4.2886322  
O   -3.0513550   -2.6123276    5.1947621  
C   -1.2361111   -1.0811317    4.6373480  
H    1.1060808    0.8876438    4.4271209  
H   -2.1597133   -1.8070987    0.8854031  
H   -3.9636755   -3.3565188    3.4974381  
H   -2.7621927   -2.3810384    6.0827341  
H   -1.0058879   -0.9010589    5.6809233  
H    1.6167816    1.3499334    1.8205408  
