62

C    7.6148296   -0.7169663   -5.0636813  
C    7.1003450    0.0002888   -6.1188200  
C    8.1834425    0.7277574   -6.6952657  
C    9.3439795    0.4116777   -5.9434859  
N    8.9630623   -0.4664696   -4.9594247  
C   10.6015299    0.9507010   -6.2312555  
C   10.6891775    1.8244907   -7.2975511  
O   11.8930455    2.3795810   -7.6224982  
C    9.5425026    2.1524885   -8.0593715  
O    9.7929950    3.0368129   -9.0882377  
C    8.3015283    1.6213161   -7.7758828  
H    9.5758686   -0.8748431   -4.2770166  
H   11.4898617    0.7139289   -5.6620384  
H   11.7334757    2.9505119   -8.3852825  
H    8.9672351    3.2053322   -9.5522697  
H    7.4412178    1.8913336   -8.3770772  
H    7.1264645   -1.3863048   -4.3763360  
C    3.2973507   -0.0000930   -3.8752373  
C    4.6090968    0.0000009   -4.2265165  
C    4.6584752   -0.0001359   -5.6695676  
C    3.2579291   -0.0002893   -6.1335296  
N    2.4824026   -0.0006539   -4.9971104  
C    2.8797130   -0.0000493   -7.4368552  
C    3.9215762    0.0001635   -8.4502935  
O    3.6829951    0.0003259   -9.6508676  
C    5.4116113    0.0000766   -7.9816782  
O    6.2974493   -0.0000527   -8.8258056  
C    5.6945668    0.0000918   -6.5485739  
H    5.4465356   -0.0000332   -3.5517502  
H    1.8466888   -0.0000377   -7.7558720  
H    1.4789639    0.0007238   -4.9846265  
C    3.3321175    0.0004715   -1.3379331  
C    2.6974186    0.0000117   -2.5332308  
C    1.2800441   -0.0002117   -2.2052838  
C    1.2395036    0.0000644   -0.7271292  
N    2.4394065    0.0005460   -0.2131033  
C    0.0000000    0.0000000    0.0000000  
C   -1.1468701    0.0000635   -0.7169542  
O   -2.3742199    0.0000073   -0.1695491  
C   -1.1388766    0.0001607   -2.2096354  
O   -2.2206227    0.0000905   -2.7970412  
C    0.1454526    0.0001817   -2.9324239  
H   -2.9844344    0.0001026   -0.9290168  
H    0.1083579    0.0003683   -4.0135594  
H    4.3940038    0.0007619   -1.1498630  
C    0.8676693    0.7151171    2.2619005  
C    0.5875920    0.4624972    3.5848544  
C   -0.5048400   -0.4542819    3.6114698  
C   -0.8517165   -0.7276451    2.2635546  
N    0.0000000    0.0000000    1.4700000  
C   -1.8902865   -1.5946756    1.9108239  
C   -2.5912627   -2.1969500    2.9375057  
O   -3.6148162   -3.0527051    2.6493466  
C   -2.2603868   -1.9365747    4.2886322  
O   -3.0513550   -2.6123276    5.1947621  
C   -1.2361111   -1.0811317    4.6373480  
H    1.1060808    0.8876438    4.4271209  
H   -2.1597133   -1.8070987    0.8854031  
H   -3.9636755   -3.3565188    3.4974381  
H   -2.7621927   -2.3810384    6.0827341  
H   -1.0058879   -0.9010589    5.6809233  
H    1.6167816    1.3499334    1.8205408  
