62

C    7.0836098   -0.0041253   -6.2530272  
C    7.6560231   -0.0061600   -5.0021052  
C    9.0698299   -0.0078537   -5.1911750  
C    9.3026295   -0.0064553   -6.5903632  
N    8.0754504   -0.0061513   -7.2057062  
C   10.5867478   -0.0072222   -7.1433835  
C   11.6553203   -0.0091343   -6.2679820  
O   12.9306551   -0.0096054   -6.7543317  
C   11.4433728   -0.0109265   -4.8687357  
O   12.6085745   -0.0131384   -4.1300579  
C   10.1768364   -0.0104444   -4.3224668  
H    7.1204527   -0.0074997   -4.0682125  
H    7.9238487    0.0053308   -8.1981102  
H   10.7708821   -0.0063091   -8.2088852  
H   13.5159658   -0.0112932   -5.9857792  
H   12.3767489   -0.0142176   -3.1963245  
H   10.0456851   -0.0120358   -3.2466998  
C    3.2973507   -0.0000930   -3.8752373  
C    4.6195925   -0.0010201   -4.2548994  
C    4.6432644   -0.0012928   -5.6810970  
C    3.2943733   -0.0002089   -6.1197519  
N    2.5030708   -0.0014508   -4.9979421  
C    2.9388352    0.0001621   -7.4719278  
C    3.9636645   -0.0002676   -8.3981588  
O    3.6727441    0.0004167   -9.7317167  
C    5.3157202   -0.0017234   -7.9801151  
O    6.2197483   -0.0024056   -9.0222655  
C    5.6672025   -0.0023633   -6.6463296  
H    5.4632736   -0.0025527   -3.5861744  
H    1.4991496    0.0094729   -4.9958713  
H    1.9126561    0.0008433   -7.8127469  
H    4.5199214   -0.0003435  -10.1959959  
H    7.1085246   -0.0033559   -8.6539187  
C    3.3321175    0.0004715   -1.3379331  
C    2.6974186    0.0000117   -2.5332308  
C    1.2800441   -0.0002117   -2.2052838  
C    1.2395036    0.0000644   -0.7271292  
N    2.4394065    0.0005460   -0.2131033  
C    0.0000000    0.0000000    0.0000000  
C   -1.1468701    0.0000635   -0.7169542  
O   -2.3742199    0.0000073   -0.1695491  
C   -1.1388766    0.0001607   -2.2096354  
O   -2.2206227    0.0000905   -2.7970412  
C    0.1454526    0.0001817   -2.9324239  
H   -2.9844344    0.0001026   -0.9290168  
H    0.1083579    0.0003683   -4.0135594  
H    4.3940038    0.0007619   -1.1498630  
C    2.4951002    2.0940188    2.9809380  
C    1.9440701    1.6314916    1.8291961  
C    0.8759964    0.7350050    2.2038498  
C    0.8497377    0.7130254    3.6788474  
N    1.8560616    1.5571714    4.0882609  
C   -0.0205033   -0.0168748    4.4215661  
C   -0.9962600   -0.8356168    3.7214979  
O   -1.8224391   -1.5286685    4.3006425  
C   -0.9864710   -0.8277881    2.1595606  
O   -1.8030528   -1.5133726    1.5592035  
C    0.0000000    0.0000000    1.4700000  
H    2.2509283    1.8888011    0.8310761  
H   -0.0229599   -0.0187323    5.5027230  
H    3.3143982    2.7817323    3.1139444  
H    2.0889452    1.7545833    5.0442112  
