64

C    8.7277208    0.0073025   -3.2927289  
C    7.9505139    0.0098446   -4.4278104  
C    8.8409665    0.0124692   -5.5421206  
C   10.1601010    0.0110896   -5.0207689  
N   10.0552335    0.0099010   -3.6519676  
C   11.2956647    0.0126645   -5.8364174  
C   11.0959311    0.0153802   -7.2032664  
O   12.1698295    0.0166600   -8.0457354  
C    9.7874891    0.0171676   -7.7425195  
O    9.7547198    0.0202347   -9.1217444  
C    8.6667691    0.0158887   -6.9384614  
H    6.8741766    0.0109164   -4.4499432  
H   10.8276830   -0.0017805   -3.0107450  
H   12.3037366    0.0117703   -5.4452748  
H   11.8126871    0.0188165   -8.9433503  
H    8.8350106    0.0212500   -9.4041239  
H    7.6771974    0.0174977   -7.3803015  
C    4.7390840    0.0009613   -1.2727298  
C    5.7457113    0.0027391   -2.2103685  
C    6.9802492    0.0028874   -1.4958643  
C    6.6612418    0.0008545   -0.1137802  
N    5.2920917    0.0016753   -0.0135513  
C    7.6369656    0.0001119    0.8875937  
C    8.9588063    0.0011388    0.4864542  
O    9.9518670    0.0001280    1.4228544  
C    9.2971111    0.0035436   -0.8877227  
O   10.6560640    0.0047305   -1.1256049  
C    8.3350584    0.0045507   -1.8761454  
H    5.6072444    0.0049039   -3.2779900  
H    4.7730888   -0.0099224    0.8457991  
H    7.4003711   -0.0012920    1.9426874  
H   10.7862573    0.0014115    0.9359717  
H   10.7982731    0.0063139   -2.0771183  
C    3.2798077    0.0005856   -1.4499661  
C    2.5571132    0.0005565   -2.5996564  
C    1.1637425    0.0001547   -2.2210366  
C    1.1336959   -0.0000200   -0.7459475  
N    2.4483509   -0.0001429   -0.3402730  
C    0.0000000    0.0000000    0.0000000  
C   -1.2757370   -0.0000187   -0.6964411  
O   -2.3524597   -0.0000640   -0.1142306  
C   -1.2676502   -0.0000874   -2.2584078  
O   -2.3355774   -0.0004102   -2.8557287  
C    0.0181551    0.0001758   -2.9516297  
H    2.9547342    0.0006074   -3.5989118  
H    0.0150776    0.0003317   -4.0331632  
H    2.7563626    0.0012823    0.6148051  
C    0.8676693    0.7151171    2.2619005  
C    0.5875920    0.4624972    3.5848544  
C   -0.5048400   -0.4542819    3.6114698  
C   -0.8517165   -0.7276451    2.2635546  
N    0.0000000    0.0000000    1.4700000  
C   -1.8902865   -1.5946756    1.9108239  
C   -2.5912627   -2.1969500    2.9375057  
O   -3.6148162   -3.0527051    2.6493466  
C   -2.2603868   -1.9365747    4.2886322  
O   -3.0513550   -2.6123276    5.1947621  
C   -1.2361111   -1.0811317    4.6373480  
H    1.1060808    0.8876438    4.4271209  
H   -2.1597133   -1.8070987    0.8854031  
H   -3.9636755   -3.3565188    3.4974381  
H   -2.7621927   -2.3810384    6.0827341  
H   -1.0058879   -0.9010589    5.6809233  
H    1.6167816    1.3499334    1.8205408  
