60

C   -3.7246767    0.7075106   -8.0147416  
C   -4.9395413    0.4562875   -8.6092649  
C   -4.6981440   -0.4522807   -9.6820327  
C   -3.3057065   -0.7223068   -9.6934133  
N   -2.7442356   -0.0006476   -8.6694134  
C   -2.7094851   -1.5813279  -10.6215255  
C   -3.5339856   -2.1788771  -11.5549667  
O   -3.0040758   -3.0267703  -12.4840987  
C   -4.9256255   -1.9217199  -11.5599809  
O   -5.6111683   -2.5920049  -12.5519944  
C   -5.5144566   -1.0741766  -10.6448437  
H   -5.8834391    0.8770773   -8.3076237  
H   -1.6488391   -1.7911709  -10.6355910  
H   -3.7414612   -3.3284137  -13.0304870  
H   -6.5433069   -2.3633707  -12.4852957  
H   -6.5831260   -0.8963987  -10.6734450  
H   -3.4797615    1.3369238   -7.1764017  
C   -0.8287671    0.0000935   -4.7555305  
C    0.4848182    0.0005136   -5.0812193  
C    0.5106010    0.0006421   -6.5358100  
C   -0.9135391    0.0001375   -6.9338162  
N   -1.7033614   -0.0001048   -5.8945041  
C   -1.3181690    0.0001437   -8.3127145  
C   -0.3443518    0.0010207   -9.2513381  
O   -0.5775774    0.0011272  -10.5748360  
C    1.1017783    0.0019184   -8.8813818  
O    1.9341165    0.0025678   -9.7882630  
C    1.4913197    0.0018496   -7.4600501  
H    1.3316904    0.0008021   -4.4164766  
H    0.3072611    0.0018585  -10.9825257  
H    2.5491448    0.0026322   -7.2336964  
C    1.0672566   -0.0000698   -0.8321912  
C    0.0000000    0.0000000    0.0000000  
C   -1.1601226   -0.0000736   -0.8778472  
C   -0.5938732   -0.0000770   -2.2438435  
N    0.7113365   -0.0001555   -2.2234123  
C   -1.4286989   -0.0001880   -3.4135239  
C   -2.7683117   -0.0006800   -3.2270522  
O   -3.6653907   -0.0008306   -4.2276967  
C   -3.3702026   -0.0010611   -1.8610771  
O   -4.5974909   -0.0013781   -1.7662957  
C   -2.4926826   -0.0008944   -0.6770655  
H   -4.5324249   -0.0012263   -3.7833950  
H   -2.9677773   -0.0012975    0.2947963  
H    2.1134390   -0.0000546   -0.5705121  
C    0.0000000    0.0000000    1.4700000  
C    1.0662921    0.0000102    2.3034270  
C    0.4961870   -0.0000064    3.6418889  
C   -0.9663858    0.0000850    3.4240247  
N   -1.2632773    0.0000084    2.1528658  
C   -1.8985362    0.0000517    4.5177257  
C   -1.3925775   -0.0004564    5.7720543  
O   -2.1456383   -0.0005410    6.8851312  
C    0.0786232   -0.0009323    6.0245000  
O    0.4683759   -0.0012588    7.1921102  
C    1.0143166   -0.0008442    4.8859032  
H    2.1107198   -0.0000632    2.0421868  
H   -2.9622183    0.0003270    4.3293377  
H   -1.5042274   -0.0009692    7.6184419  
H    2.0724152   -0.0013148    5.1109744  
