64

C    0.4472244   -0.6064683   -9.6524981  
C    1.1934113   -0.5333578  -10.8058968  
C    1.1424700    0.8213194  -11.2495797  
C    0.3440608    1.5343383  -10.3189494  
N   -0.0635682    0.6371974   -9.3631281  
C    0.0778522    2.9013692  -10.4420291  
C    0.6278988    3.5606845  -11.5241244  
O    0.4001258    4.8959184  -11.6922998  
C    1.4269030    2.8665513  -12.4635863  
O    1.9017014    3.6627228  -13.4853587  
C    1.6897182    1.5178858  -12.3429412  
H    1.7098973   -1.3555331  -11.2709371  
H   -0.5299815    3.4505518   -9.7362404  
H    0.8681020    5.1534776  -12.4972393  
H    2.4311579    3.1172361  -14.0750412  
H    2.3051789    1.0131332  -13.0784077  
H    0.2377723   -1.4476477   -9.0141369  
C    0.1064602   -0.7138164   -5.1554290  
C   -0.9736297    0.0040464   -4.6965763  
C   -1.4912368    0.7334041   -5.8077561  
C   -0.6795017    0.4177975   -6.9273114  
N    0.2821069   -0.4618991   -6.4959642  
C   -0.8998165    0.9585815   -8.1976665  
C   -1.9590511    1.8336792   -8.3405059  
O   -2.2193131    2.3905114   -9.5592009  
C   -2.7800678    2.1612308   -7.2353098  
O   -3.7933074    3.0470067   -7.5387754  
C   -2.5631427    1.6283213   -5.9817240  
H    0.9955161   -0.8703461   -7.0723321  
H   -2.9888538    2.9621237   -9.4394877  
H   -4.3001589    3.2151089   -6.7384962  
H   -3.2086828    1.8980377   -5.1540712  
H    0.7663125   -1.3844907   -4.6322180  
C    1.1188642    0.0008222   -0.8003808  
C    0.0000000    0.0000000    0.0000000  
C   -1.1323862    0.0008899   -0.8673528  
C   -0.6382663    0.0019679   -2.1969280  
N    0.7324016    0.0038481   -2.1202242  
C   -1.4770914    0.0027318   -3.3154808  
C   -2.8395473    0.0020945   -3.0876857  
O   -3.7039201    0.0024425   -4.1440349  
C   -3.3517868    0.0013931   -1.7684331  
O   -4.7300497    0.0012366   -1.7073121  
C   -2.5248543    0.0009123   -0.6644817  
H    1.3576314   -0.0056167   -2.9057046  
H   -4.5940032    0.0021826   -3.7685128  
H   -4.9934602    0.0007259   -0.7819913  
H   -2.9462577    0.0005603    0.3339659  
H    2.1619895    0.0009355   -0.5342068  
C    0.0000000    0.0000000    1.4700000  
C    1.0662921    0.0000102    2.3034270  
C    0.4961870   -0.0000064    3.6418889  
C   -0.9663858    0.0000850    3.4240247  
N   -1.2632773    0.0000084    2.1528658  
C   -1.8985362    0.0000517    4.5177257  
C   -1.3925775   -0.0004564    5.7720543  
O   -2.1456383   -0.0005410    6.8851312  
C    0.0786232   -0.0009323    6.0245000  
O    0.4683759   -0.0012588    7.1921102  
C    1.0143166   -0.0008442    4.8859032  
H    2.1107198   -0.0000632    2.0421868  
H   -2.9622183    0.0003270    4.3293377  
H   -1.5042274   -0.0009692    7.6184419  
H    2.0724152   -0.0013148    5.1109744  
