62

C    0.5515794   -0.9659924   -9.5330997  
C    0.1392288    0.1085667   -8.7796035  
C    0.1716784    1.2517776   -9.6320211  
C    0.6152469    0.8095664  -10.9046652  
N    0.8387698   -0.5415680  -10.8093191  
C    0.7665707    1.6721414  -11.9945523  
C    0.4643231    3.0053606  -11.7961804  
O    0.5941191    3.8909522  -12.8266627  
C    0.0206674    3.4658098  -10.5336544  
O   -0.2393877    4.8201698  -10.4959155  
C   -0.1285892    2.6154704   -9.4579346  
H    1.1501556   -1.1326055  -11.5587813  
H    1.1043526    1.3413800  -12.9670237  
H    0.3362431    4.7544793  -12.4786905  
H   -0.5336409    5.0487725   -9.6089215  
H   -0.4701512    2.9971739   -8.5028880  
H    0.6649222   -2.0013404   -9.2607645  
C    1.7926684   -2.1130094   -5.2695613  
C    1.5709109   -1.6116993   -6.5312979  
C    0.4476588   -0.7372601   -6.4404054  
C    0.0227367   -0.7448287   -5.0871465  
N    0.8596940   -1.5918116   -4.4039633  
C   -1.0641734    0.0073898   -4.6315339  
C   -1.7341473    0.7815828   -5.5588619  
O   -2.8023666    1.5359045   -5.1678131  
C   -1.3255169    0.8020851   -6.9136385  
O   -2.0941824    1.6220710   -7.7137133  
C   -0.2535111    0.0600469   -7.3638698  
H    2.1470956   -1.8481325   -7.4094229  
H    0.8086761   -1.7900692   -3.4210735  
H   -3.1188183    1.9917711   -5.9585775  
H   -1.7518077    1.5785013   -8.6117590  
H    2.5416451   -2.8022204   -4.9188739  
C    1.1319248    0.0015675   -0.8009270  
C    0.7969916    0.0034959   -2.1169404  
C   -0.6453336    0.0035703   -2.1842672  
C   -1.1266831    0.0015415   -0.7896027  
N    0.0000000    0.0000000    0.0000000  
C   -2.4346129    0.0013924   -0.4276297  
C   -3.4350110    0.0031352   -1.4820184  
O   -4.6384610    0.0030897   -1.2583919  
C   -2.9478958    0.0050460   -2.9661075  
O   -3.7809377    0.0062160   -3.8623775  
C   -1.5113821    0.0053068   -3.2312125  
H    1.4821240    0.0045436   -2.9459192  
H   -2.7664565    0.0000185    0.6013447  
H    2.1104318    0.0009428   -0.3488058  
C    2.4951002    2.0940188    2.9809380  
C    1.9440701    1.6314916    1.8291961  
C    0.8759964    0.7350050    2.2038498  
C    0.8497377    0.7130254    3.6788474  
N    1.8560616    1.5571714    4.0882609  
C   -0.0205033   -0.0168748    4.4215661  
C   -0.9962600   -0.8356168    3.7214979  
O   -1.8224391   -1.5286685    4.3006425  
C   -0.9864710   -0.8277881    2.1595606  
O   -1.8030528   -1.5133726    1.5592035  
C    0.0000000    0.0000000    1.4700000  
H    2.2509283    1.8888011    0.8310761  
H   -0.0229599   -0.0187323    5.5027230  
H    3.3143982    2.7817323    3.1139444  
H    2.0889452    1.7545833    5.0442112  
