62

C    1.7630851   -4.5889502   -7.3126755  
C    1.1828360   -3.4804517   -6.7408288  
C    1.2717903   -2.4245750   -7.6957174  
C    1.9212885   -2.9526113   -8.8408177  
N    2.2076637   -4.2684467   -8.5740143  
C    2.1787544   -2.1893008   -9.9835592  
C    1.7728945   -0.8689684   -9.9701976  
O    1.9990907   -0.0787123  -11.0598515  
C    1.1237103   -0.3237987   -8.8369879  
O    0.7816780    1.0052716   -8.9781586  
C    0.8696306   -1.0761646   -7.7091951  
H    0.7498172   -3.4377840   -5.7561118  
H    2.6591570   -4.9039488   -9.2066844  
H    2.6734891   -2.5857816  -10.8594828  
H    1.6428984    0.7928787  -10.8436997  
H    0.3483975    1.2953621   -8.1696288  
H    1.8962771   -5.5824635   -6.9200559  
C    0.5157023   -0.7055390   -5.2240925  
C   -0.2963293   -0.0005341   -4.3948471  
C   -1.2098551    0.7417637   -5.2310887  
C   -0.8609897    0.4090167   -6.6254926  
N    0.1928749   -0.4724046   -6.5523132  
C   -1.4945019    0.9085670   -7.7167381  
C   -2.5931305    1.8360110   -7.5036697  
O   -3.2264754    2.3405319   -8.4216202  
C   -2.9795614    2.2027197   -6.0353372  
O   -3.9026313    2.9827310   -5.8435412  
C   -2.2228515    1.5995820   -4.9410487  
H   -1.2229387    0.6514327   -8.7311565  
H   -2.4968365    1.8585228   -3.9273394  
H    1.3229471   -1.3756270   -4.9766502  
C    3.1301146   -0.0010313   -1.7028256  
C    2.5367765   -0.0002766   -0.4864669  
C    1.1089901    0.0001027   -0.7656184  
C    1.0177865   -0.0004150   -2.2415133  
N    2.1993571   -0.0011612   -2.7963824  
C   -0.2459219   -0.0002879   -2.9257116  
C   -1.3675326   -0.0000606   -2.1698520  
O   -2.6129318    0.0000865   -2.6748483  
C   -1.3083588    0.0000910   -0.6783229  
O   -2.3693264    0.0004206   -0.0541685  
C    0.0000000    0.0000000    0.0000000  
H    3.0096016   -0.0001007    0.4807518  
H   -3.1967444    0.0002093   -1.8949026  
H    4.1849275   -0.0015114   -1.9271979  
C    0.8576279    0.7185626    2.2703808  
C    0.0000000    0.0000000    1.4700000  
C   -0.8668858   -0.7285659    2.3373528  
C   -0.4876752   -0.4117774    3.6669281  
N    0.5635254    0.4678311    3.5902241  
C   -1.1297612   -0.9515493    4.7854808  
C   -2.1738724   -1.8268314    4.5576857  
O   -2.8357962   -2.3827064    5.6140350  
C   -2.5667212   -2.1555554    3.2384331  
O   -3.6226318   -3.0413663    3.1773122  
C   -1.9335634   -1.6236449    2.1344818  
H    1.0363952    0.8769718    4.3757045  
H   -0.8454472   -0.7142436    5.8013813  
H   -3.5178062   -2.9546422    5.2385129  
H   -3.8247440   -3.2102924    2.2519915  
H   -2.2566033   -1.8942483    1.1360343  
H    1.6567807    1.3889844    2.0042067  
