64

C    3.8843755   -0.3895712   -9.0656782  
C    4.5179892   -0.2444392  -10.2780883  
C    4.4055965    1.1294226  -10.6447917  
C    3.6874557    1.7793789   -9.6085698  
N    3.3845708    0.8278798   -8.6664819  
C    3.3906378    3.1453746   -9.6358549  
C    3.8269870    3.8684741  -10.7289712  
O    3.5646764    5.2057198  -10.8063048  
C    4.5446122    3.2378288  -11.7730573  
O    4.9096786    4.0931069  -12.7921600  
C    4.8375515    1.8902270  -11.7469332  
H    5.0007432   -1.0321330  -10.8307915  
H    2.8435646    3.6466732   -8.8493357  
H    3.9512638    5.5122119  -11.6368926  
H    5.3895571    3.5881745  -13.4557600  
H    5.3887760    1.4349241  -12.5613832  
H    3.7481841   -1.2654780   -8.4547791  
C    3.9370510   -0.7184256   -4.5079536  
C    4.0728530   -0.4678097   -5.8537679  
C    3.0407725    0.4489881   -6.2127829  
C    2.3004121    0.7244272   -5.0346798  
N    2.8699641   -0.0020530   -4.0185824  
C    1.2042089    1.5920522   -5.0158721  
C    0.8491098    2.1927979   -6.2080079  
O   -0.2131497    3.0490482   -6.2461266  
C    1.5752116    1.9303427   -7.3940558  
O    1.0977498    2.6047551   -8.4988369  
C    2.6565828    1.0743119   -7.4134046  
H    4.8227831   -0.8942698   -6.4977637  
H    0.6357060    1.8060551   -4.1213280  
H   -0.2873078    3.3515868   -7.1605858  
H    1.6432278    2.3720959   -9.2564162  
H    4.5160563   -1.3526089   -3.8587048  
C    3.2573670   -0.0002921   -1.5109382  
C    2.5379468   -0.0001711   -0.3591962  
C    1.1435043    0.0000330   -0.7338498  
C    1.1092608   -0.0000085   -2.2088474  
N    2.4227562    0.0001906   -2.6182610  
C   -0.0265533   -0.0002525   -2.9515663  
C   -1.3003033   -0.0002641   -2.2514979  
O   -2.3786785   -0.0004132   -2.8306425  
C   -1.2877724    0.0000310   -0.6895608  
O   -2.3539956    0.0003306   -0.0892035  
C    0.0000000    0.0000000    0.0000000  
H    2.9384091   -0.0000370    0.6389240  
H   -0.0296290   -0.0004088   -4.0327231  
H    4.3270394   -0.0004767   -1.6439445  
C    2.5285572    2.1210227    2.9438989  
C    1.9331703    1.6216660    4.0790748  
C    0.8903039    0.7472258    3.6520102  
C    0.8972198    0.7527806    2.2336141  
N    1.9028376    1.5986179    1.8362361  
C    0.0000000    0.0000000    1.4700000  
C   -0.9207814   -0.7726952    2.1506477  
O   -1.8198395   -1.5274828    1.4542253  
C   -0.9436862   -0.7911793    3.5655508  
O   -1.9197945   -1.6098497    4.0950179  
C   -0.0590329   -0.0485852    4.3195194  
H    2.2150357    1.8593692    5.0905303  
H    2.1533708    1.7953814    0.8841339  
H   -2.3621246   -1.9821033    2.1118817  
H   -1.8668290   -1.5649508    5.0545920  
H   -0.1007624   -0.0827977    5.4019087  
H    3.3491200    2.8096064    2.8367138  
