60

C   -4.0305664    2.1223378    1.6172706  
C   -4.5794130    1.6610291    0.4432058  
C   -5.6387565    0.7745294    0.7988875  
C   -5.6897614    0.7342956    2.2158229  
N   -4.6985701    1.5623910    2.6810285  
C   -6.6177241   -0.0411806    2.9174706  
C   -7.5106585   -0.7894410    2.1752089  
O   -8.4381844   -1.5641918    2.8096151  
C   -7.4753012   -0.7627834    0.7606923  
O   -8.4292519   -1.5623217    0.1656640  
C   -6.5599413    0.0018031    0.0678360  
H   -4.2553220    1.9294922   -0.5476956  
H   -4.5000580    1.7434427    3.6483926  
H   -6.6616921   -0.0762968    3.9973022  
H   -8.9531834   -1.9966117    2.1160354  
H   -8.3368338   -1.4869248   -0.7889970  
H   -3.2145254    2.8053762    1.7800410  
C   -3.2941076    0.0012874   -2.9038237  
C   -4.0168013    0.0014134   -1.7541332  
C   -5.4101722    0.0018616   -2.1327521  
C   -5.4402197    0.0019579   -3.6078411  
N   -4.1255649    0.0019955   -4.0135163  
C   -6.5739167    0.0019521   -4.3537877  
C   -7.8496532    0.0020696   -3.6573458  
O   -8.9263768    0.0021352   -4.2395556  
C   -7.8415653    0.0022225   -2.0953793  
O   -8.9094926    0.0026291   -1.4980574  
C   -6.5557596    0.0019351   -1.4021581  
H   -3.6191800    0.0013975   -0.7548779  
H   -6.5739168    0.0018934   -5.4349496  
H   -3.8175538    0.0005039   -4.9685944  
C    0.0000000    0.0000000    0.0000000  
C    1.0541688   -0.0001722   -0.8560393  
C    0.5103135   -0.0000454   -2.1935957  
C   -0.9576374    0.0002459   -2.0455730  
N   -1.2018460   -0.0001391   -0.6915968  
C   -1.8348314    0.0008317   -3.0810607  
C   -1.2972851    0.0009737   -4.4314604  
O   -2.0050676    0.0014265   -5.4301315  
C    0.2542619    0.0004184   -4.6117571  
O    0.7184666    0.0002257   -5.7439121  
C    1.0974550    0.0000874   -3.4189130  
H    2.0940752   -0.0005483   -0.5817984  
H    2.1707276   -0.0000911   -3.5523671  
H   -2.1128194    0.0014912   -0.2706789  
C    0.0000000    0.0000000    1.4700000  
C    1.0662921    0.0000102    2.3034270  
C    0.4961870   -0.0000064    3.6418889  
C   -0.9663858    0.0000850    3.4240247  
N   -1.2632773    0.0000084    2.1528658  
C   -1.8985362    0.0000517    4.5177257  
C   -1.3925775   -0.0004564    5.7720543  
O   -2.1456383   -0.0005410    6.8851312  
C    0.0786232   -0.0009323    6.0245000  
O    0.4683759   -0.0012588    7.1921102  
C    1.0143166   -0.0008442    4.8859032  
H    2.1107198   -0.0000632    2.0421868  
H   -2.9622183    0.0003270    4.3293377  
H   -1.5042274   -0.0009692    7.6184419  
H    2.0724152   -0.0013148    5.1109744  
