62

C    4.5052605   -0.4687481   -7.5527673  
C    5.5504579   -0.3534775   -8.4397525  
C    5.6082153    1.0144884   -8.8396689  
C    4.5648514    1.6917880   -8.1580649  
N    3.9135217    0.7615409   -7.3866850  
C    4.3240508    3.0603201   -8.3127414  
C    5.1517867    3.7578879   -9.1708977  
O    4.9612602    5.0963500   -9.3585953  
C    6.1979663    3.0997529   -9.8602327  
O    6.9341614    3.9316585  -10.6783358  
C    6.4359317    1.7496330   -9.7083296  
H    6.1916200   -1.1567834   -8.7600728  
H    3.5304111    3.5823942   -7.7962378  
H    5.6369335    5.3828745   -9.9867952  
H    7.6192897    3.4090097  -11.1061692  
H    7.2447209    1.2729753  -10.2497505  
H    4.1341546   -1.3314963   -7.0265510  
C    2.8405929   -0.6921309   -3.3577780  
C    3.4605005   -0.4644322   -4.5443456  
C    2.6384065    0.4700281   -5.2763163  
C    1.4804515    0.7702476   -4.4127200  
N    1.6628945    0.0339172   -3.2649299  
C    0.4713983    1.6144625   -4.7456128  
C    0.5296143    2.2710575   -6.0410006  
O   -0.3306356    3.0486829   -6.4328798  
C    1.7466562    1.9676503   -6.9718918  
O    1.8063695    2.5143194   -8.0649830  
C    2.7724696    1.0395721   -6.5026050  
H    4.3877454   -0.9013727   -4.8697892  
H   -0.3689173    1.8209737   -4.0974365  
H    3.1449056   -1.3294175   -2.5434380  
C    1.1243410    0.0100105   -0.7919003  
C    0.7474072    0.0234665   -2.1148542  
C   -0.6787384    0.0234379   -2.1414698  
C   -1.1201748    0.0098411   -0.7935547  
N    0.0000000    0.0000000    0.0000000  
C   -2.4730818    0.0063307   -0.4408240  
C   -3.3971962    0.0170429   -1.4675058  
O   -4.7313520    0.0145490   -1.1793468  
C   -2.9763654    0.0303020   -2.8186325  
O   -4.0166484    0.0394464   -3.7247625  
C   -1.6418567    0.0334992   -3.1673480  
H   -2.8160166   -0.0041569    0.5845966  
H   -5.1938823    0.0230023   -2.0274386  
H   -3.6464680    0.0481700   -4.6127343  
H   -1.3497475    0.0435647   -4.2109234  
H    2.1062466    0.0053162   -0.3505405  
C    0.8400945    0.7047457    2.2710304  
C    0.0000000    0.0000000    1.4700000  
C   -0.8844236   -0.7423113    2.3369512  
C   -0.4878984   -0.4098547    3.7186280  
N    0.5629682    0.4714286    3.6095011  
C   -1.0836927   -0.9095027    4.8308716  
C   -2.1891196   -1.8367527    4.6554461  
O   -2.7906899   -2.3413415    5.5944904  
C   -2.6257283   -2.2031529    3.2011665  
O   -3.5549479   -2.9829990    3.0410059  
C   -1.9068976   -1.5999348    2.0816745  
H   -0.7774656   -0.6525820    5.8354244  
H   -2.2155208   -1.8586617    1.0779135  
H    1.6384792    1.3747609    1.9961646  
H    1.0518368    0.8833920    4.3830260  
