62

C    4.5514027   -0.0133221   -8.1406172  
C    5.6114587   -0.6884450   -8.7000434  
C    5.6538413   -0.3273786  -10.0793315  
C    4.5862124    0.5787142  -10.3053642  
N    3.9358845    0.7460583   -9.1079995  
C    4.3253849    1.1428608  -11.5577607  
C    5.1576658    0.7860430  -12.6009140  
O    4.9482420    1.3076944  -13.8447127  
C    6.2279352   -0.1167664  -12.3953051  
O    6.9656650   -0.3725484  -13.5327048  
C    6.4856724   -0.6739070  -11.1601180  
H    6.2721596   -1.3595578   -8.1784349  
H    3.1419450    1.3417634   -8.9570796  
H    3.5132096    1.8339379  -11.7366076  
H    5.6310019    0.9331436  -14.4163902  
H    7.6676603   -0.9906125  -13.3073087  
H    7.3127063   -1.3626452  -11.0331043  
C    5.8841828   -2.1091711   -4.4899262  
C    5.7577997   -1.6457878   -5.7601145  
C    4.6250715   -0.7504410   -5.7708524  
C    4.0981358   -0.7300182   -4.3929147  
N    4.9052814   -1.5745227   -3.6661283  
C    3.0267438   -0.0008951   -3.9901699  
C    2.3471073    0.8182470   -4.9799352  
O    1.3727582    1.5105721   -4.7160583  
C    2.8878461    0.8116749   -6.4453234  
O    2.3236395    1.4971362   -7.2873888  
C    4.0508244   -0.0149267   -6.7584743  
H    6.3862356   -1.9020932   -6.5943749  
H    6.6099532   -2.7964267   -4.0864072  
H    4.8007126   -1.7705398   -2.6875120  
C    3.3003547    0.0005277   -1.4738986  
C    2.5232816    0.0003497   -2.6090746  
C    1.1623203   -0.0001319   -2.1820102  
C    1.1711884    0.0000584   -0.7636141  
N    2.4852301   -0.0014919   -0.3662359  
C    0.0000000    0.0000000    0.0000000  
C   -1.2020383    0.0000520   -0.6806479  
O   -2.3759248    0.0003493    0.0157745  
C   -1.2314655   -0.0005115   -2.0955511  
O   -2.5054388   -0.0008040   -2.6250184  
C   -0.0764513   -0.0007274   -2.8495195  
H    2.8036266    0.0088183    0.5858662  
H   -3.0835639    0.0000346   -0.6418822  
H   -2.4360043   -0.0011529   -3.5845924  
H   -0.1304091   -0.0013423   -3.9319089  
H    4.3715553    0.0004897   -1.3667133  
C    0.8681109    0.7263879    2.2709268  
C    0.6127770    0.5096195    3.5869401  
C   -0.4920590   -0.4175482    3.6542670  
C   -0.8620974   -0.7254003    2.2596025  
N    0.0000000    0.0000000    1.4700000  
C   -1.8641242   -1.5660088    1.8976294  
C   -2.6293522   -2.2103885    2.9520183  
O   -3.5512764   -2.9839180    2.7283916  
C   -2.2549728   -1.8987399    4.4361073  
O   -2.8923672   -2.4351063    5.3323774  
C   -1.1543735   -0.9755647    4.7012123  
H    1.1382914    0.9492124    4.4159191  
H   -2.1192137   -1.7782617    0.8686553  
H   -0.9013378   -0.7652422    5.7314848  
H    1.6172880    1.3558399    1.8188057  
