60

C    5.6685267    0.0002157   -2.2869307  
C    4.7390844    0.0009612   -1.2727295  
C    5.4635795    0.0004225   -0.0440283  
C    6.8430309   -0.0003722   -0.3742384  
N    6.9321468   -0.0024287   -1.7441550  
C    7.8522875   -0.0007544    0.5933305  
C    7.4618846   -0.0000194    1.9183826  
O    8.4063108    0.0000012    2.9038117  
C    6.0904959    0.0004035    2.2678240  
O    5.8636452    0.0007017    3.6286626  
C    5.0942999    0.0005074    1.3138219  
H    7.7872777    0.0071654   -2.2701206  
H    8.9054278   -0.0015041    0.3481836  
H    7.9262132    0.0002667    3.7421253  
H    4.9133156    0.0010058    3.7785865  
H    4.0523283    0.0006524    1.6117690  
H    5.5300628   -0.0000848   -3.3545385  
C    3.2798077    0.0005856   -1.4499659  
C    2.5571132    0.0005565   -2.5996562  
C    1.1637425    0.0001548   -2.2210364  
C    1.1336957   -0.0000200   -0.7459472  
N    2.4483508   -0.0001429   -0.3402728  
C    0.0000000    0.0000000    0.0000000  
C   -1.2757370   -0.0000187   -0.6964410  
O   -2.3524597   -0.0000640   -0.1142306  
C   -1.2676501   -0.0000873   -2.2584079  
O   -2.3355772   -0.0004101   -2.8557287  
C    0.0181552    0.0001759   -2.9516296  
H    2.9547343    0.0006074   -3.5989115  
H    2.7563624    0.0012823    0.6148054  
C    0.8291928   -0.6854809   -5.2562371  
C    0.0139724    0.0003878   -4.4216237  
C   -0.8773510    0.7460787   -5.2968307  
C   -0.4474322    0.3823398   -6.6641083  
N    0.5525061   -0.4565929   -6.6466435  
C   -1.0903979    0.9189730   -7.8318863  
C   -2.1164707    1.7795502   -7.6423708  
O   -2.8066734    2.3561393   -8.6409724  
C   -2.5739420    2.1659016   -6.2750324  
O   -3.5141107    2.9544342   -6.1774622  
C   -1.8981914    1.6018691   -5.0930203  
H   -0.7553229    0.6359275   -8.8190639  
H   -3.4699047    2.9130227   -8.1947015  
H   -2.2596584    1.9067676   -4.1200820  
H    1.6314351   -1.3578974   -4.9969361  
C    2.5128556    2.1077716    2.9199648  
C    1.9592212    1.6432552    4.0696553  
C    0.8915788    0.7479214    3.6910360  
C    0.8684491    0.7287414    2.2159470  
N    1.8754542    1.5738793    1.8102719  
C    0.0000000    0.0000000    1.4700000  
C   -0.9772830   -0.8200135    2.1664417  
O   -1.8021297   -1.5120829    1.5842315  
C   -0.9711318   -0.8147624    3.7284083  
O   -1.7894187   -1.5009653    4.3257297  
C    0.0140216    0.0115358    4.4216297  
H    2.2638494    1.8988021    5.0689105  
H    0.0117648    0.0094386    5.5031631  
H    3.3327358    2.7953732    2.7900019  
H    2.1123206    1.7707734    0.8551938  
