62

C    6.5505903   -0.0057860   -1.5916569  
C    5.7766163   -0.0082551   -0.4543684  
C    6.6702360   -0.0106295    0.6574041  
C    7.9878816   -0.0091794    0.1323011  
N    7.8791200   -0.0081914   -1.2361964  
C    9.1257626   -0.0105188    0.9447155  
C    8.9299172   -0.0130671    2.3121279  
O   10.0062084   -0.0141143    3.1515389  
C    7.6230159   -0.0149214    2.8551017  
O    7.5941707   -0.0178013    4.2344145  
C    6.5000126   -0.0138748    2.0542354  
H    4.7003465   -0.0094402   -0.4291731  
H    8.6497407    0.0034850   -1.8796156  
H   10.1327164   -0.0095697    0.5507063  
H    9.6516233   -0.0161854    4.0501654  
H    6.6752692   -0.0188770    4.5194097  
H    5.5117022   -0.0155296    2.4988899  
C    2.5562217   -0.0001551   -3.6003001  
C    3.5655126   -0.0016944   -2.6655291  
C    4.7980129   -0.0018082   -3.3835430  
C    4.4750742   -0.0000008   -4.7647141  
N    3.1056446   -0.0009834   -4.8610468  
C    5.4479449    0.0007089   -5.7688602  
C    6.7709221   -0.0001197   -5.3714827  
O    7.7613130    0.0008689   -6.3107046  
C    7.1131347   -0.0022981   -3.9982737  
O    8.4727595   -0.0033052   -3.7642590  
C    6.1538987   -0.0032724   -3.0071177  
H    3.4300844   -0.0037267   -1.5975178  
H    2.5841976    0.0104394   -5.7189186  
H    5.2083492    0.0019413   -6.8232765  
H    8.5970864   -0.0002571   -5.8261982  
H    8.6176764   -0.0047416   -2.8131540  
C    0.0000000    0.0000000    0.0000000  
C    1.0541688   -0.0001722   -0.8560390  
C    0.5103141   -0.0000453   -2.1935955  
C   -0.9576367    0.0002460   -2.0455731  
N   -1.2018459   -0.0001392   -0.6915969  
C   -1.8348307    0.0008318   -3.0810611  
C   -1.2972843    0.0009738   -4.4314606  
O   -2.0050665    0.0014267   -5.4301321  
C    0.2542628    0.0004186   -4.6117570  
O    0.7184676    0.0002258   -5.7439117  
C    1.0974555    0.0000874   -3.4189127  
H    2.0940752   -0.0005483   -0.5817978  
H   -2.9081051    0.0011670   -2.9507061  
H   -2.1128194    0.0014912   -0.2706792  
C    3.2573670    0.0002920    2.9809380  
C    2.5379467    0.0001709    1.8291961  
C    1.1435042   -0.0000331    2.2038498  
C    1.1092607    0.0000083    3.6788474  
N    2.4227561   -0.0001909    4.0882609  
C   -0.0265533    0.0002524    4.4215661  
C   -1.3003036    0.0002640    3.7214979  
O   -2.3786784    0.0004133    4.3006425  
C   -1.2877726   -0.0000311    2.1595606  
O   -2.3539958   -0.0003306    1.5592035  
C    0.0000000    0.0000000    1.4700000  
H    2.9384090    0.0000368    0.8310761  
H   -0.0296291    0.0004086    5.5027230  
H    4.3270393    0.0004765    3.1139444  
H    2.7280493    0.0013407    5.0442112  
