60

C    5.7914543   -3.2271181   -9.2473850  
C    6.0824003   -2.4599177  -10.3515690  
C    5.7039548   -1.1205409  -10.0394016  
C    5.1841542   -1.1317446   -8.7197019  
N    5.2500474   -2.4267260   -8.2688154  
C    4.7131956    0.0202319   -8.0825703  
C    4.7682519    1.2051568   -8.7904543  
O    4.3218814    2.3599707   -8.2158496  
C    5.2830882    1.2365349  -10.1083224  
O    5.2705719    2.4919712  -10.6802195  
C    5.7476234    0.1004213  -10.7375913  
H    6.5132625   -2.8213848  -11.2695514  
H    4.9611926   -2.7401562   -7.3598016  
H    4.4484372    3.0579282   -8.8716716  
H    5.6342758    2.4252283  -11.5684017  
H    6.1361936    0.1553604  -11.7477755  
H    5.9259736   -4.2821844   -9.0809588  
C    5.9779326   -2.0928592   -4.4468277  
C    5.0400352   -1.6304885   -3.5804345  
C    4.1859905   -0.7341818   -4.3234533  
C    4.7069275   -0.7121372   -5.7036455  
N    5.7934745   -1.5560774   -5.7119684  
C    4.1728106    0.0176374   -6.7155014  
C    3.0072079    0.8361655   -6.4258171  
O    2.4535610    1.5290918   -7.2693981  
C    2.4388223    0.8282645   -4.9709354  
O    1.4580063    1.5136695   -4.7150431  
C    3.1006054    0.0006263   -3.9654951  
H    4.9561722   -1.8877888   -2.5395805  
H    6.7884827   -2.7804145   -4.2674807  
H    6.3633299   -1.7534011   -6.5140748  
C    3.2798083    0.0005857   -1.4499652  
C    2.5571142    0.0005565   -2.5996556  
C    1.1637432    0.0001548   -2.2210361  
C    1.1336964   -0.0000200   -0.7459473  
N    2.4483512   -0.0001428   -0.3402723  
C    0.0000000    0.0000000    0.0000000  
C   -1.2757368   -0.0000186   -0.6964415  
O   -2.3524598   -0.0000639   -0.1142311  
C   -1.2676497   -0.0000872   -2.2584083  
O   -2.3355766   -0.0004101   -2.8557295  
C    0.0181558    0.0001758   -2.9516296  
H    0.0150788    0.0003319   -4.0331631  
H    4.3498547    0.0008612   -1.3200026  
H    2.7563626    0.0012823    0.6148059  
C    2.4951002    2.0940188    2.9809380  
C    1.9440701    1.6314916    1.8291961  
C    0.8759964    0.7350050    2.2038498  
C    0.8497377    0.7130254    3.6788474  
N    1.8560616    1.5571714    4.0882609  
C   -0.0205033   -0.0168748    4.4215661  
C   -0.9962600   -0.8356168    3.7214979  
O   -1.8224391   -1.5286685    4.3006425  
C   -0.9864710   -0.8277881    2.1595606  
O   -1.8030528   -1.5133726    1.5592035  
C    0.0000000    0.0000000    1.4700000  
H    2.2509283    1.8888011    0.8310761  
H   -0.0229599   -0.0187323    5.5027230  
H    3.3143982    2.7817323    3.1139444  
H    2.0889452    1.7545833    5.0442112  
