60

C    6.1329309   -0.7138118   -3.2566650  
C    7.4006506   -0.4643604   -2.7842998  
C    8.0146907    0.4422282   -3.6984393  
C    7.0654313    0.7129284   -4.7170438  
N    5.9347405   -0.0064451   -4.4192921  
C    7.3302883    1.5704306   -5.7891115  
C    8.5760058    2.1657400   -5.8335544  
O    8.8872057    3.0120790   -6.8581893  
C    9.5366362    1.9078769   -4.8268200  
O   10.7293858    2.5758769   -5.0124753  
C    9.2761307    1.0618310   -3.7690537  
H    7.8304033   -0.8850316   -1.8913596  
H    6.6111442    1.7807765   -6.5687192  
H    9.7915764    3.3122839   -6.6992699  
H   11.3218883    2.3469071   -4.2898979  
H   10.0318163    0.8834627   -3.0130104  
H    5.3549272   -1.3414613   -2.8570089  
C    1.6707638   -0.0012342   -3.2725973  
C    3.0286798   -0.0026497   -3.2608754  
C    3.4615715   -0.0042631   -4.6383503  
C    2.2357551   -0.0036379   -5.4594252  
N    1.1849520   -0.0021879   -4.5713376  
C    2.2192692   -0.0043573   -6.8164192  
C    3.4939025   -0.0060727   -7.5148770  
O    3.5845469   -0.0068913   -8.7355670  
C    4.8047158   -0.0070127   -6.6654228  
O    5.8837814   -0.0087640   -7.2423773  
C    4.6947481   -0.0058250   -5.2087974  
H    3.6555461   -0.0027549   -2.3870034  
H    1.3089303   -0.0037484   -7.3996804  
H    0.2146124    0.0000900   -4.8272345  
C    1.0965515    0.0001359   -0.8010305  
C    0.0000000    0.0000000    0.0000000  
C   -1.1546564    0.0001470   -0.8669509  
C   -0.6372018    0.0003521   -2.2486279  
N    0.7342868    0.0007339   -2.1395011  
C   -1.4147743    0.0001355   -3.3608714  
C   -2.8576049   -0.0001046   -3.1854455  
O   -3.6427782   -0.0002491   -4.1244898  
C   -3.4275842   -0.0000725   -1.7311664  
O   -4.6406831    0.0000334   -1.5710053  
C   -2.4891868   -0.0001091   -0.6116742  
H   -1.0150456    0.0001619   -4.3654242  
H   -2.8919123   -0.0002920    0.3920869  
H    2.1388270    0.0000663   -0.5261648  
C    0.8681109    0.7263879    2.2709268  
C    0.6127770    0.5096195    3.5869401  
C   -0.4920590   -0.4175482    3.6542670  
C   -0.8620974   -0.7254003    2.2596025  
N    0.0000000    0.0000000    1.4700000  
C   -1.8641242   -1.5660088    1.8976294  
C   -2.6293522   -2.2103885    2.9520183  
O   -3.5512764   -2.9839180    2.7283916  
C   -2.2549728   -1.8987399    4.4361073  
O   -2.8923672   -2.4351063    5.3323774  
C   -1.1543735   -0.9755647    4.7012123  
H    1.1382914    0.9492124    4.4159191  
H   -2.1192137   -1.7782617    0.8686553  
H   -0.9013378   -0.7652422    5.7314848  
H    1.6172880    1.3558399    1.8188057  
