60

C   -0.2706015    0.1889450   -8.8157701  
C    0.5081320   -0.4686412   -9.7396872  
C    0.0407992   -0.0800370  -11.0301080  
C   -1.0335049    0.8240072  -10.8288592  
N   -1.1974709    0.9637000   -9.4730502  
C   -1.7357471    1.4113305  -11.8855977  
C   -1.3461954    1.0802255  -13.1688736  
O   -1.9975512    1.6251972  -14.2374028  
C   -0.2769434    0.1798850  -13.3900157  
O   -0.0098025   -0.0488976  -14.7240467  
C    0.4161072   -0.4001108  -12.3479931  
H    1.3131900   -1.1460355   -9.5116265  
H   -1.8791628    1.5515699   -9.0284307  
H   -2.5555345    2.1009855  -11.7388762  
H   -1.5736301    1.2661219  -15.0277323  
H    0.7247840   -0.6671329  -14.7854595  
H    1.2306480   -1.0863109  -12.5483198  
C    2.3617618   -2.0132533   -6.1309085  
C    1.9111467   -1.6311559   -4.9133181  
C    0.8167583   -0.7132543   -5.1894898  
C    0.7423550   -0.6552467   -6.6651875  
N    1.6455070   -1.4153047   -7.2225185  
C   -0.2276462    0.1569486   -7.3467464  
C   -1.0846243    0.8781012   -6.5885501  
O   -2.0400761    1.6785704   -7.0909459  
C   -1.0349500    0.8404012   -5.0971505  
O   -1.8457778    1.5226373   -4.4707857  
C   -0.0307352   -0.0004646   -4.4215603  
H    2.2762460   -1.9347702   -3.9470904  
H   -2.4850415    2.0539986   -6.3097848  
H    3.1689151   -2.6915912   -6.3574800  
C    3.2573670   -0.0002920   -1.5109380  
C    2.5379468   -0.0001709   -0.3591961  
C    1.1435043    0.0000332   -0.7338500  
C    1.1092609   -0.0000082   -2.2088477  
N    2.4227562    0.0001909   -2.6182613  
C   -0.0265532   -0.0002522   -2.9515663  
C   -1.3003035   -0.0002639   -2.2514981  
O   -2.3786784   -0.0004131   -2.8306429  
C   -1.2877725    0.0000312   -0.6895608  
O   -2.3539958    0.0003307   -0.0892036  
C    0.0000000    0.0000000    0.0000000  
H    2.9384091   -0.0000369    0.6389239  
H    4.3270394   -0.0004765   -1.6439446  
H    2.7280494   -0.0013406   -3.5742113  
C    0.0000000    0.0000000    1.4700000  
C    1.0662921    0.0000102    2.3034270  
C    0.4961870   -0.0000064    3.6418889  
C   -0.9663858    0.0000850    3.4240247  
N   -1.2632773    0.0000084    2.1528658  
C   -1.8985362    0.0000517    4.5177257  
C   -1.3925775   -0.0004564    5.7720543  
O   -2.1456383   -0.0005410    6.8851312  
C    0.0786232   -0.0009323    6.0245000  
O    0.4683759   -0.0012588    7.1921102  
C    1.0143166   -0.0008442    4.8859032  
H    2.1107198   -0.0000632    2.0421868  
H   -2.9622183    0.0003270    4.3293377  
H   -1.5042274   -0.0009692    7.6184419  
H    2.0724152   -0.0013148    5.1109744  
