62

C    4.8662867   -0.3804135   -8.7789265  
C    5.6304612   -0.2332191   -9.9133170  
C    5.5581218    1.1410048  -10.2886505  
C    4.7287197    1.7890465   -9.3378289  
N    4.3240430    0.8361079   -8.4362957  
C    4.4354153    3.1548208   -9.3963307  
C    4.9897272    3.8796638  -10.4334035  
O    4.7363023    5.2167807  -10.5378447  
C    5.8194709    3.2509424  -11.3920747  
O    6.2945910    4.1078101  -12.3633529  
C    6.1090313    1.9035601  -11.3351363  
H    6.1723794   -1.0198058  -10.4099039  
H    3.8038967    3.6546642   -8.6748445  
H    5.2124220    5.5246449  -11.3200178  
H    6.8456858    3.6041210  -12.9701453  
H    6.7477317    1.4497508  -12.0838665  
H    4.6639718   -1.2572020   -8.1879365  
C    4.4128858   -0.7149386   -4.2439194  
C    4.6970351   -0.4625188   -5.5660427  
C    3.7102940    0.4538451   -6.0363822  
C    2.8434265    0.7271730   -4.9474562  
N    3.2973506   -0.0000934   -3.8752374  
C    1.7510556    1.5938357   -5.0494863  
C    1.5299296    2.1957718   -6.2729871  
O    0.4776244    3.0511604   -6.4278356  
C    2.3834960    1.9354257   -7.3713775  
O    2.0309911    2.6108145   -8.5215661  
C    3.4611750    1.0803453   -7.2715183  
H    5.5142567   -0.8875292   -6.1232754  
H    1.0865292    1.8062301   -4.2233536  
H    0.5051644    3.3547821   -7.3445254  
H    2.6574457    2.3795720   -9.2141590  
H    4.9168469   -1.3494398   -3.5351244  
C    3.3321174    0.0004714   -1.3379332  
C    2.6974186    0.0000115   -2.5332308  
C    1.2800441   -0.0002119   -2.2052838  
C    1.2395035    0.0000643   -0.7271293  
N    2.4394063    0.0005458   -0.2131034  
C    0.0000000    0.0000000    0.0000000  
C   -1.1468701    0.0000634   -0.7169542  
O   -2.3742201    0.0000072   -0.1695492  
C   -1.1388767    0.0001606   -2.2096354  
O   -2.2206229    0.0000903   -2.7970413  
C    0.1454526    0.0001815   -2.9324239  
H   -2.9844344    0.0001023   -0.9290168  
H    0.1083580    0.0003680   -4.0135594  
H    4.3940040    0.0007617   -1.1498630  
C    0.0000000    0.0000000    1.4700000  
C    1.0541688    0.0001722    2.3260392  
C    0.5103138    0.0000454    3.6635956  
C   -0.9576371   -0.0002459    3.5155732  
N   -1.2018458    0.0001392    2.1615969  
C   -1.8348311   -0.0008317    4.5510609  
C   -1.2972847   -0.0009736    5.9014604  
O   -2.0050672   -0.0014265    6.9001319  
C    0.2542623   -0.0004184    6.0817573  
O    0.7184670   -0.0002256    7.2139121  
C    1.0974552   -0.0000873    4.8889129  
H    2.0940752    0.0005483    2.0517982  
H   -2.9081052   -0.0011668    4.4207061  
H    2.1707277    0.0000911    5.0223670  
H   -2.1128194   -0.0014912    1.7406791  
