64

C    2.3879884   -2.9690680   -8.3249066  
C    1.9197876   -1.7500220   -7.8922594  
C    2.2062451   -0.8048798   -8.9214584  
C    2.8551986   -1.5112588   -9.9663570  
N    2.9513038   -2.8223634   -9.5709004  
C    3.2828342   -0.8931252  -11.1452674  
C    3.0508614    0.4627360  -11.2717882  
O    3.4475829    1.1161959  -12.4025471  
C    2.4052046    1.1849195  -10.2400936  
O    2.2475662    2.5274354  -10.5160365  
C    1.9833050    0.5758184   -9.0766835  
H    3.3571341   -3.5637311  -10.1128026  
H    3.7781330   -1.4258569  -11.9453146  
H    3.1936243    2.0410543  -12.2867617  
H    1.8037196    2.9413139   -9.7695049  
H    1.4916346    1.1550159   -8.3038519  
H    2.3659592   -3.9313173   -7.8426723  
C    1.6071931   -2.0691457   -5.4061219  
C    0.7600337   -1.6164454   -4.4213126  
C   -0.1612456   -0.7224870   -5.0431512  
C    0.1755312   -0.6690406   -6.4199773  
N    1.2548207   -1.4967873   -6.6059504  
C   -0.5252821    0.1165512   -7.3400290  
C   -1.5855716    0.8615302   -6.8615195  
O   -2.3042730    1.6457772   -7.7167616  
C   -1.9367275    0.8217441   -5.4911463  
O   -3.0155711    1.6195942   -5.1704051  
C   -1.2456329    0.0471727   -4.5828766  
H    0.8017172   -1.8952900   -3.3823222  
H   -0.2735268    0.1617565   -8.3906376  
H   -2.9880780    2.0738672   -7.1853339  
H   -3.1866799    1.5350659   -4.2274415  
H    2.4357995   -2.7539196   -5.3473448  
C    1.1243410    0.0099923   -0.7919003  
C    0.7474076    0.0234544   -2.1148543  
C   -0.6787381    0.0234490   -2.1414700  
C   -1.1201745    0.0098592   -0.7935546  
N    0.0000000    0.0000000    0.0000000  
C   -2.4730816    0.0063709   -0.4408240  
C   -3.3971958    0.0170982   -1.4675058  
O   -4.7313517    0.0146259   -1.1793471  
C   -2.9763648    0.0303504   -2.8186324  
O   -4.0166480    0.0395118   -3.7247624  
C   -1.6418562    0.0335260   -3.1673481  
H    1.4178717    0.0310972   -2.9571209  
H   -2.8160166   -0.0041111    0.5845966  
H   -5.1938818    0.0230867   -2.0274384  
H   -3.6464675    0.0482293   -4.6127343  
H    2.1062467    0.0052819   -0.3505407  
C    2.4951002    2.0940188    2.9809380  
C    1.9440701    1.6314916    1.8291961  
C    0.8759964    0.7350050    2.2038498  
C    0.8497377    0.7130254    3.6788474  
N    1.8560616    1.5571714    4.0882609  
C   -0.0205033   -0.0168748    4.4215661  
C   -0.9962600   -0.8356168    3.7214979  
O   -1.8224391   -1.5286685    4.3006425  
C   -0.9864710   -0.8277881    2.1595606  
O   -1.8030528   -1.5133726    1.5592035  
C    0.0000000    0.0000000    1.4700000  
H    2.2509283    1.8888011    0.8310761  
H   -0.0229599   -0.0187323    5.5027230  
H    3.3143982    2.7817323    3.1139444  
H    2.0889452    1.7545833    5.0442112  
