64

C    6.9021918   -0.7556284   -5.9613570  
C    8.2508443   -0.5119048   -6.0805375  
C    8.4163984    0.3863426   -7.1761386  
C    7.1228284    0.6580934   -7.6906821  
N    6.2267627   -0.0526691   -6.9314049  
C    6.9050384    1.5086969   -8.7787210  
C    8.0132632    2.0958998   -9.3576924  
O    7.8576483    2.9352777  -10.4227014  
C    9.3120568    1.8368566   -8.8588431  
O   10.3120977    2.4963986   -9.5431419  
C    9.5276799    0.9976121   -7.7856695  
H    9.0207152   -0.9309486   -5.4554816  
H    5.9216656    1.7197994   -9.1757280  
H    8.7437775    3.2305292  -10.6694118  
H   11.1565428    2.2671957   -9.1431625  
H   10.5340603    0.8181407   -7.4258538  
H    6.3687455   -1.3764041   -5.2620497  
C    2.8310661   -0.0116222   -4.0232753  
C    4.0831507   -0.0216172   -4.5930570  
C    3.8969795   -0.0342032   -6.0071939  
C    2.4982805   -0.0309392   -6.2428998  
N    1.8804233   -0.0190961   -5.0170412  
C    1.9478979   -0.0405793   -7.5281135  
C    2.8254815   -0.0534475   -8.5948189  
O    2.3417516   -0.0628992   -9.8711135  
C    4.2242805   -0.0572734   -8.3799609  
O    4.9653397   -0.0708549   -9.5435733  
C    4.7679481   -0.0480419   -7.1123394  
H    5.0159353   -0.0211372   -4.0555575  
H    0.8877443   -0.0037378   -4.8675958  
H    0.8827819   -0.0383008   -7.7144592  
H    3.1114972   -0.0713611  -10.4547959  
H    5.8985895   -0.0725624   -9.3098092  
C    3.3041271    0.0001176   -1.5420434  
C    2.5845372   -0.0004781   -0.3695856  
C    1.2040006   -0.0000008   -0.7283592  
C    1.1422371    0.0006035   -2.1454375  
N    2.4348636    0.0026108   -2.6077467  
C   -0.0655183    0.0008796   -2.8497920  
C   -1.2321770    0.0002323   -2.1101400  
O   -2.4392820    0.0001145   -2.7472520  
C   -1.1911210   -0.0000008   -0.6955263  
O   -2.4371529   -0.0002320   -0.1032859  
C    0.0000000    0.0000000    0.0000000  
H    3.0031536   -0.0000660    0.6222577  
H   -0.1193552    0.0014842   -3.9297471  
H   -3.1132988   -0.0000649   -2.0551784  
H   -2.3200282   -0.0004071    0.8516410  
H    4.3686623    0.0004070   -1.7024295  
C    0.8175213    0.6860729    2.3021913  
C    0.0000000    0.0000000    1.4700000  
C   -0.8887526   -0.7456559    2.3478473  
C   -0.4549825   -0.3816753    3.7138435  
N    0.5448156    0.4573574    3.6934124  
C   -1.0945674   -0.9182058    4.8835240  
C   -2.1210866   -1.7789155    4.6970523  
O   -2.8083856   -2.3554314    5.6976972  
C   -2.5824069   -2.1655116    3.3310774  
O   -3.5227682   -2.9541547    3.2362962  
C   -1.9100805   -1.6015804    2.1470656  
H   -0.7567140   -0.6349833    5.8697035  
H   -3.4728268   -2.9124471    5.2533954  
H   -2.2742832   -1.9066565    1.1752040  
H    1.6189533    1.3585343    2.0405121  
