62

C    2.4853910   -3.0782042   -9.0057112  
C    2.1528770   -1.8455355   -8.4934327  
C    2.1522109   -0.9273962   -9.5850457  
C    2.4942252   -1.6635286  -10.7482576  
N    2.6917826   -2.9656080  -10.3607282  
C    2.5886800   -1.0769750  -12.0138880  
C    2.3329224    0.2773125  -12.1070089  
O    2.4106485    0.9005710  -13.3188337  
C    1.9905397    1.0289051  -10.9577927  
O    1.7660217    2.3657126  -11.2144642  
C    1.8974371    0.4509676   -9.7088538  
H    2.9353751   -3.7228420  -10.9732976  
H    2.8490343   -1.6324782  -12.9043004  
H    2.1985481    1.8299153  -13.1620017  
H    1.5406173    2.8007191  -10.3864746  
H    1.6332931    1.0522471   -8.8467817  
H    2.5930626   -4.0285350   -8.5115072  
C    2.5365542   -2.0936798   -5.9975195  
C    2.0254114   -1.6312727   -4.8274822  
C    0.9452519   -0.7345686   -5.1651398  
C    0.8684328   -0.7123308   -6.6383657  
N    1.8600001   -1.5565500   -7.0821879  
C   -0.0266561    0.0178219   -7.3506841  
C   -0.9777112    0.8365829   -6.6174311  
O   -1.8231604    1.5298522   -7.1677880  
C   -0.9143687    0.8284832   -5.0567494  
O   -1.7097814    1.5140808   -4.4286288  
C    0.0950446    0.0004351   -4.4015596  
H    2.3662772   -1.8887983   -3.8405144  
H   -0.0661850    0.0198663   -8.4311199  
H    3.3507072   -2.7814877   -6.1586571  
C    3.3321173    0.0004713   -1.3379338  
C    2.6974181    0.0000116   -2.5332314  
C    1.2800438   -0.0002119   -2.2052841  
C    1.2395034    0.0000643   -0.7271299  
N    2.4394062    0.0005460   -0.2131038  
C    0.0000000    0.0000000    0.0000000  
C   -1.1468702    0.0000634   -0.7169543  
O   -2.3742203    0.0000074   -0.1695487  
C   -1.1388770    0.0001607   -2.2096355  
O   -2.2206234    0.0000905   -2.7970411  
C    0.1454522    0.0001815   -2.9324241  
H    3.1367984   -0.0000653   -3.5160950  
H   -2.9844346    0.0001026   -0.9290167  
H    4.3940038    0.0007618   -1.1498640  
C    0.0000000    0.0000000    1.4700000  
C    1.0521667    0.0011902    2.3562342  
C    0.4917218    0.0011957    3.6679131  
C   -0.9187428   -0.0003148    3.5178682  
N   -1.1833171    0.0009411    2.1707914  
C   -1.7951701   -0.0010350    4.6072090  
C   -1.2375837   -0.0005224    5.8710424  
O   -2.0474215   -0.0015360    6.9697579  
C    0.1673580    0.0013566    6.0411963  
O    0.5673524    0.0020687    7.3615553  
C    1.0325770    0.0023412    4.9669890  
H    2.0953057    0.0030649    2.0900562  
H   -2.0989778   -0.0102372    1.7591824  
H   -2.8710934   -0.0020419    4.4995513  
H   -1.4634884   -0.0006497    7.7393593  
H    1.5290710    0.0033153    7.3880045  
H    2.1042148    0.0039609    5.1284455  
