62

C   -7.3083195    5.4833945    0.6637857  
C   -8.5557697    5.0163611    1.0076108  
C   -8.5763368    3.6224785    0.7055032  
C   -7.3026224    3.2926123    0.1756302  
N   -6.5578405    4.4457566    0.1623500  
C   -6.9652586    1.9985620   -0.2323018  
C   -7.9311999    1.0196154   -0.1026915  
O   -7.6547281   -0.2610460   -0.4854241  
C   -9.2079968    1.3292056    0.4233879  
O  -10.0598842    0.2459796    0.4885920  
C   -9.5415987    2.6056553    0.8257718  
H   -9.3532272    5.6078197    1.4238210  
H   -5.6069482    4.5188966   -0.1513938  
H   -8.4537519   -0.7760030   -0.3132488  
H  -10.8993085    0.5408053    0.8547182  
H  -10.5277122    2.8126705    1.2247720  
H   -6.8950067    6.4748707    0.7352306  
C   -4.4484553    2.1114134   -0.3461921  
C   -5.6479912    1.6480085   -0.7825916  
C   -5.3783932    0.7523818   -1.8825941  
C   -3.9129551    0.7318186   -2.0524732  
N   -3.4082407    1.5765169   -1.0908921  
C   -3.2578655    0.0024282   -2.9908505  
C   -4.0489188   -0.8168743   -3.8939083  
O   -3.5523765   -1.5094419   -4.7725986  
C   -5.6025063   -0.8101577   -3.7322729  
O   -6.2789756   -1.4957519   -4.4869982  
C   -6.1934212    0.0167334   -2.6830243  
H   -7.2698069    0.0156516   -2.5775884  
H   -4.2368622    2.7988446    0.4566503  
H   -2.4341403    1.7725007   -0.9503007  
C    0.0000000    0.0000000    0.0000000  
C    1.0521666   -0.0011982   -0.8862343  
C    0.4917215   -0.0011996   -2.1979132  
C   -0.9187429    0.0003215   -2.0478682  
N   -1.1833171   -0.0009323   -0.7007913  
C   -1.7951703    0.0010483   -3.1372089  
C   -1.2375841    0.0005313   -4.4010422  
O   -2.0474218    0.0015510   -5.4997578  
C    0.1673576   -0.0013585   -4.5711963  
O    0.5673520   -0.0020735   -5.8915554  
C    1.0325768   -0.0023493   -3.4969892  
H    2.0953056   -0.0030808   -0.6200564  
H   -2.0989778    0.0102529   -0.2891822  
H   -1.4634888    0.0006601   -6.2693595  
H    1.5290707   -0.0033271   -5.9180047  
H    2.1042146   -0.0039770   -3.6584456  
C    1.0965515   -0.0001358    2.2710304  
C    0.0000000    0.0000000    1.4700000  
C   -1.1546562   -0.0001469    2.3369512  
C   -0.6372014   -0.0003519    3.7186280  
N    0.7342871   -0.0007337    3.6095011  
C   -1.4147739   -0.0001353    4.8308716  
C   -2.8576048    0.0001048    4.6554461  
O   -3.6427778    0.0002493    5.5944904  
C   -3.4275839    0.0000726    3.2011665  
O   -4.6406829   -0.0000333    3.0410059  
C   -2.4891866    0.0001091    2.0816745  
H   -1.0150448   -0.0001615    5.8354244  
H   -2.8919121    0.0002919    1.0779135  
H    2.1388271   -0.0000662    1.9961646  
H    1.3735872    0.0006099    4.3830260  
