62

C    3.3003545    0.0005278   -1.4738988  
C    2.5232807    0.0003503   -2.6090753  
C    1.1623197   -0.0001316   -2.1820107  
C    1.1711881    0.0000584   -0.7636149  
N    2.4852299   -0.0014915   -0.3662360  
C    0.0000000    0.0000000    0.0000000  
C   -1.2020386    0.0000521   -0.6806477  
O   -2.3759251    0.0003494    0.0157750  
C   -1.2314662   -0.0005110   -2.0955506  
O   -2.5054392   -0.0008036   -2.6250182  
C   -0.0764522   -0.0007269   -2.8495195  
H    2.8919952   -0.0005616   -3.6205308  
H    2.8036262    0.0088184    0.5858648  
H   -3.0835640    0.0000346   -0.6418821  
H   -2.4360052   -0.0011526   -3.5845919  
H    4.3715548    0.0004900   -1.3667142  
C    0.6778488   -0.7280272   -5.1604561  
C    0.3572088   -0.5121159   -6.4622422  
C   -0.7500359    0.4145351   -6.4749820  
C   -1.0503181    0.7230182   -5.0637914  
N   -0.1496422   -0.0015608   -4.3176961  
C   -2.0334666    1.5633981   -4.6528350  
C   -2.8505395    2.2068480   -5.6681670  
O   -3.7605421    2.9801051   -5.3993373  
C   -2.5503724    1.8945197   -7.1688850  
O   -3.2318477    2.4301015   -8.0326005  
C   -1.4639124    0.9716708   -7.4879567  
H    0.8409999   -0.9519514   -7.3161188  
H   -2.2371058    1.7761243   -3.6125523  
H    1.4488977   -1.3568982   -4.7458537  
C   -0.3963647   -2.7415500   -9.6254239  
C   -0.7240178   -1.8252781   -8.6782364  
C   -0.8733613   -0.5574162   -9.3528160  
C   -0.6039529   -0.8119813  -10.7808928  
N   -0.3208567   -2.1547485  -10.8794979  
C   -0.6444664    0.1353686  -11.7517651  
C   -0.9752859    1.4966046  -11.3642984  
O   -1.0371509    2.4206230  -12.1647129  
C   -1.2640633    1.7890420   -9.8573501  
O   -1.5433574    2.9313534   -9.5191494  
C   -1.1900083    0.6851603   -8.9035087  
H   -0.8468728   -2.0157833   -7.6269377  
H   -0.4436504   -0.0724270  -12.7935920  
H   -0.2034978   -3.7960670   -9.5127906  
H   -0.0961970   -2.6349230  -11.7315582  
C    2.5285572    2.1210227    2.9438989  
C    1.9331703    1.6216660    4.0790748  
C    0.8903039    0.7472258    3.6520102  
C    0.8972198    0.7527806    2.2336141  
N    1.9028376    1.5986179    1.8362361  
C    0.0000000    0.0000000    1.4700000  
C   -0.9207814   -0.7726952    2.1506477  
O   -1.8198395   -1.5274828    1.4542253  
C   -0.9436862   -0.7911793    3.5655508  
O   -1.9197945   -1.6098497    4.0950179  
C   -0.0590329   -0.0485852    4.3195194  
H    2.2150357    1.8593692    5.0905303  
H    2.1533708    1.7953814    0.8841339  
H   -2.3621246   -1.9821033    2.1118817  
H   -1.8668290   -1.5649508    5.0545920  
H   -0.1007624   -0.0827977    5.4019087  
H    3.3491200    2.8096064    2.8367138  
