60

C    4.7058226   -4.2778970    1.0546615  
C    4.3297245   -3.4738377    0.0037059  
C    5.3405259   -3.5946285   -0.9954386  
C    6.3161787   -4.4937792   -0.4938867  
N    5.9009105   -4.8882691    0.7537305  
C    7.4596452   -4.8487839   -1.2158601  
C    7.6209847   -4.2860803   -2.4670644  
O    8.7192488   -4.5985198   -3.2148682  
C    6.6587376   -3.3866005   -2.9845911  
O    6.9625578   -2.9114631   -4.2436707  
C    5.5305766   -3.0357197   -2.2727897  
H    3.4372396   -2.8731831   -0.0372458  
H    6.3865382   -5.5338874    1.3498196  
H    8.2070480   -5.5333885   -0.8391520  
H    8.6367877   -4.1043026   -4.0408312  
H    6.2629668   -2.3112712   -4.5192543  
H    4.2168664   -4.4631868    1.9956974  
C    4.5546440   -2.0975048   -2.8456843  
C    3.3966019   -1.6333850   -2.3093948  
C    2.8128206   -0.7373020   -3.2794823  
C    3.7322607   -0.7172945   -4.4331806  
N    4.7679899   -1.5620810   -4.1068522  
C    3.5352967    0.0116911   -5.5607837  
C    2.3379415    0.8314599   -5.6435736  
O    2.0707004    1.5238122   -6.6169856  
C    1.3504333    0.8257213   -4.4333664  
O    0.3391711    1.5121845   -4.4914814  
C    1.6707636   -0.0012343   -3.2725974  
H    2.9970337   -1.8893867   -1.3442927  
H    4.2221656    0.0121016   -6.3957216  
H    5.5563145   -1.7607940   -4.6951595  
C    1.0965514    0.0001358   -0.8010306  
C    0.0000000    0.0000000    0.0000000  
C   -1.1546565    0.0001470   -0.8669508  
C   -0.6372019    0.0003520   -2.2486278  
N    0.7342867    0.0007338   -2.1395012  
C   -1.4147744    0.0001354   -3.3608712  
C   -2.8576052   -0.0001047   -3.1854454  
O   -3.6427785   -0.0002490   -4.1244896  
C   -3.4275841   -0.0000727   -1.7311660  
O   -4.6406832    0.0000333   -1.5710049  
C   -2.4891868   -0.0001090   -0.6116739  
H   -1.0150456    0.0001617   -4.3654239  
H   -2.8919122   -0.0002919    0.3920871  
H    2.1388270    0.0000663   -0.5261650  
C    0.0000000    0.0000000    1.4700000  
C    1.0541688    0.0001722    2.3260392  
C    0.5103138    0.0000454    3.6635956  
C   -0.9576371   -0.0002459    3.5155732  
N   -1.2018458    0.0001392    2.1615969  
C   -1.8348311   -0.0008317    4.5510609  
C   -1.2972847   -0.0009736    5.9014604  
O   -2.0050672   -0.0014265    6.9001319  
C    0.2542623   -0.0004184    6.0817573  
O    0.7184670   -0.0002256    7.2139121  
C    1.0974552   -0.0000873    4.8889129  
H    2.0940752    0.0005483    2.0517982  
H   -2.9081052   -0.0011668    4.4207061  
H    2.1707277    0.0000911    5.0223670  
H   -2.1128194   -0.0014912    1.7406791  
