60

C    6.0407974   -0.7080267    2.8880475  
C    5.9243013   -0.4575899    4.2357036  
C    6.9676332    0.4513301    4.5820018  
C    7.6946461    0.7223712    3.3946030  
N    7.1066610    0.0009523    2.3854224  
C    8.7968326    1.5819785    3.3622395  
C    9.1717526    2.1790814    4.5501296  
O   10.2406554    3.0275127    4.5751194  
C    8.4591944    1.9209123    5.7452980  
O    8.9558695    2.5908617    6.8443089  
C    7.3719300    1.0727903    5.7780186  
H    5.1796868   -0.8791160    4.8890480  
H    9.3552362    1.7925956    2.4605588  
H   10.3288807    3.3287094    5.4887730  
H    8.4185759    2.3615383    7.6087243  
H    6.8459452    0.8942395    6.7085764  
H    5.4487943   -1.3373995    2.2458788  
C    4.7390840    0.0009613   -1.2727298  
C    5.6949931    0.0015506   -2.2307576  
C    6.9549534    0.0016801   -1.5034347  
C    6.5623380    0.0012139   -0.0777990  
N    5.2646567    0.0007106    0.0636644  
C    7.5356720    0.0011400    0.9794176  
C    8.8418533    0.0011261    0.6283828  
O    9.8560149    0.0010676    1.5101523  
C    9.2698380    0.0012197   -0.8016485  
O   10.4759225    0.0013251   -1.0477805  
C    8.2523630    0.0013382   -1.8677951  
H    5.5615837    0.0017690   -3.2990633  
H   10.6613103    0.0010471    0.9618351  
H    8.6033668    0.0012881   -2.8910384  
C    3.2798077    0.0005856   -1.4499661  
C    2.5571132    0.0005565   -2.5996564  
C    1.1637425    0.0001547   -2.2210366  
C    1.1336959   -0.0000200   -0.7459475  
N    2.4483509   -0.0001429   -0.3402730  
C    0.0000000    0.0000000    0.0000000  
C   -1.2757370   -0.0000187   -0.6964411  
O   -2.3524597   -0.0000640   -0.1142306  
C   -1.2676502   -0.0000874   -2.2584078  
O   -2.3355774   -0.0004102   -2.8557287  
C    0.0181551    0.0001758   -2.9516297  
H    2.9547342    0.0006074   -3.5989118  
H    0.0150776    0.0003317   -4.0331632  
H    2.7563626    0.0012823    0.6148051  
C    2.5128556    2.1077716    2.9199648  
C    1.9592212    1.6432552    4.0696553  
C    0.8915788    0.7479214    3.6910360  
C    0.8684491    0.7287414    2.2159470  
N    1.8754542    1.5738793    1.8102719  
C    0.0000000    0.0000000    1.4700000  
C   -0.9772830   -0.8200135    2.1664417  
O   -1.8021297   -1.5120829    1.5842315  
C   -0.9711318   -0.8147624    3.7284083  
O   -1.7894187   -1.5009653    4.3257297  
C    0.0140216    0.0115358    4.4216297  
H    2.2638494    1.8988021    5.0689105  
H    0.0117648    0.0094386    5.5031631  
H    3.3327358    2.7953732    2.7900019  
H    2.1123206    1.7707734    0.8551938  
