62

C    7.1253132    0.6281521   -4.9172785  
C    7.7159259   -0.2029579   -3.9937520  
C    9.1221327   -0.1525837   -4.2275113  
C    9.3317773    0.7334688   -5.3151168  
N    8.0985504    1.1882243   -5.7113051  
C   10.6029114    1.0240960   -5.8196395  
C   11.6820929    0.4092897   -5.2150245  
O   12.9455670    0.6578623   -5.6676358  
C   11.4932043   -0.4781260   -4.1289164  
O   12.6664864   -1.0103152   -3.6354304  
C   10.2394663   -0.7655111   -3.6308458  
H    7.1969676   -0.7759893   -3.2445451  
H    7.9323278    1.8402742   -6.4564105  
H   10.7693803    1.6983857   -6.6483892  
H   13.5412934    0.1354236   -5.1149756  
H   12.4503411   -1.5979683   -2.9049865  
H   10.1259278   -1.4494988   -2.7979304  
C    3.4561763   -0.7190144   -2.8481107  
C    2.5562217   -0.0001543   -3.6003001  
C    3.3101151    0.7284359   -4.5674612  
C    4.6762622    0.4113550   -4.3552630  
N    4.7296901   -0.4684438   -3.3027817  
C    5.7071391    0.9510664   -5.1303712  
C    5.3524131    1.8265874   -6.1382446  
O    6.3191171    2.3824163   -6.9253612  
C    3.9948293    2.1556047   -6.3652487  
O    3.8040496    3.0416298   -7.4053971  
C    2.9773418    1.6237543   -5.6008015  
H    5.5674399   -0.8778053   -2.9305184  
H    5.8624168    2.9545457   -7.5557246  
H    2.8608928    3.2107475   -7.4917579  
H    1.9467146    1.8945843   -5.7981246  
H    3.2905204   -1.3895465   -2.0223358  
C    0.0000000    0.0000000    0.0000000  
C    1.0541688   -0.0001719   -0.8560391  
C    0.5103141   -0.0000449   -2.1935955  
C   -0.9576367    0.0002461   -2.0455733  
N   -1.2018459   -0.0001392   -0.6915970  
C   -1.8348306    0.0008319   -3.0810611  
C   -1.2972842    0.0009739   -4.4314605  
O   -2.0050664    0.0014267   -5.4301321  
C    0.2542628    0.0004190   -4.6117571  
O    0.7184677    0.0002263   -5.7439119  
C    1.0974556    0.0000880   -3.4189127  
H    2.0940752   -0.0005479   -0.5817978  
H   -2.9081050    0.0011669   -2.9507065  
H   -2.1128195    0.0014911   -0.2706793  
C    3.2573670    0.0002920    2.9809380  
C    2.5379467    0.0001709    1.8291961  
C    1.1435042   -0.0000331    2.2038498  
C    1.1092607    0.0000083    3.6788474  
N    2.4227561   -0.0001909    4.0882609  
C   -0.0265533    0.0002524    4.4215661  
C   -1.3003036    0.0002640    3.7214979  
O   -2.3786784    0.0004133    4.3006425  
C   -1.2877726   -0.0000311    2.1595606  
O   -2.3539958   -0.0003306    1.5592035  
C    0.0000000    0.0000000    1.4700000  
H    2.9384090    0.0000368    0.8310761  
H   -0.0296291    0.0004086    5.5027230  
H    4.3270393    0.0004765    3.1139444  
H    2.7280493    0.0013407    5.0442112  
