60

C    7.7319814   -5.4755939   -6.8577086  
C    8.4058051   -5.0072755   -7.9618404  
C    8.1203693   -3.6134416   -8.0635937  
C    7.2600738   -3.2849281   -6.9847534  
N    7.0427685   -4.4387961   -6.2734273  
C    6.7743880   -1.9912967   -6.7716436  
C    7.1645117   -1.0113858   -7.6636948  
O    6.7198258    0.2689211   -7.5021952  
C    8.0219998   -1.3196213   -8.7465260  
O    8.3187491   -0.2355561   -9.5465780  
C    8.5013071   -2.5956569   -8.9575317  
H    9.0258091   -5.5978680   -8.6143649  
H    6.4793377   -4.5129277   -5.4457612  
H    7.1051277    0.7846905   -8.2224650  
H    8.9020187   -0.5294863  -10.2529810  
H    9.1565326   -2.8016273   -9.7958240  
H    7.6873258   -6.4674543   -6.4415643  
C    5.9718892   -2.1066115   -4.3836101  
C    5.8824617   -1.6421429   -5.6565381  
C    4.7503164   -0.7470245   -5.6994995  
C    4.1834495   -0.7279188   -4.3374840  
N    4.9692736   -1.5728897   -3.5882214  
C    3.1006054    0.0006263   -3.9654951  
C    2.4499046    0.8204922   -4.9739315  
O    1.4681175    1.5123813   -4.7379556  
C    3.0331143    0.8153164   -6.4229469  
O    2.4935219    1.5013962   -7.2804985  
C    4.2049176   -0.0107666   -6.7027952  
H    4.6026870   -0.0086184   -7.7085282  
H    6.6857547   -2.7940671   -3.9597122  
H    4.8362803   -1.7697856   -2.6132382  
C    3.2798083    0.0005857   -1.4499652  
C    2.5571142    0.0005565   -2.5996556  
C    1.1637432    0.0001548   -2.2210361  
C    1.1336964   -0.0000200   -0.7459473  
N    2.4483512   -0.0001428   -0.3402723  
C    0.0000000    0.0000000    0.0000000  
C   -1.2757368   -0.0000186   -0.6964415  
O   -2.3524598   -0.0000639   -0.1142311  
C   -1.2676497   -0.0000872   -2.2584083  
O   -2.3355766   -0.0004101   -2.8557295  
C    0.0181558    0.0001758   -2.9516296  
H    0.0150788    0.0003319   -4.0331631  
H    4.3498547    0.0008612   -1.3200026  
H    2.7563626    0.0012823    0.6148059  
C    0.8400945    0.7047457    2.2710304  
C    0.0000000    0.0000000    1.4700000  
C   -0.8844236   -0.7423113    2.3369512  
C   -0.4878984   -0.4098547    3.7186280  
N    0.5629682    0.4714286    3.6095011  
C   -1.0836927   -0.9095027    4.8308716  
C   -2.1891196   -1.8367527    4.6554461  
O   -2.7906899   -2.3413415    5.5944904  
C   -2.6257283   -2.2031529    3.2011665  
O   -3.5549479   -2.9829990    3.0410059  
C   -1.9068976   -1.5999348    2.0816745  
H   -0.7774656   -0.6525820    5.8354244  
H   -2.2155208   -1.8586617    1.0779135  
H    1.6384792    1.3747609    1.9961646  
H    1.0518368    0.8833920    4.3830260  
