62

C    8.2844966   -0.0323818   -2.1495914  
C    8.5618580   -0.0316082   -3.4970107  
C    9.9820071   -0.0438273   -3.6297734  
C   10.5225672   -0.0520220   -2.3184178  
N    9.4646565   -0.0428168   -1.4435723  
C   11.8979286   -0.0651473   -2.0674205  
C   12.7429874   -0.0703971   -3.1601351  
O   14.0948391   -0.0835161   -2.9721404  
C   12.2227383   -0.0620045   -4.4762227  
O   13.1926195   -0.0683130   -5.4573626  
C   10.8660266   -0.0487819   -4.7245838  
H    7.8305742   -0.0221586   -4.2870278  
H    9.5393150   -0.0561416   -0.4424581  
H   12.3162531   -0.0713004   -1.0703403  
H   14.4929168   -0.0847992   -3.8523662  
H   12.7573652   -0.0619795   -6.3153356  
H   10.4970388   -0.0424148   -5.7435465  
C    5.7554371   -0.0090726   -2.0505794  
C    6.9923858   -0.0221245   -1.4487028  
C    6.7698801   -0.0219076   -0.0397701  
C    5.3656336   -0.0086177    0.1598293  
N    4.7795901    0.0008674   -1.0815733  
C    4.7823669   -0.0050306    1.4304891  
C    5.6321572   -0.0153490    2.5194921  
O    5.1157427   -0.0127634    3.7829492  
C    7.0359729   -0.0282980    2.3407424  
O    7.7467988   -0.0370662    3.5231100  
C    7.6120770   -0.0315705    1.0874990  
H    3.7128513    0.0052244    1.5893384  
H    5.8701774   -0.0209296    4.3862957  
H    8.6857229   -0.0455976    3.3134621  
H    8.6906056   -0.0413922    0.9818624  
H    5.4920795   -0.0046217   -3.0944096  
C    3.3321168    0.0004716   -1.3379341  
C    2.6974177    0.0000118   -2.5332316  
C    1.2800432   -0.0002116   -2.2052842  
C    1.2395033    0.0000644   -0.7271298  
N    2.4394059    0.0005460   -0.2131041  
C    0.0000000    0.0000000    0.0000000  
C   -1.1468704    0.0000635   -0.7169542  
O   -2.3742206    0.0000074   -0.1695488  
C   -1.1388774    0.0001608   -2.2096352  
O   -2.2206238    0.0000906   -2.7970409  
C    0.1454514    0.0001818   -2.9324241  
H    3.1367978   -0.0000649   -3.5160956  
H   -2.9844350    0.0001027   -0.9290164  
H    0.1083567    0.0003684   -4.0135594  
C    2.5528530    2.1414826    2.8079335  
C    2.0663498    1.7338582    4.0032312  
C    0.9804344    0.8229586    3.6752840  
C    0.9495562    0.7966882    2.1971295  
N    1.8690446    1.5676019    1.6831036  
C    0.0000000    0.0000000    1.4700000  
C   -0.8785127   -0.7372425    2.1869543  
O   -1.8187535   -1.5261249    1.6395491  
C   -0.8723269   -0.7321790    3.6796354  
O   -1.7010379   -1.4274584    4.2670412  
C    0.1115397    0.0933559    4.4024240  
H    2.4028853    2.0163452    4.9860947  
H   -2.2861435   -1.9184361    2.3990168  
H    0.0832434    0.0693689    5.4835595  
H    3.3664920    2.8238276    2.6198634  
