62

C    7.6084048   -3.7448687   -4.7779583  
C    8.3499569   -4.5422312   -3.9372571  
C    7.8129430   -4.3775821   -2.6261101  
C    6.7360416   -3.4602475   -2.7295868  
N    6.6403204   -3.0943467   -4.0492730  
C    5.9725964   -3.0628164   -1.6277753  
C    6.3020887   -3.6014703   -0.3991726  
O    5.5890720   -3.2479585    0.7097229  
C    7.3733565   -4.5179515   -0.2756323  
O    7.5769069   -4.9645378    1.0137364  
C    8.1271154   -4.9102686   -1.3621226  
H    9.1769948   -5.1650004   -4.2324887  
H    5.1506691   -2.3639429   -1.6999815  
H    5.9785848   -3.7308822    1.4502164  
H    8.3173807   -5.5787728    1.0095273  
H    8.9418286   -5.6138122   -1.2366323  
H    7.6943630   -3.5876133   -5.8394858  
C    5.6440038   -2.1665154   -4.6036942  
C    5.4988194   -1.7703771   -5.8896084  
C    4.3672731   -0.8561077   -5.8749505  
C    3.9392116   -0.8155203   -4.4601362  
N    4.6839519   -1.5816217   -3.7101763  
C    2.8310662   -0.0116220   -4.0232752  
C    2.1803844    0.7188362   -4.9572875  
O    1.1296276    1.5131872   -4.6909084  
C    2.5886424    0.6993193   -6.3929425  
O    1.9508843    1.3890596   -7.1883943  
C    3.7285770   -0.1333896   -6.8161078  
H    6.0870098   -2.0624405   -6.7427252  
H    0.8853383    1.8982288   -5.5518488  
H    3.9927892   -0.1198655   -7.8650304  
C    3.3041270    0.0001177   -1.5420434  
C    2.5845372   -0.0004781   -0.3695856  
C    1.2040006   -0.0000008   -0.7283592  
C    1.1422371    0.0006037   -2.1454375  
N    2.4348636    0.0026109   -2.6077467  
C   -0.0655183    0.0008798   -2.8497920  
C   -1.2321770    0.0002326   -2.1101400  
O   -2.4392818    0.0001147   -2.7472520  
C   -1.1911210   -0.0000007   -0.6955263  
O   -2.4371527   -0.0002320   -0.1032859  
C    0.0000000    0.0000000    0.0000000  
H    3.0031533   -0.0000660    0.6222577  
H   -0.1193553    0.0014844   -3.9297472  
H   -3.1132989   -0.0000648   -2.0551784  
H   -2.3200282   -0.0004069    0.8516410  
H    4.3686624    0.0004070   -1.7024294  
C    2.5528530    2.1414826    2.8079335  
C    2.0663498    1.7338582    4.0032312  
C    0.9804344    0.8229586    3.6752840  
C    0.9495562    0.7966882    2.1971295  
N    1.8690446    1.5676019    1.6831036  
C    0.0000000    0.0000000    1.4700000  
C   -0.8785127   -0.7372425    2.1869543  
O   -1.8187535   -1.5261249    1.6395491  
C   -0.8723269   -0.7321790    3.6796354  
O   -1.7010379   -1.4274584    4.2670412  
C    0.1115397    0.0933559    4.4024240  
H    2.4028853    2.0163452    4.9860947  
H   -2.2861435   -1.9184361    2.3990168  
H    0.0832434    0.0693689    5.4835595  
H    3.3664920    2.8238276    2.6198634  
