64

C    3.3846301   -0.7136468   -6.2305215  
C    4.7373502   -0.4647757   -6.2044374  
C    5.0140860    0.4440481   -7.2684192  
C    3.7810023    0.7166468   -7.9142677  
N    2.8126089   -0.0037922   -7.2602046  
C    3.6759311    1.5766055   -9.0116382  
C    4.8367504    2.1724638   -9.4651003  
O    4.7911183    3.0211718  -10.5331011  
C    6.0766340    1.9127327   -8.8341915  
O    7.1407084    2.5815740   -9.4031725  
C    6.1810756    1.0642632   -7.7517324  
H    5.4385815   -0.8872571   -5.5053116  
H    2.7391400    1.7884065   -9.5083918  
H    5.6971640    3.3213548  -10.6822200  
H    7.9391072    2.3512281   -8.9182961  
H    7.1445461    0.8845046   -7.2892494  
H    2.7828003   -1.3424582   -5.5969953  
C   -0.8712823    0.0001712   -4.7267111  
C    0.4339910   -0.0007924   -5.1611391  
C    0.3982147   -0.0008750   -6.5870849  
C   -0.9677830    0.0003575   -6.9691518  
N   -1.7116540   -0.0009829   -5.8153444  
C   -1.3793555    0.0009339   -8.3053389  
C   -0.3940115    0.0005606   -9.2734678  
O   -0.7402460    0.0014435  -10.5937458  
C    0.9742899   -0.0010408   -8.9121275  
O    1.8341074   -0.0016430   -9.9910415  
C    1.3810435   -0.0018835   -7.5941454  
H    1.3048042   -0.0024708   -4.5281506  
H   -2.7146164    0.0100072   -5.7714419  
H   -2.4188447    0.0017287   -8.6031023  
H    0.0868493    0.0006900  -11.0929228  
H    2.7374600   -0.0027016   -9.6600480  
C    1.0965515    0.0001358   -0.8010304  
C    0.0000000    0.0000000    0.0000000  
C   -1.1546562    0.0001470   -0.8669514  
C   -0.6372012    0.0003520   -2.2486282  
N    0.7342873    0.0007338   -2.1395014  
C   -1.4147737    0.0001354   -3.3608717  
C   -2.8576047   -0.0001047   -3.1854463  
O   -3.6427778   -0.0002491   -4.1244908  
C   -3.4275837   -0.0000725   -1.7311667  
O   -4.6406828    0.0000333   -1.5710061  
C   -2.4891866   -0.0001090   -0.6116745  
H   -2.8919121   -0.0002919    0.3920865  
H    2.1388272    0.0000662   -0.5261647  
H    1.3735873   -0.0006098   -2.9130261  
C    2.5311839    2.1237619    3.0120429  
C    1.9795631    1.6616747    1.8395852  
C    0.9223175    0.7739173    2.1983588  
C    0.8753926    0.7337535    3.6154372  
N    1.8668922    1.5631002    4.0777464  
C   -0.0496243   -0.0427881    4.3197917  
C   -0.9437528   -0.7922060    3.5801400  
O   -1.8685244   -1.5680278    4.2172520  
C   -0.9124520   -0.7656372    2.1655264  
O   -1.8671164   -1.5663939    1.5732860  
C    0.0000000    0.0000000    1.4700000  
H    2.3005065    1.9304404    0.8477417  
H    2.0679347    1.7444845    5.0445261  
H   -0.0904770   -0.0778569    5.3997470  
H   -2.3849669   -2.0011402    3.5251786  
H   -1.7775064   -1.4909735    0.6183591  
H    3.3468514    2.8078103    3.1724291  
