62

C    0.4092630    0.6297420   -9.3464590  
C    1.5056156   -0.2007574   -9.3738418  
C    2.0335033   -0.1499017  -10.6979819  
C    1.2109859    0.7358019  -11.4402217  
N    0.2333819    1.1898947  -10.5901005  
C    1.4371571    1.0267474  -12.7889199  
C    2.5134376    0.4126239  -13.3993719  
O    2.7800819    0.6615321  -14.7146505  
C    3.3454187   -0.4744351  -12.6756662  
O    4.3752828   -1.0059474  -13.4241442  
C    3.1227305   -0.7621336  -11.3451915  
H    1.8783127   -0.7737015   -8.5420813  
H   -0.4905314    1.8415791  -10.8334898  
H    0.8138831    1.7007735  -13.3602529  
H    3.5615998    0.1395578  -14.9383423  
H    4.8886848   -1.5933969  -12.8611832  
H    3.7769736   -1.4458351  -10.8169902  
C    0.2810589   -0.7180976   -5.1362606  
C   -0.8287665    0.0000939   -4.7555305  
C   -1.2664165    0.7286058   -5.9011015  
C   -0.3775036    0.4121683   -6.9601703  
N    0.5511370   -0.4671880   -6.4611948  
C   -0.5073501    0.9519915   -8.2433380  
C   -1.5537884    1.8269649   -8.4614342  
O   -1.7271363    2.3828743   -9.6959099  
C   -2.4509429    2.1553365   -7.4173543  
O   -3.4401339    3.0408674   -7.7924270  
C   -2.3232906    1.6233749   -6.1511597  
H    1.3035285   -0.8760582   -6.9853263  
H   -2.5031976    2.9545647   -9.6313831  
H   -4.0023396    3.2095649   -7.0301478  
H   -3.0257707    1.8937054   -5.3714663  
H    0.9022070   -1.3883676   -4.5671625  
C    1.0672569   -0.0000698   -0.8321910  
C    0.0000000    0.0000000    0.0000000  
C   -1.1601223   -0.0000736   -0.8778472  
C   -0.5938729   -0.0000768   -2.2438435  
N    0.7113367   -0.0001553   -2.2234123  
C   -1.4286985   -0.0001877   -3.4135239  
C   -2.7683113   -0.0006798   -3.2270524  
O   -3.6653902   -0.0008302   -4.2276970  
C   -3.3702024   -0.0010610   -1.8610774  
O   -4.5974910   -0.0013779   -1.7662963  
C   -2.4926825   -0.0008943   -0.6770658  
H   -4.5324245   -0.0012258   -3.7833954  
H   -2.9677772   -0.0012974    0.2947961  
H    2.1134391   -0.0000547   -0.5705119  
C    0.8400945    0.7047457    2.2710304  
C    0.0000000    0.0000000    1.4700000  
C   -0.8844236   -0.7423113    2.3369512  
C   -0.4878984   -0.4098547    3.7186280  
N    0.5629682    0.4714286    3.6095011  
C   -1.0836927   -0.9095027    4.8308716  
C   -2.1891196   -1.8367527    4.6554461  
O   -2.7906899   -2.3413415    5.5944904  
C   -2.6257283   -2.2031529    3.2011665  
O   -3.5549479   -2.9829990    3.0410059  
C   -1.9068976   -1.5999348    2.0816745  
H   -0.7774656   -0.6525820    5.8354244  
H   -2.2155208   -1.8586617    1.0779135  
H    1.6384792    1.3747609    1.9961646  
H    1.0518368    0.8833920    4.3830260  
