62

C    3.3003552    0.0005275   -1.4738984  
C    2.5232817    0.0003496   -2.6090743  
C    1.1623204   -0.0001320   -2.1820099  
C    1.1711887    0.0000582   -0.7636134  
N    2.4852302   -0.0014920   -0.3662351  
C    0.0000000    0.0000000    0.0000000  
C   -1.2020380    0.0000519   -0.6806477  
O   -2.3759248    0.0003492    0.0157745  
C   -1.2314653   -0.0005115   -2.0955505  
O   -2.5054383   -0.0008042   -2.6250185  
C   -0.0764510   -0.0007275   -2.8495192  
H    2.8919961   -0.0005621   -3.6205295  
H    2.8036264    0.0088182    0.5858666  
H   -3.0835635    0.0000346   -0.6418821  
H   -2.4360041   -0.0011531   -3.5845924  
H    4.3715554    0.0004893   -1.3667125  
C    0.6257873   -0.6877067   -5.1891866  
C   -0.1496407   -0.0015617   -4.3176957  
C   -1.0813833    0.7431613   -5.1506086  
C   -0.7159746    0.3786179   -6.5363099  
N    0.2840344   -0.4599142   -6.5652282  
C   -1.4132804    0.9141716   -7.6729860  
C   -2.4296869    1.7744849   -7.4361031  
O   -3.1662524    2.3500967   -8.4015995  
C   -2.8226241    2.1616302   -6.0490633  
O   -3.7575075    2.9498673   -5.9080077  
C   -2.0918898    1.5987000   -4.8996890  
H   -3.8080358    2.9070395   -7.9250691  
H   -2.4074104    1.9041492   -3.9110649  
H    1.4396013   -1.3596275   -4.9673697  
C   -1.0207131    0.5282220   -9.0360096  
C   -0.0312062   -0.3155048   -9.4109510  
C   -0.0838112   -0.3327954  -10.8647164  
C   -1.1940255    0.5814779  -11.2083914  
N   -1.7469861    1.0892743  -10.1405114  
C   -1.5723899    0.8406396  -12.5702874  
C   -0.8731749    0.2151864  -13.5445776  
O   -1.1175189    0.3643441  -14.8576232  
C    0.2527272   -0.7129283  -13.2297613  
O    0.8450846   -1.2476500  -14.1669945  
C    0.6216147   -0.9624206  -11.8249120  
H    0.6502944   -0.8589483   -8.7790475  
H   -2.3879431    1.5132625  -12.7924610  
H   -0.4600686   -0.2037587  -15.2982715  
H    1.4430735   -1.6412526  -11.6388414  
C    2.5285572    2.1210227    2.9438989  
C    1.9331703    1.6216660    4.0790748  
C    0.8903039    0.7472258    3.6520102  
C    0.8972198    0.7527806    2.2336141  
N    1.9028376    1.5986179    1.8362361  
C    0.0000000    0.0000000    1.4700000  
C   -0.9207814   -0.7726952    2.1506477  
O   -1.8198395   -1.5274828    1.4542253  
C   -0.9436862   -0.7911793    3.5655508  
O   -1.9197945   -1.6098497    4.0950179  
C   -0.0590329   -0.0485852    4.3195194  
H    2.2150357    1.8593692    5.0905303  
H    2.1533708    1.7953814    0.8841339  
H   -2.3621246   -1.9821033    2.1118817  
H   -1.8668290   -1.5649508    5.0545920  
H   -0.1007624   -0.0827977    5.4019087  
H    3.3491200    2.8096064    2.8367138  
