60

C    5.6804814   -4.6207246   -2.1454795  
C    5.0142980   -3.5140357   -2.6186680  
C    5.9677930   -2.4560725   -2.6971561  
C    7.2092584   -2.9810290   -2.2554435  
N    6.9990360   -4.2971167   -1.9262962  
C    8.3776082   -2.2150606   -2.2003043  
C    8.2911976   -0.8951879   -2.5986099  
O    9.4017858   -0.1024181   -2.5650913  
C    7.0614585   -0.3530727   -3.0420839  
O    7.1382783    0.9759282   -3.4042966  
C    5.9083931   -1.1080617   -3.0964844  
H    3.9693725   -3.4738830   -2.8746215  
H    7.7017630   -4.9308185   -1.5907725  
H    9.3268668   -2.6091875   -1.8644858  
H    9.1252582    0.7683431   -2.8790539  
H    6.2662787    1.2638712   -3.6911908  
H    5.3190907   -5.6149153   -1.9456281  
C    3.4164202   -0.7248682   -3.0395956  
C    4.6504341   -0.5074352   -3.5630530  
C    4.4860923    0.4201599   -4.6573081  
C    3.0448509    0.7275385   -4.7289413  
N    2.4521483    0.0014840   -3.7217481  
C    2.4820245    1.5683503   -5.6333562  
C    3.3539019    2.2134650   -6.6009271  
O    2.9430837    2.9872291   -7.4558060  
C    4.8835155    1.9023268   -6.5436549  
O    5.6273691    2.4393134   -7.3533394  
C    5.3721315    0.9788706   -5.5227069  
H    1.4224202    1.7802478   -5.6686835  
H    6.4325777    0.7689052   -5.4896580  
H    3.1302861   -1.3547866   -2.2130247  
C    0.0000000    0.0000000    0.0000000  
C    1.0662923   -0.0000101   -0.8334270  
C    0.4961873    0.0000065   -2.1718887  
C   -0.9663854   -0.0000848   -1.9540250  
N   -1.2632773   -0.0000083   -0.6828660  
C   -1.8985359   -0.0000514   -3.0477261  
C   -1.3925770    0.0004566   -4.3020547  
O   -2.1456378    0.0005414   -5.4151314  
C    0.0786240    0.0009326   -4.5545000  
O    0.4683767    0.0012591   -5.7221100  
C    1.0143171    0.0008444   -3.4159031  
H    2.1107200    0.0000633   -0.5721865  
H   -2.9622181   -0.0003268   -2.8593381  
H   -1.5042265    0.0009697   -6.1484419  
C    1.1319247   -0.0015655    2.2709268  
C    0.7969915   -0.0034943    3.5869401  
C   -0.6453339   -0.0035710    3.6542670  
C   -1.1266833   -0.0015433    2.2596025  
N    0.0000000    0.0000000    1.4700000  
C   -2.4346130   -0.0013964    1.8976294  
C   -3.4350110   -0.0031408    2.9520183  
O   -4.6384611   -0.0030974    2.7283916  
C   -2.9478959   -0.0050506    4.4361073  
O   -3.7809380   -0.0062218    5.3323774  
C   -1.5113823   -0.0053090    4.7012123  
H    1.4821238   -0.0045407    4.4159191  
H   -2.7664565   -0.0000232    0.8686553  
H   -1.1823530   -0.0068408    5.7314848  
H    2.1104316   -0.0009391    1.8188057  
