62

C   10.2140997    2.1221667   -2.1744491  
C   11.4462708    1.6232667   -1.8204416  
C   11.2389023    0.7492694   -0.7124134  
C    9.8483520    0.7546113   -0.4326472  
N    9.2558094    1.5999020   -1.3376298  
C    9.2819200    0.0021532    0.6006729  
C   10.1347367   -0.7699945    1.3653101  
O    9.6344829   -1.5244485    2.3868572  
C   11.5250991   -0.7882585    1.1019146  
O   12.2410388   -1.6063763    1.9512991  
C   12.0846247   -0.0459821    0.0828550  
H   12.3798719    1.8609827   -2.3009342  
H    8.2726775    1.7964030   -1.3907430  
H   10.3882407   -1.9787088    2.7853052  
H   13.1701168   -1.5613613    1.7055542  
H   13.1531356   -0.0800144   -0.0949232  
H    9.9431888    2.8103358   -2.9567456  
C    5.7595788    0.0007157   -2.0216249  
C    4.7795901    0.0008674   -1.0815733  
C    5.4318897    0.0011976    0.2065809  
C    6.8826349    0.0012556   -0.0619866  
N    7.0143612    0.0005548   -1.4314891  
C    7.8422292    0.0019359    0.8976400  
C    7.4178692    0.0024333    2.2877672  
O    8.2055926    0.0029965    3.2246726  
C    5.8864735    0.0021297    2.5953924  
O    5.5172086    0.0022369    3.7619706  
C    4.9477888    0.0016668    1.4761415  
H    3.8891764    0.0016642    1.6976445  
H    5.6706931    0.0004912   -3.0958635  
H    7.8875232    0.0019717   -1.9260937  
C    3.3321168    0.0004716   -1.3379341  
C    2.6974177    0.0000118   -2.5332316  
C    1.2800432   -0.0002116   -2.2052842  
C    1.2395033    0.0000644   -0.7271298  
N    2.4394059    0.0005460   -0.2131041  
C    0.0000000    0.0000000    0.0000000  
C   -1.1468704    0.0000635   -0.7169542  
O   -2.3742206    0.0000074   -0.1695488  
C   -1.1388774    0.0001608   -2.2096352  
O   -2.2206238    0.0000906   -2.7970409  
C    0.1454514    0.0001818   -2.9324241  
H    3.1367978   -0.0000649   -3.5160956  
H   -2.9844350    0.0001027   -0.9290164  
H    0.1083567    0.0003684   -4.0135594  
C    0.8676693    0.7151171    2.2619005  
C    0.5875920    0.4624972    3.5848544  
C   -0.5048400   -0.4542819    3.6114698  
C   -0.8517165   -0.7276451    2.2635546  
N    0.0000000    0.0000000    1.4700000  
C   -1.8902865   -1.5946756    1.9108239  
C   -2.5912627   -2.1969500    2.9375057  
O   -3.6148162   -3.0527051    2.6493466  
C   -2.2603868   -1.9365747    4.2886322  
O   -3.0513550   -2.6123276    5.1947621  
C   -1.2361111   -1.0811317    4.6373480  
H    1.1060808    0.8876438    4.4271209  
H   -2.1597133   -1.8070987    0.8854031  
H   -3.9636755   -3.3565188    3.4974381  
H   -2.7621927   -2.3810384    6.0827341  
H   -1.0058879   -0.9010589    5.6809233  
H    1.6167816    1.3499334    1.8205408  
