64

C   -4.0884423    2.1252916    1.5130381  
C   -4.6126287    1.6639409    0.3277743  
C   -5.6797795    0.7781749    0.6612539  
C   -5.7607407    0.7384113    2.0768069  
N   -4.7791097    1.5660681    2.5626085  
C   -6.7037843   -0.0363011    2.7589185  
C   -7.5812783   -0.7842669    1.9981754  
O   -8.5224633   -1.5582750    2.6130694  
C   -7.5160200   -0.7580695    0.5847139  
O   -8.4576587   -1.5572315   -0.0301028  
C   -6.5857682    0.0057633   -0.0888713  
H   -4.2675100    1.9319055   -0.6561368  
H   -4.6009774    1.7473036    3.5338977  
H   -6.7705832   -0.0710560    3.8375902  
H   -9.0229481   -1.9906074    1.9088902  
H   -8.3450418   -1.4821856   -0.9826200  
H   -3.2756171    2.8079005    1.6928138  
C   -3.2578655    0.0024039   -2.9908504  
C   -4.0046937    0.0033122   -1.8566891  
C   -5.3897514    0.0044620   -2.2646697  
C   -5.3886199    0.0041178   -3.7400641  
N   -4.0656859    0.0032563   -4.1178667  
C   -6.5062991    0.0045469   -4.5098026  
C   -7.7964683    0.0056310   -3.8404768  
O   -8.8606469    0.0061488   -4.4453109  
C   -7.8213912    0.0062644   -2.2786881  
O   -8.9017017    0.0074845   -1.7040685  
C   -6.5505227    0.0054362   -1.5584488  
H   -3.6282784    0.0033729   -0.8492543  
H   -6.4834513    0.0041523   -5.5907229  
H   -3.7375608    0.0012868   -5.0662218  
C    0.0000000    0.0000000    0.0000000  
C    1.0521667   -0.0011902   -0.8862342  
C    0.4917216   -0.0011957   -2.1979129  
C   -0.9187429    0.0003148   -2.0478680  
N   -1.1833171   -0.0009412   -0.7007912  
C   -1.7951702    0.0010350   -3.1372088  
C   -1.2375841    0.0005225   -4.4010424  
O   -2.0474217    0.0015360   -5.4997576  
C    0.1673577   -0.0013567   -4.5711964  
O    0.5673522   -0.0020688   -5.8915554  
C    1.0325769   -0.0023413   -3.4969890  
H    2.0953057   -0.0030649   -0.6200562  
H   -2.0989779    0.0102372   -0.2891821  
H   -1.4634887    0.0006498   -6.2693588  
H    1.5290708   -0.0033153   -5.9180049  
H    2.1042148   -0.0039610   -3.6584453  
C    3.3003543   -0.0005276    2.9438989  
C    2.5232812   -0.0003497    4.0790748  
C    1.1623199    0.0001319    3.6520102  
C    1.1711883   -0.0000583    2.2336141  
N    2.4852299    0.0014920    1.8362361  
C    0.0000000    0.0000000    1.4700000  
C   -1.2020384   -0.0000520    2.1506477  
O   -2.3759250   -0.0003494    1.4542253  
C   -1.2314658    0.0005113    3.5655508  
O   -2.5054393    0.0008037    4.0950179  
C   -0.0764518    0.0007272    4.3195194  
H    2.8919952    0.0005619    5.0905303  
H    2.8036267   -0.0088181    0.8841339  
H   -3.0835639   -0.0000348    2.1118817  
H   -2.4360050    0.0011527    5.0545920  
H   -0.1304098    0.0013421    5.4019087  
H    4.3715549   -0.0004895    2.8367138  
