60

C    1.1497552   -1.0636056   -7.3615220  
C    2.1560170   -1.9501241   -7.0549450  
C    2.8655979   -2.2092166   -8.2648901  
C    2.2416625   -1.4461449   -9.2848662  
N    1.2023891   -0.7638075   -8.7026781  
C    2.6798764   -1.4566706  -10.6125130  
C    3.7679554   -2.2517663  -10.9159694  
O    4.2374492   -2.2989766  -12.1967336  
C    4.4036742   -3.0206161   -9.9122013  
O    5.4730086   -3.7607627  -10.3726905  
C    3.9717371   -3.0109273   -8.6022923  
H    2.3535546   -2.3605291   -6.0794762  
H    0.5841168   -0.1318941   -9.1784993  
H    2.2085897   -0.8774847  -11.3945851  
H    4.9897853   -2.9049509  -12.1895935  
H    5.8453154   -4.2501457   -9.6327614  
H    4.4786474   -3.6104957   -7.8552731  
C   -0.0202922   -0.6967075   -5.1400949  
C   -1.0641734    0.0073898   -4.6315339  
C   -1.6428387    0.7514421   -5.7253202  
C   -0.8448102    0.4207138   -6.9213806  
N    0.1229396   -0.4613330   -6.4990735  
C   -1.0739327    0.9222830   -8.1613948  
C   -2.1802191    1.8499248   -8.3291652  
O   -2.4675345    2.3561930   -9.4059405  
C   -3.0385140    2.2145170   -7.0760863  
O   -3.9723192    2.9946744   -7.2050168  
C   -2.6944049    1.6092961   -5.7918944  
H   -0.4766432    0.6666084   -9.0255627  
H   -3.2937360    1.8667795   -4.9292078  
H    0.6565472   -1.3675745   -4.6363937  
C    1.1319248    0.0015675   -0.8009270  
C    0.7969916    0.0034959   -2.1169404  
C   -0.6453336    0.0035703   -2.1842672  
C   -1.1266831    0.0015415   -0.7896027  
N    0.0000000    0.0000000    0.0000000  
C   -2.4346129    0.0013924   -0.4276297  
C   -3.4350110    0.0031352   -1.4820184  
O   -4.6384610    0.0030897   -1.2583919  
C   -2.9478958    0.0050460   -2.9661075  
O   -3.7809377    0.0062160   -3.8623775  
C   -1.5113821    0.0053068   -3.2312125  
H    1.4821240    0.0045436   -2.9459192  
H   -2.7664565    0.0000185    0.6013447  
H    2.1104318    0.0009428   -0.3488058  
C    0.0000000    0.0000000    1.4700000  
C    1.0541688    0.0001722    2.3260392  
C    0.5103138    0.0000454    3.6635956  
C   -0.9576371   -0.0002459    3.5155732  
N   -1.2018458    0.0001392    2.1615969  
C   -1.8348311   -0.0008317    4.5510609  
C   -1.2972847   -0.0009736    5.9014604  
O   -2.0050672   -0.0014265    6.9001319  
C    0.2542623   -0.0004184    6.0817573  
O    0.7184670   -0.0002256    7.2139121  
C    1.0974552   -0.0000873    4.8889129  
H    2.0940752    0.0005483    2.0517982  
H   -2.9081052   -0.0011668    4.4207061  
H    2.1707277    0.0000911    5.0223670  
H   -2.1128194   -0.0014912    1.7406791  
