60

C    0.7633288   -0.6922943   -9.6224128  
C    0.2561371    0.5603401   -9.3652527  
C    0.7619305    1.4299824  -10.3764380  
C    1.5787280    0.6450500  -11.2300465  
N    1.5593073   -0.6381662  -10.7426076  
C    2.2423221    1.1761764  -12.3401536  
C    2.0781326    2.5241826  -12.5933311  
O    2.7031769    3.0942657  -13.6644699  
C    1.2675582    3.3239487  -11.7529972  
O    1.2045835    4.6474707  -12.1372725  
C    0.6128267    2.8007067  -10.6575203  
H    2.0400554   -1.4205165  -11.1485527  
H    2.8663994    0.5833049  -12.9945498  
H    2.4584874    4.0287960  -13.6578073  
H    0.6378263    5.1173639  -11.5179261  
H   -0.0011270    3.4380608  -10.0319651  
H    0.6214217   -1.6197697   -9.0945764  
C    0.2055739   -0.7043959   -5.1603477  
C   -0.8712826    0.0001710   -4.7267111  
C   -1.3726443    0.7423358   -5.8592585  
C   -0.4933182    0.4099879   -6.9964131  
N    0.4429031   -0.4710989   -6.5064486  
C   -0.6357676    0.9095501   -8.2501479  
C   -1.7278970    1.8365864   -8.4958973  
O   -1.9397494    2.3410839   -9.5908411  
C   -2.6713151    2.2028683   -7.3061057  
O   -3.5940523    2.9825347   -7.5008834  
C   -2.4172089    1.5997594   -6.0001417  
H   -3.0751238    1.8584033   -5.1816219  
H    0.8458871   -1.3742665   -4.6097462  
H    1.1831969   -0.8829509   -7.0443978  
C    1.0965514    0.0001359   -0.8010305  
C    0.0000000    0.0000000    0.0000000  
C   -1.1546563    0.0001470   -0.8669513  
C   -0.6372014    0.0003519   -2.2486282  
N    0.7342871    0.0007337   -2.1395014  
C   -1.4147739    0.0001352   -3.3608717  
C   -2.8576049   -0.0001048   -3.1854462  
O   -3.6427779   -0.0002494   -4.1244907  
C   -3.4275840   -0.0000725   -1.7311666  
O   -4.6406831    0.0000333   -1.5710060  
C   -2.4891867   -0.0001091   -0.6116744  
H   -2.8919122   -0.0002918    0.3920866  
H    2.1388272    0.0000663   -0.5261648  
H    1.3735872   -0.0006099   -2.9130262  
C    0.8681109    0.7263879    2.2709268  
C    0.6127770    0.5096195    3.5869401  
C   -0.4920590   -0.4175482    3.6542670  
C   -0.8620974   -0.7254003    2.2596025  
N    0.0000000    0.0000000    1.4700000  
C   -1.8641242   -1.5660088    1.8976294  
C   -2.6293522   -2.2103885    2.9520183  
O   -3.5512764   -2.9839180    2.7283916  
C   -2.2549728   -1.8987399    4.4361073  
O   -2.8923672   -2.4351063    5.3323774  
C   -1.1543735   -0.9755647    4.7012123  
H    1.1382914    0.9492124    4.4159191  
H   -2.1192137   -1.7782617    0.8686553  
H   -0.9013378   -0.7652422    5.7314848  
H    1.6172880    1.3558399    1.8188057  
