62

C   -6.3143419    1.1089215   -0.9135921  
C   -6.1434264    1.9931762    0.1262869  
C   -7.4365481    2.2512125    0.6702126  
C   -8.3651398    1.4898586   -0.0847591  
N   -7.6507096    0.8095187   -1.0394021  
C   -9.7390722    1.4999518    0.1740822  
C  -10.1836596    2.2928402    1.2142013  
O  -11.5152542    2.3395334    1.5103259  
C   -9.2726923    3.0599531    1.9787225  
O   -9.8704610    3.7979918    2.9793785  
C   -7.9171724    3.0506902    1.7237590  
H   -5.2026036    2.4027904    0.4519580  
H   -8.0406604    0.1791051   -1.7165267  
H  -10.4520139    0.9220678   -0.3977275  
H  -11.6075986    2.9438990    2.2583098  
H   -9.1862114    4.2863003    3.4473109  
H   -7.2436821    3.6488937    2.3262882  
C   -3.9834218    0.7255592   -1.7966835  
C   -5.3237509    0.5085137   -1.8186564  
C   -5.5825288   -0.4184187   -2.8950701  
C   -4.2737047   -0.7258308   -3.5027435  
N   -3.3460097   -0.0004262   -2.7913647  
C   -4.0918496   -1.5661180   -4.5527675  
C   -5.2633971   -2.2105922   -5.1225625  
O   -5.2038133   -2.9838537   -6.0695664  
C   -6.6595195   -1.8994068   -4.4950176  
O   -7.6531001   -2.4358567   -4.9664843  
C   -6.7288169   -0.9765510   -3.3648030  
H   -3.1230855   -1.7780504   -4.9834532  
H   -7.6992173   -0.7665488   -2.9359134  
H   -3.4077090    1.3549553   -1.1376654  
C    0.0000000    0.0000000    0.0000000  
C    1.0662919   -0.0000103   -0.8334272  
C    0.4961868    0.0000066   -2.1718889  
C   -0.9663860   -0.0000849   -1.9540248  
N   -1.2632775   -0.0000084   -0.6828659  
C   -1.8985364   -0.0000515   -3.0477258  
C   -1.3925778    0.0004567   -4.3020543  
O   -2.1456385    0.0005412   -5.4151314  
C    0.0786229    0.0009326   -4.5544999  
O    0.4683756    0.0012594   -5.7221104  
C    1.0143162    0.0008443   -3.4159034  
H    2.1107195    0.0000631   -0.5721869  
H   -1.5042277    0.0009692   -6.1484420  
H    2.0724151    0.0013151   -3.6409746  
C    1.1243417   -0.0099156    2.2619005  
C    0.7474090   -0.0234034    3.5848544  
C   -0.6787367   -0.0234952    3.6114698  
C   -1.1201739   -0.0099357    2.2635546  
N    0.0000000    0.0000000    1.4700000  
C   -2.4730812   -0.0065396    1.9108239  
C   -3.3971947   -0.0173298    2.9375057  
O   -4.7313508   -0.0149487    2.6493466  
C   -2.9763630   -0.0305536    4.2886322  
O   -4.0166453   -0.0397858    5.1947621  
C   -1.6418541   -0.0336380    4.6373480  
H    1.4178735   -0.0310004    4.4271209  
H   -2.8160170    0.0039190    0.8854031  
H   -5.1938803   -0.0234410    3.4974381  
H   -3.6464643   -0.0484781    6.0827341  
H   -1.3497443   -0.0436789    5.6809233  
H    2.1062470   -0.0051382    1.8205408  
