60

C    0.5611554   -3.2802123  -10.4527241  
C    0.4691455   -2.5978290   -9.2617773  
C    0.2185755   -1.2309418   -9.5833896  
C    0.1673058   -1.1388270  -10.9978899  
N    0.3811843   -2.4006614  -11.4945263  
C   -0.0633684    0.0655637  -11.6694713  
C   -0.2459079    1.1975332  -10.8990805  
O   -0.4749062    2.3997337  -11.5034711  
C   -0.1979537    1.1259207   -9.4864982  
O   -0.3981940    2.3393389   -8.8613073  
C    0.0298374   -0.0618533   -8.8233015  
H    0.5712840   -3.0316599   -8.2818024  
H    0.3907439   -2.6474253  -12.4676635  
H   -0.1034791    0.1424505  -12.7472840  
H   -0.5724953    3.0479120  -10.7938192  
H   -0.3502556    2.2029858   -7.9101438  
H    0.7423423   -4.3244808  -10.6414936  
C    2.5185220   -2.1418782   -5.7664424  
C    2.0285782   -1.7344766   -6.9604095  
C    0.9435063   -0.8236411   -6.6295061  
C    0.9168306   -0.7971604   -5.1512739  
N    1.8378571   -1.5679055   -4.6397540  
C   -0.0307352   -0.0004646   -4.4215603  
C   -0.9113598    0.7365842   -5.1361191  
O   -1.8501208    1.5254492   -4.5861545  
C   -0.9094201    0.7313057   -6.6288110  
O   -1.7398704    1.4264151   -7.2139569  
C    0.0724715   -0.0942327   -7.3542764  
H    2.3623455   -2.0170710   -7.9441861  
H   -2.3197100    1.9176027   -5.3443463  
H    3.3327631   -2.8241128   -5.5805892  
C    3.2573670   -0.0002920   -1.5109380  
C    2.5379468   -0.0001709   -0.3591961  
C    1.1435043    0.0000332   -0.7338500  
C    1.1092609   -0.0000082   -2.2088477  
N    2.4227562    0.0001909   -2.6182613  
C   -0.0265532   -0.0002522   -2.9515663  
C   -1.3003035   -0.0002639   -2.2514981  
O   -2.3786784   -0.0004131   -2.8306429  
C   -1.2877725    0.0000312   -0.6895608  
O   -2.3539958    0.0003307   -0.0892036  
C    0.0000000    0.0000000    0.0000000  
H    2.9384091   -0.0000369    0.6389239  
H    4.3270394   -0.0004765   -1.6439446  
H    2.7280494   -0.0013406   -3.5742113  
C    0.8175213    0.6860729    2.3021913  
C    0.0000000    0.0000000    1.4700000  
C   -0.8887526   -0.7456559    2.3478473  
C   -0.4549825   -0.3816753    3.7138435  
N    0.5448156    0.4573574    3.6934124  
C   -1.0945674   -0.9182058    4.8835240  
C   -2.1210866   -1.7789155    4.6970523  
O   -2.8083856   -2.3554314    5.6976972  
C   -2.5824069   -2.1655116    3.3310774  
O   -3.5227682   -2.9541547    3.2362962  
C   -1.9100805   -1.6015804    2.1470656  
H   -0.7567140   -0.6349833    5.8697035  
H   -3.4728268   -2.9124471    5.2533954  
H   -2.2742832   -1.9066565    1.1752040  
H    1.6189533    1.3585343    2.0405121  
