60

C    5.6407084    0.0170451   -0.6743878  
C    6.9070328    0.0276883   -1.2117678  
C    6.7574705    0.0178706   -2.6302651  
C    5.3653958    0.0014762   -2.9019005  
N    4.7161324   -0.0005436   -1.6923263  
C    4.8484260   -0.0112556   -4.2008880  
C    5.7532269   -0.0070596   -5.2446776  
O    5.3026480   -0.0186573   -6.5330319  
C    7.1459462    0.0088555   -4.9938830  
O    7.9167817    0.0107073   -6.1380644  
C    7.6566613    0.0211486   -3.7126557  
H    7.8255871    0.0397976   -0.6504254  
H    3.7885338   -0.0239203   -4.4145927  
H    6.0871799   -0.0135228   -7.0967235  
H    8.8436403    0.0218184   -5.8803511  
H    8.7282987    0.0330394   -3.5516247  
H    5.3238838    0.0191630    0.3544836  
C    3.2573666   -0.0002920   -1.5109384  
C    2.5379463   -0.0001710   -0.3591964  
C    1.1435039    0.0000331   -0.7338498  
C    1.1092600   -0.0000083   -2.2088476  
N    2.4227554    0.0001909   -2.6182613  
C   -0.0265538   -0.0002524   -2.9515660  
C   -1.3003040   -0.0002640   -2.2514976  
O   -2.3786789   -0.0004133   -2.8306420  
C   -1.2877727    0.0000311   -0.6895603  
O   -2.3539960    0.0003306   -0.0892032  
C    0.0000000    0.0000000    0.0000000  
H    2.9384090   -0.0000368    0.6389236  
H    2.7280484   -0.0013407   -3.5742118  
C    2.5185197   -2.1418787   -5.7664439  
C    2.0285751   -1.7344767   -6.9604107  
C    0.9435035   -0.8236412   -6.6295062  
C    0.9168287   -0.7971605   -5.1512735  
N    1.8378554   -1.5679056   -4.6397551  
C   -0.0307367   -0.0004647   -4.4215603  
C   -0.9113618    0.7365841   -5.1361181  
O   -1.8501224    1.5254491   -4.5861534  
C   -0.9094229    0.7313056   -6.6288095  
O   -1.7398736    1.4264151   -7.2139554  
C    0.0724681   -0.0942327   -7.3542759  
H    2.3623416   -2.0170713   -7.9441870  
H   -2.3197121    1.9176026   -5.3443445  
H    0.0410931   -0.0704048   -8.4353302  
H    3.3327608   -2.8241129   -5.5805912  
C    0.0000000    0.0000000    1.4700000  
C    1.0662921    0.0000102    2.3034270  
C    0.4961870   -0.0000064    3.6418889  
C   -0.9663858    0.0000850    3.4240247  
N   -1.2632773    0.0000084    2.1528658  
C   -1.8985362    0.0000517    4.5177257  
C   -1.3925775   -0.0004564    5.7720543  
O   -2.1456383   -0.0005410    6.8851312  
C    0.0786232   -0.0009323    6.0245000  
O    0.4683759   -0.0012588    7.1921102  
C    1.0143166   -0.0008442    4.8859032  
H    2.1107198   -0.0000632    2.0421868  
H   -2.9622183    0.0003270    4.3293377  
H   -1.5042274   -0.0009692    7.6184419  
H    2.0724152   -0.0013148    5.1109744  
