64

C    8.1647704   -0.0114229   -0.4606098  
C    8.3723060   -0.0142675    0.8993121  
C    9.7836863   -0.0306551    1.1050708  
C   10.3911106   -0.0369727   -0.1766943  
N    9.3796858   -0.0269319   -1.1048839  
C   11.7775521   -0.0525618   -0.3564962  
C   12.5651505   -0.0616374    0.7783092  
O   13.9248721   -0.0765858    0.6602147  
C   11.9777585   -0.0559193    2.0658473  
O   12.8957543   -0.0667783    3.0956571  
C   10.6100719   -0.0408147    2.2439772  
H    7.6012713   -0.0067026    1.6506059  
H    9.5060547   -0.0177953   -2.1008399  
H   12.2467038   -0.0575921   -1.3307004  
H   14.2770390   -0.0810784    1.5597836  
H   12.4168592   -0.0619532    3.9300665  
H   10.1890503   -0.0369461    3.2425779  
C    5.6484569   -0.0000686   -0.6807739  
C    4.7161325   -0.0005435   -1.6923264  
C    5.4371286    0.0004108   -2.9230838  
C    6.8175141    0.0011684   -2.5968001  
N    6.9105275    0.0028041   -1.2271422  
C    7.8240136    0.0018986   -3.5672365  
C    7.4298419    0.0015563   -4.8911725  
O    8.3714605    0.0018862   -5.8792852  
C    6.0574640    0.0011769   -5.2367107  
O    5.8267420    0.0012901   -6.5968985  
C    5.0639868    0.0007298   -4.2798774  
H    8.8778474    0.0026221   -3.3250874  
H    7.8889785    0.0018580   -6.7162292  
H    4.8759901    0.0009876   -6.7441180  
H    4.0211712    0.0006278   -4.5748594  
H    5.5130316   -0.0001059    0.3872235  
C    3.2573665   -0.0002920   -1.5109385  
C    2.5379463   -0.0001709   -0.3591964  
C    1.1435038    0.0000331   -0.7338500  
C    1.1092599   -0.0000083   -2.2088477  
N    2.4227553    0.0001909   -2.6182613  
C   -0.0265539   -0.0002524   -2.9515660  
C   -1.3003040   -0.0002640   -2.2514977  
O   -2.3786790   -0.0004133   -2.8306421  
C   -1.2877727    0.0000311   -0.6895603  
O   -2.3539959    0.0003306   -0.0892030  
C    0.0000000    0.0000000    0.0000000  
H    2.9384091   -0.0000367    0.6389234  
H   -0.0296303   -0.0004086   -4.0327229  
H    2.7280482   -0.0013407   -3.5742119  
C    0.0000000    0.0000000    1.4700000  
C    1.0521667    0.0011902    2.3562342  
C    0.4917218    0.0011957    3.6679131  
C   -0.9187428   -0.0003148    3.5178682  
N   -1.1833171    0.0009411    2.1707914  
C   -1.7951701   -0.0010350    4.6072090  
C   -1.2375837   -0.0005224    5.8710424  
O   -2.0474215   -0.0015360    6.9697579  
C    0.1673580    0.0013566    6.0411963  
O    0.5673524    0.0020687    7.3615553  
C    1.0325770    0.0023412    4.9669890  
H    2.0953057    0.0030649    2.0900562  
H   -2.0989778   -0.0102372    1.7591824  
H   -2.8710934   -0.0020419    4.4995513  
H   -1.4634884   -0.0006497    7.7393593  
H    1.5290710    0.0033153    7.3880045  
H    2.1042148    0.0039609    5.1284455  
