64

C    0.6847735   -0.6149195   -9.6560126  
C    0.1744505    0.6290811   -9.3653221  
C    0.6518836    1.5204505  -10.3713623  
C    1.4554024    0.7570604  -11.2565289  
N    1.4557158   -0.5347885  -10.7920472  
C    2.0908353    1.3129297  -12.3709910  
C    1.9116123    2.6639885  -12.5961510  
O    2.5090800    3.2578203  -13.6701209  
C    1.1139213    3.4424931  -11.7241226  
O    1.0331995    4.7721770  -12.0829668  
C    0.4869734    2.8948360  -10.6243353  
H    1.9330229   -1.3061266  -11.2223917  
H    2.7046691    0.7365558  -13.0493720  
H    2.2579784    4.1902254  -13.6412694  
H    0.4767762    5.2266521  -11.4430842  
H   -0.1176853    3.5162761   -9.9741977  
H    0.5609932   -1.5527342   -9.1420653  
C    0.2216275   -0.7182092   -5.1532606  
C   -0.8712826    0.0001710   -4.7267111  
C   -1.3561987    0.7285934   -5.8531470  
C   -0.5122259    0.4119091   -6.9482939  
N    0.4362931   -0.4675016   -6.4883311  
C   -0.6953620    0.9515862   -8.2250078  
C   -1.7498730    1.8266644   -8.3994262  
O   -1.9744423    2.3824392   -9.6256790  
C   -2.6027032    2.1552817   -7.3189133  
O   -3.6065569    3.0408906   -7.6525589  
C   -2.4224660    1.6234646   -6.0590675  
H    1.1661418   -0.8765333   -7.0433044  
H   -2.7470716    2.9542363   -9.5289473  
H   -4.1364908    3.2097556   -6.8675377  
H   -3.0918143    1.8939823   -5.2508155  
H    0.8658683   -1.3884854   -4.6104509  
C    1.0965514    0.0001359   -0.8010305  
C    0.0000000    0.0000000    0.0000000  
C   -1.1546563    0.0001470   -0.8669513  
C   -0.6372014    0.0003519   -2.2486282  
N    0.7342871    0.0007337   -2.1395014  
C   -1.4147739    0.0001352   -3.3608717  
C   -2.8576049   -0.0001048   -3.1854462  
O   -3.6427779   -0.0002494   -4.1244907  
C   -3.4275840   -0.0000725   -1.7311666  
O   -4.6406831    0.0000333   -1.5710060  
C   -2.4891867   -0.0001091   -0.6116744  
H   -2.8919122   -0.0002918    0.3920866  
H    2.1388272    0.0000663   -0.5261648  
H    1.3735872   -0.0006099   -2.9130262  
C    2.5285572    2.1210227    2.9438989  
C    1.9331703    1.6216660    4.0790748  
C    0.8903039    0.7472258    3.6520102  
C    0.8972198    0.7527806    2.2336141  
N    1.9028376    1.5986179    1.8362361  
C    0.0000000    0.0000000    1.4700000  
C   -0.9207814   -0.7726952    2.1506477  
O   -1.8198395   -1.5274828    1.4542253  
C   -0.9436862   -0.7911793    3.5655508  
O   -1.9197945   -1.6098497    4.0950179  
C   -0.0590329   -0.0485852    4.3195194  
H    2.2150357    1.8593692    5.0905303  
H    2.1533708    1.7953814    0.8841339  
H   -2.3621246   -1.9821033    2.1118817  
H   -1.8668290   -1.5649508    5.0545920  
H   -0.1007624   -0.0827977    5.4019087  
H    3.3491200    2.8096064    2.8367138  
