64

C    2.8326037   -0.6833169   -3.3633887  
C    1.6628925    0.0340039   -3.2649298  
C    1.5245657    0.7732864   -4.4769228  
C    2.6494000    0.4640148   -5.2837844  
N    3.4243857   -0.4216253   -4.5769211  
C    2.8434623    1.0151249   -6.5539838  
C    1.8843885    1.8942270   -7.0182412  
O    2.0241860    2.4610989   -8.2519861  
C    0.7553092    2.2155784   -6.2278433  
O   -0.1091983    3.1064613   -6.8297557  
C    0.5633518    1.6724810   -4.9745581  
H    4.2836781   -0.8276226   -4.9005934  
H    1.2565215    3.0339106   -8.3778529  
H   -0.8436592    3.2698334   -6.2301885  
H   -0.3112987    1.9376388   -4.3921873  
H    3.2923186   -1.3598082   -2.6634028  
C    1.1243406    0.0100688   -0.7919002  
C    0.7474059    0.0235054   -2.1148541  
C   -0.6787399    0.0234027   -2.1414695  
C   -1.1201753    0.0097828   -0.7935544  
N    0.0000000    0.0000000    0.0000000  
C   -2.4730820    0.0062021   -0.4408240  
C   -3.3971973    0.0168663   -1.4675053  
O   -4.7313527    0.0143032   -1.1793467  
C   -2.9763671    0.0301476   -2.8186322  
O   -4.0166505    0.0392380   -3.7247624  
C   -1.6418583    0.0334141   -3.1673479  
H   -2.8160161   -0.0043035    0.5845968  
H   -5.1938832    0.0227323   -2.0274379  
H   -3.6464707    0.0479806   -4.6127339  
H   -1.3497499    0.0434950   -4.2109234  
H    2.1062463    0.0054254   -0.3505402  
C    4.5786180   -0.5424197   -7.5387566  
C    4.0061024    0.7003593   -7.3966531  
C    4.7543969    1.5993120   -8.2130713  
C    5.7796843    0.8415957   -8.8348255  
N    5.6454167   -0.4543295   -8.4021971  
C    6.7105706    1.4055875   -9.7124093  
C    6.6043156    2.7590883   -9.9672094  
O    7.4871444    3.3607866  -10.8166721  
C    5.5884101    3.5320203   -9.3562017  
O    5.6151353    4.8650622   -9.7106420  
C    4.6698942    2.9763458   -8.4901300  
H    6.2267974   -1.2231331   -8.6831226  
H    7.4944510    0.8335673  -10.1894052  
H    7.2385202    4.2935936  -10.8530536  
H    4.8973422    5.3153719   -9.2550130  
H    3.9029763    3.5936568   -8.0370923  
H    4.3112813   -1.4844213   -7.0914049  
C    0.8681109    0.7263879    2.2709268  
C    0.6127770    0.5096195    3.5869401  
C   -0.4920590   -0.4175482    3.6542670  
C   -0.8620974   -0.7254003    2.2596025  
N    0.0000000    0.0000000    1.4700000  
C   -1.8641242   -1.5660088    1.8976294  
C   -2.6293522   -2.2103885    2.9520183  
O   -3.5512764   -2.9839180    2.7283916  
C   -2.2549728   -1.8987399    4.4361073  
O   -2.8923672   -2.4351063    5.3323774  
C   -1.1543735   -0.9755647    4.7012123  
H    1.1382914    0.9492124    4.4159191  
H   -2.1192137   -1.7782617    0.8686553  
H   -0.9013378   -0.7652422    5.7314848  
H    1.6172880    1.3558399    1.8188057  
