62

C    4.7543102   -2.1269676    0.2015871  
C    5.7108091   -1.6294013    1.0559903  
C    6.5372755   -0.7537912    0.2912288  
C    6.0322933   -0.7568195   -1.0342557  
N    4.9509496   -1.6023425   -1.0543787  
C    6.6040902   -0.0023257   -2.0631269  
C    7.7055483    0.7695164   -1.7481217  
O    8.3026823    1.5258982   -2.7147306  
C    8.2242747    0.7854866   -0.4315028  
O    9.3244073    1.6035951   -0.2773960  
C    7.6608548    0.0412016    0.5839398  
H    5.8023475   -1.8690187    2.1015511  
H    4.3817252   -1.7975063   -1.8580426  
H    9.0416266    1.9795585   -2.2887997  
H    9.6120589    1.5569645    0.6394936  
H    8.0803452    0.0735005    1.5826703  
H    3.9482477   -2.8156812    0.3883880  
C    2.4521485    0.0014838   -3.7217479  
C    3.5379007    0.0003034   -2.8769945  
C    4.7042704    0.0010689   -3.6980798  
C    4.2640505    0.0030183   -5.0464602  
N    2.8914059    0.0012707   -5.0249751  
C    5.1472042    0.0045259   -6.1303535  
C    6.4993915    0.0043639   -5.8479195  
O    7.4055691    0.0061451   -6.8686304  
C    6.9581315    0.0020568   -4.5091255  
O    8.3328189    0.0017762   -4.3925955  
C    6.0874477    0.0002954   -3.4393439  
H    3.4945818   -0.0020601   -1.8013036  
H    2.2982903    0.0125971   -5.8349547  
H    4.8180480    0.0058704   -7.1603320  
H    8.2798215    0.0053853   -6.4575981  
H    8.5587829    0.0001975   -3.4574264  
C    0.0000000    0.0000000    0.0000000  
C    1.0662924   -0.0000102   -0.8334267  
C    0.4961874    0.0000064   -2.1718888  
C   -0.9663853   -0.0000849   -1.9540250  
N   -1.2632772   -0.0000084   -0.6828660  
C   -1.8985357   -0.0000515   -3.0477261  
C   -1.3925767    0.0004566   -4.3020548  
O   -2.1456375    0.0005411   -5.4151316  
C    0.0786242    0.0009324   -4.5545000  
O    0.4683770    0.0012590   -5.7221099  
C    1.0143173    0.0008443   -3.4159029  
H    2.1107200    0.0000632   -0.5721862  
H   -2.9622180   -0.0003269   -2.8593382  
H   -1.5042262    0.0009694   -6.1484423  
C    1.0672568    0.0000697    2.3021913  
C    0.0000000    0.0000000    1.4700000  
C   -1.1601224    0.0000736    2.3478473  
C   -0.5938729    0.0000769    3.7138435  
N    0.7113367    0.0001554    3.6934124  
C   -1.4286986    0.0001879    4.8835240  
C   -2.7683114    0.0006799    4.6970523  
O   -3.6653903    0.0008304    5.6976972  
C   -3.3702025    0.0010610    3.3310774  
O   -4.5974910    0.0013779    3.2362962  
C   -2.4926826    0.0008943    2.1470656  
H   -0.9878360   -0.0000190    5.8697035  
H   -4.5324246    0.0012261    5.2533954  
H   -2.9677772    0.0012974    1.1752040  
H    2.1134392    0.0000545    2.0405121  
