60

C    0.9815271   -0.0035294   -7.6094495  
C   -0.3322992   -0.0007638   -7.2016272  
C   -1.1343876   -0.0005925   -8.3811420  
C   -0.2471396   -0.0036302   -9.4878071  
N    1.0298325   -0.0034038   -8.9838640  
C   -0.6915548   -0.0046330  -10.8134331  
C   -2.0565079   -0.0028382  -11.0257530  
O   -2.5447402   -0.0040611  -12.3003676  
C   -2.9577072    0.0005736   -9.9345866  
O   -4.2852364    0.0024387  -10.3100932  
C   -2.5199874    0.0018380   -8.6265627  
H   -0.6709233    0.0020278   -6.1797081  
H    1.8703720   -0.0157504   -9.5327912  
H   -0.0204749   -0.0068011  -11.6612815  
H   -3.5077623   -0.0021440  -12.2238773  
H   -4.8263297    0.0046837   -9.5145956  
H   -3.2340544    0.0046447   -7.8113455  
C    1.6707638   -0.0012342   -3.2725973  
C    3.0286798   -0.0026501   -3.2608754  
C    3.4615710   -0.0042637   -4.6383507  
C    2.2357545   -0.0036382   -5.4594256  
N    1.1849517   -0.0021879   -4.5713373  
C    2.2192683   -0.0043575   -6.8164193  
C    3.4939012   -0.0060733   -7.5148769  
O    3.5845456   -0.0068920   -8.7355668  
C    4.8047152   -0.0070137   -6.6654233  
O    5.8837806   -0.0087651   -7.2423779  
C    4.6947477   -0.0058258   -5.2087977  
H    3.6555464   -0.0027554   -2.3870037  
H    5.6070596   -0.0062824   -4.6279272  
H    0.2146122    0.0000903   -4.8272343  
C    1.0965515    0.0001359   -0.8010305  
C    0.0000000    0.0000000    0.0000000  
C   -1.1546564    0.0001470   -0.8669509  
C   -0.6372018    0.0003521   -2.2486279  
N    0.7342868    0.0007339   -2.1395011  
C   -1.4147743    0.0001355   -3.3608714  
C   -2.8576049   -0.0001046   -3.1854455  
O   -3.6427782   -0.0002491   -4.1244898  
C   -3.4275842   -0.0000725   -1.7311664  
O   -4.6406831    0.0000334   -1.5710053  
C   -2.4891868   -0.0001091   -0.6116742  
H   -1.0150456    0.0001619   -4.3654242  
H   -2.8919123   -0.0002920    0.3920869  
H    2.1388270    0.0000663   -0.5261648  
C    0.8175213    0.6860729    2.3021913  
C    0.0000000    0.0000000    1.4700000  
C   -0.8887526   -0.7456559    2.3478473  
C   -0.4549825   -0.3816753    3.7138435  
N    0.5448156    0.4573574    3.6934124  
C   -1.0945674   -0.9182058    4.8835240  
C   -2.1210866   -1.7789155    4.6970523  
O   -2.8083856   -2.3554314    5.6976972  
C   -2.5824069   -2.1655116    3.3310774  
O   -3.5227682   -2.9541547    3.2362962  
C   -1.9100805   -1.6015804    2.1470656  
H   -0.7567140   -0.6349833    5.8697035  
H   -3.4728268   -2.9124471    5.2533954  
H   -2.2742832   -1.9066565    1.1752040  
H    1.6189533    1.3585343    2.0405121  
