60

C    3.3745844   -0.7162652   -7.4797994  
C    2.4108149    0.0007325   -8.1502690  
C    3.0753291    0.7285637   -9.1814255  
C    4.4552148    0.4129600   -9.0906817  
N    4.6025546   -0.4652648   -8.0458705  
C    5.4128266    0.9524282   -9.9548241  
C    4.9693308    1.8261823  -10.9285003  
O    5.8619417    2.3816954  -11.7989395  
C    3.5966508    2.1537079  -11.0347665  
O    3.3135871    3.0380594  -12.0551302  
C    2.6514246    1.6220966  -10.1824384  
H    5.4703958   -0.8733687   -7.7487445  
H    6.4660195    0.7160203   -9.8908056  
H    5.3506218    2.9525183  -12.3871378  
H    2.3663224    3.2062444  -12.0578097  
H    1.6071015    1.8917584  -10.2880330  
H    3.2834087   -1.3857400   -6.6416770  
C   -0.0307354   -0.0004645   -4.4215603  
C    1.0331815   -0.0004860   -5.2580174  
C    0.4592711   -0.0007213   -6.5948515  
C   -1.0026758   -0.0009313   -6.3728279  
N   -1.2959501   -0.0007014   -5.1008297  
C   -1.9379340   -0.0011519   -7.4638729  
C   -1.4355456   -0.0007729   -8.7196356  
O   -2.1917699   -0.0009264   -9.8305658  
C    0.0349312   -0.0001826   -8.9762653  
O    0.4213604    0.0000150  -10.1449796  
C    0.9738597   -0.0000102   -7.8403354  
H    2.0783481   -0.0002676   -4.9997493  
H   -3.0010760   -0.0015090   -7.2724597  
H   -1.5524475   -0.0005388  -10.5656984  
C    3.2573669   -0.0002919   -1.5109381  
C    2.5379467   -0.0001709   -0.3591962  
C    1.1435042    0.0000332   -0.7338501  
C    1.1092607   -0.0000081   -2.2088477  
N    2.4227561    0.0001910   -2.6182614  
C   -0.0265534   -0.0002522   -2.9515663  
C   -1.3003036   -0.0002639   -2.2514981  
O   -2.3786785   -0.0004131   -2.8306428  
C   -1.2877726    0.0000312   -0.6895608  
O   -2.3539957    0.0003306   -0.0892035  
C    0.0000000    0.0000000    0.0000000  
H    2.9384091   -0.0000368    0.6389238  
H    4.3270391   -0.0004764   -1.6439447  
H    2.7280492   -0.0013405   -3.5742114  
C    2.4951002    2.0940188    2.9809380  
C    1.9440701    1.6314916    1.8291961  
C    0.8759964    0.7350050    2.2038498  
C    0.8497377    0.7130254    3.6788474  
N    1.8560616    1.5571714    4.0882609  
C   -0.0205033   -0.0168748    4.4215661  
C   -0.9962600   -0.8356168    3.7214979  
O   -1.8224391   -1.5286685    4.3006425  
C   -0.9864710   -0.8277881    2.1595606  
O   -1.8030528   -1.5133726    1.5592035  
C    0.0000000    0.0000000    1.4700000  
H    2.2509283    1.8888011    0.8310761  
H   -0.0229599   -0.0187323    5.5027230  
H    3.3143982    2.7817323    3.1139444  
H    2.0889452    1.7545833    5.0442112  
