64

C    8.7198847   -0.0070068   -0.3500450  
C    8.0463143   -0.0086605    0.8494411  
C    9.0320029   -0.0105857    1.8804669  
C   10.2997516   -0.0097147    1.2442770  
N   10.0740076   -0.0094886   -0.1098483  
C   11.5031229   -0.0108282    1.9560960  
C   11.4252912   -0.0125511    3.3352683  
O   12.5696163   -0.0133439    4.0792667  
C   10.1697790   -0.0138183    3.9883421  
O   10.2593514   -0.0159010    5.3650472  
C    8.9822201   -0.0129940    3.2867528  
H    6.9761720   -0.0096041    0.9668616  
H   10.7866004    0.0016562   -0.8170031  
H   12.4725704   -0.0103175    1.4771664  
H   12.2934160   -0.0148247    5.0049979  
H    9.3682815   -0.0166194    5.7278118  
H    8.0356923   -0.0141854    3.8145421  
C    4.5679461   -0.0016854   -2.0086701  
C    5.6536977   -0.0029015   -1.1639157  
C    6.8200674   -0.0036870   -1.9850011  
C    6.3798486   -0.0026036   -3.3333826  
N    5.0072029   -0.0033526   -3.3118966  
C    7.2630029   -0.0026750   -4.4172763  
C    8.6151888   -0.0035548   -4.1348421  
O    9.5213690   -0.0033137   -5.1555543  
C    9.0739284   -0.0050177   -2.7960465  
O   10.4486143   -0.0061774   -2.6795158  
C    8.2032438   -0.0052214   -1.7262641  
H    5.6103771   -0.0042927   -0.0882231  
H    4.4140952    0.0076882   -4.1218860  
H    6.9338474   -0.0019968   -5.4472560  
H   10.3956198   -0.0043382   -4.7445210  
H   10.6745774   -0.0070990   -1.7443454  
C    3.1301149   -0.0010311   -1.7028252  
C    2.5367768   -0.0002767   -0.4864665  
C    1.1089904    0.0001028   -0.7656183  
C    1.0177872   -0.0004148   -2.2415132  
N    2.1993578   -0.0011611   -2.7963820  
C   -0.2459209   -0.0002877   -2.9257118  
C   -1.3675319   -0.0000605   -2.1698524  
O   -2.6129313    0.0000867   -2.6748490  
C   -1.3083584    0.0000910   -0.6783232  
O   -2.3693261    0.0004206   -0.0541692  
C    0.0000000    0.0000000    0.0000000  
H    3.0096017   -0.0001007    0.4807525  
H   -0.2829630   -0.0004687   -4.0053125  
H   -3.1967441    0.0002094   -1.8949034  
C    0.8576279    0.7185626    2.2703808  
C    0.0000000    0.0000000    1.4700000  
C   -0.8668858   -0.7285659    2.3373528  
C   -0.4876752   -0.4117774    3.6669281  
N    0.5635254    0.4678311    3.5902241  
C   -1.1297612   -0.9515493    4.7854808  
C   -2.1738724   -1.8268314    4.5576857  
O   -2.8357962   -2.3827064    5.6140350  
C   -2.5667212   -2.1555554    3.2384331  
O   -3.6226318   -3.0413663    3.1773122  
C   -1.9335634   -1.6236449    2.1344818  
H    1.0363952    0.8769718    4.3757045  
H   -0.8454472   -0.7142436    5.8013813  
H   -3.5178062   -2.9546422    5.2385129  
H   -3.8247440   -3.2102924    2.2519915  
H   -2.2566033   -1.8942483    1.1360343  
H    1.6567807    1.3889844    2.0042067  
