62

C   -3.9412397    0.7226563   -6.3216500  
C   -3.2634629    0.0038449   -7.2789358  
C   -4.2397105   -0.7231887   -8.0225496  
C   -5.5063260   -0.4052523   -7.4688992  
N   -5.2888334    0.4735357   -6.4368885  
C   -6.7012653   -0.9433830   -7.9560583  
C   -6.6160373   -1.8181733   -9.0217292  
O   -7.7520005   -2.3724594   -9.5368694  
C   -5.3614886   -2.1480250   -9.5875239  
O   -5.4430294   -3.0331585  -10.6426223  
C   -4.1822219   -1.6177337   -9.1072662  
H   -6.0036118    0.8831796   -5.8630733  
H   -7.6697901   -0.7051960   -7.5384125  
H   -7.4716368   -2.9443152  -10.2632595  
H   -4.5532084   -3.2029268  -10.9666621  
H   -3.2362061   -1.8891725   -9.5609770  
H   -3.5698966    1.3922330   -5.5648607  
C    0.0950448    0.0004350   -4.4015596  
C    1.1162027   -0.0007609   -5.3233526  
C    0.5111087   -0.0004559   -6.6150419  
C   -0.8933808    0.0012410   -6.4167190  
N   -1.1116072   -0.0002072   -5.0613621  
C   -1.8066471    0.0022811   -7.4753654  
C   -1.2927267    0.0019023   -8.7575754  
O   -2.1397637    0.0032273   -9.8278748  
C    0.1055538   -0.0001591   -8.9758059  
O    0.4600366   -0.0007036  -10.3091058  
C    1.0070993   -0.0014589   -7.9319005  
H    2.1678556   -0.0028386   -5.0931014  
H   -2.0126134    0.0110379   -4.6185943  
H   -1.5825647    0.0023856  -10.6170477  
H    1.4202825   -0.0020902  -10.3685178  
H    2.0725704   -0.0032120   -8.1300093  
C    3.3321173    0.0004714   -1.3379336  
C    2.6974184    0.0000115   -2.5332313  
C    1.2800437   -0.0002119   -2.2052840  
C    1.2395034    0.0000643   -0.7271298  
N    2.4394063    0.0005459   -0.2131037  
C    0.0000000    0.0000000    0.0000000  
C   -1.1468702    0.0000634   -0.7169544  
O   -2.3742202    0.0000072   -0.1695489  
C   -1.1388770    0.0001606   -2.2096356  
O   -2.2206231    0.0000903   -2.7970412  
C    0.1454523    0.0001814   -2.9324241  
H    3.1367986   -0.0000653   -3.5160949  
H   -2.9844345    0.0001025   -0.9290168  
H    4.3940040    0.0007618   -1.1498638  
C    0.8681109    0.7263879    2.2709268  
C    0.6127770    0.5096195    3.5869401  
C   -0.4920590   -0.4175482    3.6542670  
C   -0.8620974   -0.7254003    2.2596025  
N    0.0000000    0.0000000    1.4700000  
C   -1.8641242   -1.5660088    1.8976294  
C   -2.6293522   -2.2103885    2.9520183  
O   -3.5512764   -2.9839180    2.7283916  
C   -2.2549728   -1.8987399    4.4361073  
O   -2.8923672   -2.4351063    5.3323774  
C   -1.1543735   -0.9755647    4.7012123  
H    1.1382914    0.9492124    4.4159191  
H   -2.1192137   -1.7782617    0.8686553  
H   -0.9013378   -0.7652422    5.7314848  
H    1.6172880    1.3558399    1.8188057  
