62

C    4.5993249    0.0912751   -8.0163859  
C    5.6623270   -0.5560440   -8.6024504  
C    5.6917703   -0.1538118   -9.9706394  
C    4.6135744    0.7475819  -10.1627571  
N    3.9696836    0.8726563   -8.9567816  
C    4.3386416    1.3459191  -11.3961243  
C    5.1674186    1.0287578  -12.4547624  
O    4.9443712    1.5848932  -13.6811296  
C    6.2480847    0.1312788  -12.2829810  
O    6.9806650   -0.0830716  -13.4322090  
C    6.5197406   -0.4595771  -11.0665854  
H    6.3332527   -1.2355162   -8.1052890  
H    3.1708234    1.4554440   -8.7831104  
H    3.5183625    2.0336251  -11.5491125  
H    5.6269966    1.2344896  -14.2680751  
H    7.6903501   -0.7003118  -13.2298105  
H    7.3545043   -1.1432556  -10.9654330  
C    6.0229652   -2.1225939   -4.4623866  
C    5.0768602   -1.6606646   -3.5769639  
C    4.2270067   -0.7730859   -4.3012242  
C    4.7073242   -0.7328636   -5.6352421  
N    5.7996513   -1.5620047   -5.6981937  
C    4.1081198    0.0435404   -6.6317055  
C    3.0037397    0.7927577   -6.2750608  
O    2.3799023    1.5684388   -7.2089565  
C    2.5098139    0.7661276   -4.9491105  
O    1.4036787    1.5666794   -4.7518146  
C    3.1006054    0.0006263   -3.9654951  
H    5.0084068   -1.9294177   -2.5367340  
H    6.3439227   -1.7433061   -6.5221355  
H    1.6440970    2.0014225   -6.7568719  
H    1.1338959    1.4912305   -3.8314186  
H    6.8402644   -2.8064839   -4.3098213  
C    3.2798083    0.0005857   -1.4499652  
C    2.5571142    0.0005565   -2.5996556  
C    1.1637432    0.0001548   -2.2210361  
C    1.1336964   -0.0000200   -0.7459473  
N    2.4483512   -0.0001428   -0.3402723  
C    0.0000000    0.0000000    0.0000000  
C   -1.2757368   -0.0000186   -0.6964415  
O   -2.3524598   -0.0000639   -0.1142311  
C   -1.2676497   -0.0000872   -2.2584083  
O   -2.3355766   -0.0004101   -2.8557295  
C    0.0181558    0.0001758   -2.9516296  
H    0.0150788    0.0003319   -4.0331631  
H    4.3498547    0.0008612   -1.3200026  
H    2.7563626    0.0012823    0.6148059  
C    0.8681109    0.7263879    2.2709268  
C    0.6127770    0.5096195    3.5869401  
C   -0.4920590   -0.4175482    3.6542670  
C   -0.8620974   -0.7254003    2.2596025  
N    0.0000000    0.0000000    1.4700000  
C   -1.8641242   -1.5660088    1.8976294  
C   -2.6293522   -2.2103885    2.9520183  
O   -3.5512764   -2.9839180    2.7283916  
C   -2.2549728   -1.8987399    4.4361073  
O   -2.8923672   -2.4351063    5.3323774  
C   -1.1543735   -0.9755647    4.7012123  
H    1.1382914    0.9492124    4.4159191  
H   -2.1192137   -1.7782617    0.8686553  
H   -0.9013378   -0.7652422    5.7314848  
H    1.6172880    1.3558399    1.8188057  
