60

C    4.7290590   -4.2351716    1.0378691  
C    5.9179365   -4.8976518    0.8374741  
C    6.3953059   -4.5157271   -0.4512666  
C    5.4480115   -3.6105267   -0.9945627  
N    4.4480975   -3.4637504   -0.0654520  
C    5.5958116   -3.0286412   -2.2572396  
C    6.7205383   -3.3664744   -2.9845881  
O    6.9146688   -2.8270071   -4.2232584  
C    7.6768284   -4.2680747   -2.4597616  
O    8.7411778   -4.5038373   -3.3052911  
C    7.5315318   -4.8427080   -1.2142854  
H    6.3832581   -5.5739383    1.5339701  
H    3.6424789   -2.8734949   -0.1682062  
H    7.7473548   -3.1902443   -4.5518249  
H    9.3397332   -5.1224668   -2.8756004  
H    8.2805869   -5.5300340   -0.8388146  
H    4.0585611   -4.2529997    1.8799337  
C    4.6190968   -2.0899184   -2.8279655  
C    3.4606682   -1.6280054   -2.2906065  
C    2.8761398   -0.7301691   -3.2586208  
C    3.7955627   -0.7067279   -4.4122682  
N    4.8319959   -1.5514027   -4.0878919  
C    3.5979907    0.0246981   -5.5381832  
C    2.3999524    0.8436574   -5.6190798  
O    2.1321338    1.5380351   -6.5908892  
C    1.4124494    0.8342976   -4.4088910  
O    0.4006151    1.5200499   -4.4654206  
C    1.7334695    0.0049281   -3.2500363  
H    3.0613138   -1.8865706   -1.3260995  
H    4.2848589    0.0276115   -6.3731168  
H    5.6204858   -1.7480977   -4.6766556  
C    1.1319246    0.0015678   -0.8009268  
C    0.7969914    0.0034958   -2.1169401  
C   -0.6453340    0.0035696   -2.1842669  
C   -1.1266832    0.0015410   -0.7896025  
N    0.0000000    0.0000000    0.0000000  
C   -2.4346129    0.0013913   -0.4276292  
C   -3.4350111    0.0031335   -1.4820181  
O   -4.6384614    0.0030875   -1.2583914  
C   -2.9478961    0.0050442   -2.9661074  
O   -3.7809382    0.0062135   -3.8623773  
C   -1.5113825    0.0053055   -3.2312122  
H   -2.7664565    0.0000174    0.6013448  
H   -1.1823533    0.0068381   -4.2614848  
H    2.1104316    0.0009435   -0.3488059  
C    2.3971438    2.0127888    3.1728260  
C    1.9431056    1.6308205    1.9564670  
C    0.8496017    0.7127664    2.2356185  
C    0.7794028    0.6545384    3.7115134  
N    1.6840587    1.4146091    4.2663826  
C   -0.1885723   -0.1578550    4.3957118  
C   -1.0476298   -0.8789867    3.6398520  
O   -2.0015663   -1.6796266    4.1448486  
C   -1.0022026   -0.8410666    2.1483229  
O   -1.8147390   -1.5232959    1.5241687  
C    0.0000000    0.0000000    1.4700000  
H    2.3054237    1.9346118    0.9892483  
H   -0.2170646   -0.1815267    5.4753125  
H   -2.4487139   -2.0549881    3.3649027  
H    3.2048689    2.6911772    3.3971983  
