60

C    7.2044671   -0.0013309    2.2521554  
C    6.5001430   -0.0021007    3.4338466  
C    7.4588753   -0.0021136    4.4899865  
C    8.7426322   -0.0010408    3.8867500  
N    8.5519357   -0.0025389    2.5272465  
C    9.9272184   -0.0004490    4.6294111  
C    9.8137929   -0.0006423    6.0061144  
O   10.9385205    0.0002639    6.7794181  
C    8.5418339   -0.0020829    6.6265460  
O    8.5958212   -0.0025158    8.0051063  
C    7.3727908   -0.0029406    5.8945195  
H    5.4273260   -0.0036976    3.5235912  
H    9.2825464    0.0083173    1.8387188  
H   10.9087110    0.0002250    4.1756769  
H   10.6385055   -0.0003554    7.6977077  
H    7.6956802   -0.0034732    8.3447370  
H    6.4129487   -0.0042221    6.3976895  
C    6.7235408   -0.0015094    0.8630512  
C    5.4473216   -0.0011276    0.3990033  
C    5.5236519   -0.0015785   -1.0428735  
C    6.9592470   -0.0022883   -1.3832528  
N    7.6329841   -0.0018115   -0.1836830  
C    7.4493963   -0.0032606   -2.6487389  
C    6.4996345   -0.0034066   -3.7489602  
O    6.8417402   -0.0041912   -4.9242320  
C    4.9744852   -0.0024120   -3.4117301  
O    4.1654296   -0.0022186   -4.3297116  
C    4.5679461   -0.0016854   -2.0086701  
H    4.5543636   -0.0004090    0.9983692  
H    8.5062543   -0.0038991   -2.8766912  
H    8.6315332   -0.0036617   -0.0839633  
C    3.1301149   -0.0010311   -1.7028252  
C    2.5367768   -0.0002767   -0.4864665  
C    1.1089904    0.0001028   -0.7656183  
C    1.0177872   -0.0004148   -2.2415132  
N    2.1993578   -0.0011611   -2.7963820  
C   -0.2459209   -0.0002877   -2.9257118  
C   -1.3675319   -0.0000605   -2.1698524  
O   -2.6129313    0.0000867   -2.6748490  
C   -1.3083584    0.0000910   -0.6783232  
O   -2.3693261    0.0004206   -0.0541692  
C    0.0000000    0.0000000    0.0000000  
H    3.0096017   -0.0001007    0.4807525  
H   -0.2829630   -0.0004687   -4.0053125  
H   -3.1967441    0.0002094   -1.8949034  
C    0.8400945    0.7047457    2.2710304  
C    0.0000000    0.0000000    1.4700000  
C   -0.8844236   -0.7423113    2.3369512  
C   -0.4878984   -0.4098547    3.7186280  
N    0.5629682    0.4714286    3.6095011  
C   -1.0836927   -0.9095027    4.8308716  
C   -2.1891196   -1.8367527    4.6554461  
O   -2.7906899   -2.3413415    5.5944904  
C   -2.6257283   -2.2031529    3.2011665  
O   -3.5549479   -2.9829990    3.0410059  
C   -1.9068976   -1.5999348    2.0816745  
H   -0.7774656   -0.6525820    5.8354244  
H   -2.2155208   -1.8586617    1.0779135  
H    1.6384792    1.3747609    1.9961646  
H    1.0518368    0.8833920    4.3830260  
