60

C    4.3619157    2.1249387   -6.2016580  
C    5.1810489    1.6623514   -5.1979151  
C    6.1200123    0.7749820   -5.8025006  
C    5.8224110    0.7355596   -7.1887925  
N    4.7484227    1.5649552   -7.3968071  
C    6.5493944   -0.0404408   -8.0965954  
C    7.5960598   -0.7900694   -7.5958704  
O    8.3390876   -1.5653847   -8.4383729  
C    7.9082245   -0.7642380   -6.2157608  
O    8.9779332   -1.5651175   -5.8727467  
C    7.1912946    0.0008650   -5.3195717  
H    5.1098061    1.9305428   -4.1577272  
H    4.3192553    1.7468004   -8.2860358  
H    6.3275322   -0.0749437   -9.1543238  
H    9.0077662   -1.9987560   -7.8921838  
H    9.1222124   -1.4902082   -4.9244983  
H    3.5316443    2.8089136   -6.1593906  
C    4.7161325   -0.0005435   -1.6923264  
C    5.6957067   -0.0010600   -0.7518430  
C    6.9559333   -0.0010601   -1.4565873  
C    6.6279070   -0.0004679   -2.8950547  
N    5.2541447   -0.0005754   -2.9703260  
C    7.5472422    0.0001052   -3.8933172  
C    8.9536517   -0.0000847   -3.5265089  
O    9.8573549    0.0003300   -4.3521116  
C    9.3240199   -0.0009619   -2.0090665  
O   10.5048028   -0.0014354   -1.6881096  
C    8.2443355   -0.0012470   -1.0251284  
H    5.5518787   -0.0015841    0.3139556  
H    8.5092052   -0.0016496    0.0234744  
H    4.7240359    0.0012978   -3.8223991  
C    3.2573665   -0.0002920   -1.5109385  
C    2.5379463   -0.0001709   -0.3591964  
C    1.1435038    0.0000331   -0.7338500  
C    1.1092599   -0.0000083   -2.2088477  
N    2.4227553    0.0001909   -2.6182613  
C   -0.0265539   -0.0002524   -2.9515660  
C   -1.3003040   -0.0002640   -2.2514977  
O   -2.3786790   -0.0004133   -2.8306421  
C   -1.2877727    0.0000311   -0.6895603  
O   -2.3539959    0.0003306   -0.0892030  
C    0.0000000    0.0000000    0.0000000  
H    2.9384091   -0.0000367    0.6389234  
H   -0.0296303   -0.0004086   -4.0327229  
H    2.7280482   -0.0013407   -3.5742119  
C    2.5128556    2.1077716    2.9199648  
C    1.9592212    1.6432552    4.0696553  
C    0.8915788    0.7479214    3.6910360  
C    0.8684491    0.7287414    2.2159470  
N    1.8754542    1.5738793    1.8102719  
C    0.0000000    0.0000000    1.4700000  
C   -0.9772830   -0.8200135    2.1664417  
O   -1.8021297   -1.5120829    1.5842315  
C   -0.9711318   -0.8147624    3.7284083  
O   -1.7894187   -1.5009653    4.3257297  
C    0.0140216    0.0115358    4.4216297  
H    2.2638494    1.8988021    5.0689105  
H    0.0117648    0.0094386    5.5031631  
H    3.3327358    2.7953732    2.7900019  
H    2.1123206    1.7707734    0.8551938  
