62

C   -0.2036977   -1.1130378   -9.5454068  
C   -0.3588475   -0.0127536   -8.7343753  
C   -0.6011917    1.1034304   -9.5887770  
C   -0.5826044    0.6189797  -10.9217771  
N   -0.3368384   -0.7302234  -10.8595892  
C   -0.7867146    1.4464744  -12.0301010  
C   -1.0140259    2.7873934  -11.7883493  
O   -1.2197902    3.6398810  -12.8342650  
C   -1.0359505    3.2897626  -10.4654892  
O   -1.2742015    4.6465557  -10.3900465  
C   -0.8344009    2.4740463   -9.3716366  
H   -0.2774417   -1.3463467  -11.6500598  
H   -0.7736339    1.0834414  -13.0485494  
H   -1.3563772    4.5156103  -12.4499393  
H   -1.2728146    4.9045260   -9.4631956  
H   -0.8567220    2.8874884   -8.3701155  
H   -0.0071776   -2.1403436   -9.2904917  
C    2.2882816   -2.1097767   -5.8897962  
C    1.6780090   -1.6459960   -7.0107556  
C    0.6303821   -0.7506084   -6.5799497  
C    0.6807209   -0.7305951   -5.1055495  
N    1.7068259   -1.5753508   -4.7500430  
C   -0.1496415   -0.0015615   -4.3176961  
C   -1.1605341    0.8179096   -4.9650744  
O   -1.9554938    1.5101850   -4.3429046  
C   -1.2321584    0.8117733   -6.5254067  
O   -2.0792931    1.4975140   -7.0816287  
C   -0.2825939   -0.0147697   -7.2663562  
H    1.9325532   -1.9020639   -8.0237955  
H    3.1137390   -2.7971810   -5.8004316  
H    1.9909865   -1.7716676   -3.8078329  
C    3.3003543    0.0005276   -1.4738987  
C    2.5232814    0.0003497   -2.6090747  
C    1.1623200   -0.0001320   -2.1820103  
C    1.1711883    0.0000582   -0.7636140  
N    2.4852300   -0.0014919   -0.3662360  
C    0.0000000    0.0000000    0.0000000  
C   -1.2020384    0.0000519   -0.6806477  
O   -2.3759249    0.0003493    0.0157743  
C   -1.2314656   -0.0005115   -2.0955510  
O   -2.5054392   -0.0008039   -2.6250180  
C   -0.0764516   -0.0007274   -2.8495195  
H    2.8919955   -0.0005620   -3.6205304  
H    2.8036267    0.0088183    0.5858662  
H   -3.0835638    0.0000347   -0.6418818  
H   -2.4360047   -0.0011529   -3.5845921  
H    4.3715549    0.0004895   -1.3667136  
C    0.8175213    0.6860729    2.3021913  
C    0.0000000    0.0000000    1.4700000  
C   -0.8887526   -0.7456559    2.3478473  
C   -0.4549825   -0.3816753    3.7138435  
N    0.5448156    0.4573574    3.6934124  
C   -1.0945674   -0.9182058    4.8835240  
C   -2.1210866   -1.7789155    4.6970523  
O   -2.8083856   -2.3554314    5.6976972  
C   -2.5824069   -2.1655116    3.3310774  
O   -3.5227682   -2.9541547    3.2362962  
C   -1.9100805   -1.6015804    2.1470656  
H   -0.7567140   -0.6349833    5.8697035  
H   -3.4728268   -2.9124471    5.2533954  
H   -2.2742832   -1.9066565    1.1752040  
H    1.6189533    1.3585343    2.0405121  
