62

C    9.8578367    0.7064878   -0.7694124  
C   11.2101010    0.4550905   -0.7948459  
C   11.4846440   -0.4541669    0.2693333  
C   10.2507517   -0.7244142    0.9146273  
N    9.2840101   -0.0022190    0.2600569  
C   10.1435633   -1.5840913    2.0120130  
C   11.3030560   -2.1820806    2.4660626  
O   11.2553420   -3.0306199    3.5341062  
C   12.5437174   -1.9247125    1.8357128  
O   13.6062753   -2.5954949    2.4052415  
C   12.6502477   -1.0765224    0.7532385  
H   11.9124467    0.8762085   -1.4936765  
H    9.2061458   -1.7941053    2.5083448  
H   12.1607557   -3.3324821    3.6836703  
H   14.4053293   -2.3666768    1.9207207  
H   13.6142674   -0.8985976    0.2911923  
H    9.2574762    1.3363730   -1.4032676  
C    5.6685262    0.0007277   -2.2869310  
C    4.7390840    0.0009613   -1.2727298  
C    5.4635794   -0.0000956   -0.0440289  
C    6.8430309   -0.0006642   -0.3742391  
N    6.9321467   -0.0020935   -1.7441565  
C    7.8522877   -0.0014302    0.5933291  
C    7.4618845   -0.0013188    1.9183810  
O    8.4063109   -0.0016935    2.9038108  
C    6.0904957   -0.0011304    2.2678231  
O    5.8636451   -0.0014626    3.6286619  
C    5.0942998   -0.0006479    1.3138209  
H    7.7872775    0.0077866   -2.2701178  
H    7.9262124   -0.0018351    3.7421244  
H    4.9133155   -0.0012788    3.7785862  
H    4.0523279   -0.0006957    1.6117685  
H    5.5300625    0.0009044   -3.3545388  
C    3.2798077    0.0005856   -1.4499661  
C    2.5571132    0.0005565   -2.5996564  
C    1.1637425    0.0001547   -2.2210366  
C    1.1336959   -0.0000200   -0.7459475  
N    2.4483509   -0.0001429   -0.3402730  
C    0.0000000    0.0000000    0.0000000  
C   -1.2757370   -0.0000187   -0.6964411  
O   -2.3524597   -0.0000640   -0.1142306  
C   -1.2676502   -0.0000874   -2.2584078  
O   -2.3355774   -0.0004102   -2.8557287  
C    0.0181551    0.0001758   -2.9516297  
H    2.9547342    0.0006074   -3.5989118  
H    0.0150776    0.0003317   -4.0331632  
H    2.7563626    0.0012823    0.6148051  
C    0.0000000    0.0000000    1.4700000  
C    1.0541688    0.0001722    2.3260392  
C    0.5103138    0.0000454    3.6635956  
C   -0.9576371   -0.0002459    3.5155732  
N   -1.2018458    0.0001392    2.1615969  
C   -1.8348311   -0.0008317    4.5510609  
C   -1.2972847   -0.0009736    5.9014604  
O   -2.0050672   -0.0014265    6.9001319  
C    0.2542623   -0.0004184    6.0817573  
O    0.7184670   -0.0002256    7.2139121  
C    1.0974552   -0.0000873    4.8889129  
H    2.0940752    0.0005483    2.0517982  
H   -2.9081052   -0.0011668    4.4207061  
H    2.1707277    0.0000911    5.0223670  
H   -2.1128194   -0.0014912    1.7406791  
