62

C   -0.6398140   -0.7261178   -9.4359002  
C   -1.0095861    0.5370404   -9.0356916  
C   -0.9343900    1.3769847  -10.1860999  
C   -0.5098292    0.5639228  -11.2680437  
N   -0.3382363   -0.7067420  -10.7775495  
C   -0.3269416    1.0615960  -12.5617458  
C   -0.5774976    2.4044499  -12.7670344  
O   -0.4151588    2.9423743  -14.0109383  
C   -1.0014589    3.2319581  -11.7001209  
O   -1.2092554    4.5461970  -12.0647306  
C   -1.1818292    2.7417269  -10.4235375  
H   -0.0507788   -1.5031771  -11.3170318  
H   -0.0034085    0.4471765  -13.3906102  
H   -0.6392159    3.8789940  -13.9347457  
H   -1.4933295    5.0362965  -11.2871002  
H   -1.5072064    3.3998153   -9.6263374  
H   -0.5659560   -1.6390499   -8.8701628  
C    0.6364688   -0.6837595   -5.1902200  
C   -0.1387079    0.0017019   -4.3179684  
C   -1.0701777    0.7476897   -5.1500536  
C   -0.7049024    0.3845506   -6.5361590  
N    0.2947993   -0.4543147   -6.5660079  
C   -1.4020122    0.9216209   -7.6722400  
C   -2.4181036    1.7820426   -7.4344017  
O   -3.1544583    2.3589953   -8.3992581  
C   -2.8108993    2.1677923   -6.0469331  
O   -3.7454940    2.9562142   -5.9050026  
C   -2.0803710    1.6033193   -4.8981847  
H   -3.7960377    2.9156438   -7.9221097  
H   -2.3957800    1.9077869   -3.9092220  
H    1.4500366   -1.3562239   -4.9691495  
C    3.3041273    0.0001178   -1.5420428  
C    2.5845373   -0.0004780   -0.3695851  
C    1.2040007   -0.0000007   -0.7283589  
C    1.1422374    0.0006038   -2.1454372  
N    2.4348641    0.0026111   -2.6077464  
C   -0.0655179    0.0008799   -2.8497918  
C   -1.2321766    0.0002325   -2.1101402  
O   -2.4392814    0.0001148   -2.7472522  
C   -1.1911209   -0.0000007   -0.6955266  
O   -2.4371528   -0.0002320   -0.1032862  
C    0.0000000    0.0000000    0.0000000  
H    3.0031533   -0.0000660    0.6222584  
H    2.7054631   -0.0071097   -3.5745261  
H   -3.1132988   -0.0000648   -2.0551787  
H   -2.3200282   -0.0004072    0.8516409  
H    4.3686625    0.0004073   -1.7024290  
C    0.8400945    0.7047457    2.2710304  
C    0.0000000    0.0000000    1.4700000  
C   -0.8844236   -0.7423113    2.3369512  
C   -0.4878984   -0.4098547    3.7186280  
N    0.5629682    0.4714286    3.6095011  
C   -1.0836927   -0.9095027    4.8308716  
C   -2.1891196   -1.8367527    4.6554461  
O   -2.7906899   -2.3413415    5.5944904  
C   -2.6257283   -2.2031529    3.2011665  
O   -3.5549479   -2.9829990    3.0410059  
C   -1.9068976   -1.5999348    2.0816745  
H   -0.7774656   -0.6525820    5.8354244  
H   -2.2155208   -1.8586617    1.0779135  
H    1.6384792    1.3747609    1.9961646  
H    1.0518368    0.8833920    4.3830260  
