60

C    9.8441195   -0.7131118   -2.2721062  
C   11.0780258   -0.4634044   -2.8267152  
C   10.8727789    0.4450473   -3.9070803  
C    9.4817496    0.7165675   -3.9640158  
N    8.8863521   -0.0041285   -2.9586724  
C    8.9170923    1.5759047   -4.9113757  
C    9.7722871    2.1722392   -5.8175793  
O    9.2739282    3.0203766   -6.7637894  
C   11.1630695    1.9135832   -5.7770593  
O   11.8813720    2.5827825   -6.7463655  
C   11.7207756    1.0657273   -4.8429128  
H   12.0111093   -0.8851037   -2.4942746  
H    7.8577007    1.7868835   -4.9601400  
H   10.0290907    3.3210351   -7.2858981  
H   12.8105863    2.3531688   -6.6491882  
H   12.7896154    0.8867896   -4.8365411  
H    9.5712715   -1.3419675   -1.4420142  
C    6.7235404   -0.0015094    0.8630518  
C    5.4473217   -0.0011276    0.3990038  
C    5.5236520   -0.0015784   -1.0428730  
C    6.9592472   -0.0022882   -1.3832517  
N    7.6329843   -0.0018115   -0.1836821  
C    7.4493969   -0.0032604   -2.6487383  
C    6.4996351   -0.0034065   -3.7489599  
O    6.8417413   -0.0041910   -4.9242315  
C    4.9744857   -0.0024119   -3.4117302  
O    4.1654306   -0.0022185   -4.3297118  
C    4.5679461   -0.0016854   -2.0086701  
H    4.5543636   -0.0004092    0.9983692  
H    7.0761901   -0.0013786    1.8816429  
H    8.6315326   -0.0036616   -0.0839617  
C    3.1301149   -0.0010311   -1.7028252  
C    2.5367768   -0.0002767   -0.4864665  
C    1.1089904    0.0001028   -0.7656183  
C    1.0177872   -0.0004148   -2.2415132  
N    2.1993578   -0.0011611   -2.7963820  
C   -0.2459209   -0.0002877   -2.9257118  
C   -1.3675319   -0.0000605   -2.1698524  
O   -2.6129313    0.0000867   -2.6748490  
C   -1.3083584    0.0000910   -0.6783232  
O   -2.3693261    0.0004206   -0.0541692  
C    0.0000000    0.0000000    0.0000000  
H    3.0096017   -0.0001007    0.4807525  
H   -0.2829630   -0.0004687   -4.0053125  
H   -3.1967441    0.0002094   -1.8949034  
C    0.0000000    0.0000000    1.4700000  
C    1.0662921    0.0000102    2.3034270  
C    0.4961870   -0.0000064    3.6418889  
C   -0.9663858    0.0000850    3.4240247  
N   -1.2632773    0.0000084    2.1528658  
C   -1.8985362    0.0000517    4.5177257  
C   -1.3925775   -0.0004564    5.7720543  
O   -2.1456383   -0.0005410    6.8851312  
C    0.0786232   -0.0009323    6.0245000  
O    0.4683759   -0.0012588    7.1921102  
C    1.0143166   -0.0008442    4.8859032  
H    2.1107198   -0.0000632    2.0421868  
H   -2.9622183    0.0003270    4.3293377  
H   -1.5042274   -0.0009692    7.6184419  
H    2.0724152   -0.0013148    5.1109744  
