60

C    6.6962557   -0.0006581    0.9128047  
C    7.6449135   -0.0016132   -0.0834455  
C    6.9440360   -0.0023812   -1.3257700  
C    5.5585247   -0.0015567   -1.0219873  
N    5.4432387   -0.0024701    0.3459767  
C    4.5679461   -0.0016852   -2.0086700  
C    4.9836052   -0.0023570   -3.3260177  
O    4.0581870   -0.0021606   -4.3293193  
C    6.3614225   -0.0035602   -3.6491824  
O    6.6142423   -0.0045342   -5.0054359  
C    7.3392012   -0.0037073   -2.6763129  
H    8.7109488   -0.0028458    0.0667592  
H    4.5782209    0.0083752    0.8554934  
H    4.5542211   -0.0030156   -5.1583033  
H    7.5672642   -0.0052860   -5.1371678  
H    8.3866773   -0.0048227   -2.9542896  
H    6.8142880   -0.0002734    1.9828638  
C    3.1301152   -0.0010311   -1.7028251  
C    2.5367770   -0.0002766   -0.4864665  
C    1.1089905    0.0001028   -0.7656183  
C    1.0177873   -0.0004148   -2.2415130  
N    2.1993580   -0.0011610   -2.7963820  
C   -0.2459208   -0.0002877   -2.9257119  
C   -1.3675318   -0.0000605   -2.1698523  
O   -2.6129310    0.0000866   -2.6748492  
C   -1.3083584    0.0000911   -0.6783232  
O   -2.3693259    0.0004206   -0.0541692  
C    0.0000000    0.0000000    0.0000000  
H    3.0096019   -0.0001007    0.4807529  
H   -3.1967440    0.0002093   -1.8949035  
C   -0.2963281   -0.0005339   -4.3948471  
C    0.7278665   -0.0010064   -5.2865314  
C    0.1384656   -0.0010227   -6.6046519  
C   -1.3235462   -0.0004881   -6.4063793  
N   -1.5211825   -0.0006101   -5.0448252  
C   -2.2357319    0.0000548   -7.4111785  
C   -1.7448078   -0.0001095   -8.7792167  
O   -2.4864189    0.0002815   -9.7530306  
C   -0.2003558   -0.0009258   -9.0126111  
O    0.2247535   -0.0013773  -10.1600176  
C    0.6832446   -0.0011826   -7.8493818  
H    1.7765651   -0.0014913   -5.0481107  
H   -3.3039046    0.0005714   -7.2440975  
H    1.7513098   -0.0015430   -8.0195609  
H   -2.4171865    0.0012263   -4.5929176  
C    0.8681109    0.7263879    2.2709268  
C    0.6127770    0.5096195    3.5869401  
C   -0.4920590   -0.4175482    3.6542670  
C   -0.8620974   -0.7254003    2.2596025  
N    0.0000000    0.0000000    1.4700000  
C   -1.8641242   -1.5660088    1.8976294  
C   -2.6293522   -2.2103885    2.9520183  
O   -3.5512764   -2.9839180    2.7283916  
C   -2.2549728   -1.8987399    4.4361073  
O   -2.8923672   -2.4351063    5.3323774  
C   -1.1543735   -0.9755647    4.7012123  
H    1.1382914    0.9492124    4.4159191  
H   -2.1192137   -1.7782617    0.8686553  
H   -0.9013378   -0.7652422    5.7314848  
H    1.6172880    1.3558399    1.8188057  
