60

C    8.8957171   -0.0032607   -2.9149547  
C    9.9838672   -0.0031646   -2.0732926  
C   11.1478965   -0.0043937   -2.8976924  
C   10.7038418   -0.0049209   -4.2448158  
N    9.3312643   -0.0061608   -4.2194234  
C   11.5839096   -0.0058240   -5.3312179  
C   12.9368949   -0.0058946   -5.0526318  
O   13.8401657   -0.0064088   -6.0759183  
C   13.3994399   -0.0057501   -3.7151460  
O   14.7744534   -0.0062701   -3.6025267  
C   12.5318041   -0.0051327   -2.6428908  
H    9.9436087   -0.0034183   -0.9974804  
H    8.7358508    0.0037894   -5.0277330  
H   11.2518248   -0.0063735   -6.3602572  
H   14.7155831   -0.0066651   -5.6673732  
H   15.0030777   -0.0061045   -2.6680029  
H   12.9155745   -0.0052185   -1.6293829  
C    6.6685706   -0.0005968    0.8976882  
C    7.6427397   -0.0013907   -0.0483929  
C    6.9825041   -0.0021117   -1.3324969  
C    5.5334436   -0.0016404   -1.0549829  
N    5.4101701   -0.0011224    0.3153068  
C    4.5679461   -0.0016854   -2.0086701  
C    4.9837201   -0.0024606   -3.4013891  
O    4.1902301   -0.0026238   -4.3334164  
C    6.5131882   -0.0032216   -3.7184580  
O    6.8752470   -0.0041841   -4.8872917  
C    7.4587613   -0.0028168   -2.6050205  
H    8.7028559   -0.0016453    0.1326241  
H    6.7640835    0.0001111    1.9713581  
H    4.5400772    0.0008356    0.8152885  
C    3.1301149   -0.0010311   -1.7028252  
C    2.5367768   -0.0002767   -0.4864665  
C    1.1089904    0.0001028   -0.7656183  
C    1.0177872   -0.0004148   -2.2415132  
N    2.1993578   -0.0011611   -2.7963820  
C   -0.2459209   -0.0002877   -2.9257118  
C   -1.3675319   -0.0000605   -2.1698524  
O   -2.6129313    0.0000867   -2.6748490  
C   -1.3083584    0.0000910   -0.6783232  
O   -2.3693261    0.0004206   -0.0541692  
C    0.0000000    0.0000000    0.0000000  
H    3.0096017   -0.0001007    0.4807525  
H   -0.2829630   -0.0004687   -4.0053125  
H   -3.1967441    0.0002094   -1.8949034  
C    0.0000000    0.0000000    1.4700000  
C    1.0541688    0.0001722    2.3260392  
C    0.5103138    0.0000454    3.6635956  
C   -0.9576371   -0.0002459    3.5155732  
N   -1.2018458    0.0001392    2.1615969  
C   -1.8348311   -0.0008317    4.5510609  
C   -1.2972847   -0.0009736    5.9014604  
O   -2.0050672   -0.0014265    6.9001319  
C    0.2542623   -0.0004184    6.0817573  
O    0.7184670   -0.0002256    7.2139121  
C    1.0974552   -0.0000873    4.8889129  
H    2.0940752    0.0005483    2.0517982  
H   -2.9081052   -0.0011668    4.4207061  
H    2.1707277    0.0000911    5.0223670  
H   -2.1128194   -0.0014912    1.7406791  
