64

C   -8.5582924    2.7946729   -2.4256107  
C   -7.6521187    1.8739938   -2.8985473  
C   -8.3240873    0.6168431   -2.9498441  
C   -9.6490752    0.8341722   -2.4925680  
N   -9.7570645    2.1667263   -2.1807087  
C  -10.5979431   -0.1893324   -2.4096416  
C  -10.2021201   -1.4552320   -2.7956471  
O  -11.0887840   -2.4911708   -2.7350406  
C   -8.8844093   -1.6920584   -3.2543068  
O   -8.6443056   -3.0055457   -3.6013588  
C   -7.9477241   -0.6828739   -3.3361215  
H   -6.6319135    2.0825863   -3.1717897  
H  -10.5868399    2.6176035   -1.8398828  
H  -11.6093430   -0.0302391   -2.0618466  
H  -10.6153129   -3.2742789   -3.0446084  
H   -7.7327483   -3.0794587   -3.9000266  
H   -8.4439376    3.8493109   -2.2422512  
C   -3.9676974    0.7295157   -2.0473343  
C   -5.3027969    0.5139982   -2.1703652  
C   -5.4806623   -0.4130395   -3.2629769  
C   -4.1300602   -0.7221789   -3.7700241  
N   -3.2578655    0.0024282   -2.9908505  
C   -3.8704414   -1.5630664   -4.8030828  
C   -4.9963852   -2.2064100   -5.4595085  
O   -4.8663875   -2.9800941   -6.3990907  
C   -6.4355318   -1.8933908   -4.9392384  
O   -7.3913137   -2.4288771   -5.4842120  
C   -6.5888722   -0.9700330   -3.8177438  
H   -6.0749212    0.9543376   -1.5649406  
H   -2.8721775   -1.7762701   -5.1593463  
H   -3.4426404    1.3584980   -1.3469156  
C    0.0000000    0.0000000    0.0000000  
C    1.0521666   -0.0011982   -0.8862343  
C    0.4917215   -0.0011996   -2.1979132  
C   -0.9187429    0.0003215   -2.0478682  
N   -1.1833171   -0.0009323   -0.7007913  
C   -1.7951703    0.0010483   -3.1372089  
C   -1.2375841    0.0005313   -4.4010422  
O   -2.0474218    0.0015510   -5.4997578  
C    0.1673576   -0.0013585   -4.5711963  
O    0.5673520   -0.0020735   -5.8915554  
C    1.0325768   -0.0023493   -3.4969892  
H    2.0953056   -0.0030808   -0.6200564  
H   -2.0989778    0.0102529   -0.2891822  
H   -1.4634888    0.0006601   -6.2693595  
H    1.5290707   -0.0033271   -5.9180047  
H    2.1042146   -0.0039770   -3.6584456  
C    3.3041272   -0.0001177    3.0120429  
C    2.5845372    0.0004780    1.8395852  
C    1.2040006    0.0000008    2.1983588  
C    1.1422373   -0.0006037    3.6154372  
N    2.4348639   -0.0026109    4.0777464  
C   -0.0655181   -0.0008797    4.3197917  
C   -1.2321768   -0.0002324    3.5801400  
O   -2.4392816   -0.0001146    4.2172520  
C   -1.1911209    0.0000007    2.1655264  
O   -2.4371527    0.0002320    1.5732860  
C    0.0000000    0.0000000    1.4700000  
H    3.0031534    0.0000661    0.8477417  
H    2.7054629    0.0071099    5.0445261  
H   -0.1193549   -0.0014844    5.3997470  
H   -3.1132988    0.0000648    3.5251786  
H   -2.3200282    0.0004071    0.6183591  
H    4.3686625   -0.0004071    3.1724291  
