66

C   -0.3360020   -0.9798823   -9.4755718  
C   -0.4587413    0.0945612   -8.6252931  
C   -0.7279912    1.2376181   -9.4349396  
C   -0.7584613    0.7954362  -10.7823336  
N   -0.5147719   -0.5555317  -10.7714564  
C   -0.9994465    1.6578864  -11.8560627  
C   -1.2138743    2.9909478  -11.5642660  
O   -1.4542093    3.8764125  -12.5748116  
C   -1.1870459    3.4513656  -10.2263148  
O   -1.4182915    4.8055625  -10.0997466  
C   -0.9491001    2.6011495   -9.1665793  
H   -0.4855060   -1.1465191  -11.5825415  
H   -1.0238248    1.3271465  -12.8852459  
H   -1.5743108    4.7398419  -12.1584842  
H   -1.3830453    5.0341545   -9.1658795  
H   -0.9344055    2.9828253   -8.1523870  
H   -0.1336634   -2.0150997   -9.2602995  
C    2.3128798   -2.1207449   -5.9853286  
C    1.8202491   -1.6594121   -4.7865984  
C    0.7463180   -0.7716431   -5.0917841  
C    0.6288903   -0.7306953   -6.5047457  
N    1.5962672   -1.5596062   -7.0163180  
C   -0.3301654    0.0460748   -7.1617306  
C   -1.1864713    0.7949190   -6.3780533  
O   -2.1419341    1.5709319   -6.9678911  
C   -1.0847732    0.7675649   -4.9667678  
O   -2.0088872    1.5678197   -4.3272759  
C   -0.1387079    0.0017019   -4.3179684  
H    2.1902178   -1.9286750   -3.8121171  
H    1.7489526   -1.7404140   -7.9920112  
H   -2.6233438    2.0035650   -6.2507173  
H   -1.8718320    1.4918813   -3.3780376  
H    3.1196530   -2.8045576   -6.1865156  
C    3.3041273    0.0001178   -1.5420428  
C    2.5845373   -0.0004780   -0.3695851  
C    1.2040007   -0.0000007   -0.7283589  
C    1.1422374    0.0006038   -2.1454372  
N    2.4348641    0.0026111   -2.6077464  
C   -0.0655179    0.0008799   -2.8497918  
C   -1.2321766    0.0002325   -2.1101402  
O   -2.4392814    0.0001148   -2.7472522  
C   -1.1911209   -0.0000007   -0.6955266  
O   -2.4371528   -0.0002320   -0.1032862  
C    0.0000000    0.0000000    0.0000000  
H    3.0031533   -0.0000660    0.6222584  
H    2.7054631   -0.0071097   -3.5745261  
H   -3.1132988   -0.0000648   -2.0551787  
H   -2.3200282   -0.0004072    0.8516409  
H    4.3686625    0.0004073   -1.7024290  
C    2.5311839    2.1237619    3.0120429  
C    1.9795631    1.6616747    1.8395852  
C    0.9223175    0.7739173    2.1983588  
C    0.8753926    0.7337535    3.6154372  
N    1.8668922    1.5631002    4.0777464  
C   -0.0496243   -0.0427881    4.3197917  
C   -0.9437528   -0.7922060    3.5801400  
O   -1.8685244   -1.5680278    4.2172520  
C   -0.9124520   -0.7656372    2.1655264  
O   -1.8671164   -1.5663939    1.5732860  
C    0.0000000    0.0000000    1.4700000  
H    2.3005065    1.9304404    0.8477417  
H    2.0679347    1.7444845    5.0445261  
H   -0.0904770   -0.0778569    5.3997470  
H   -2.3849669   -2.0011402    3.5251786  
H   -1.7775064   -1.4909735    0.6183591  
H    3.3468514    2.8078103    3.1724291  
