62

C    0.1637644   -1.1428315   -9.6382302  
C    0.0171479   -0.0595767   -8.8030473  
C   -0.2308786    1.0745610   -9.6317900  
C   -0.2243921    0.6181080  -10.9747465  
N    0.0199443   -0.7324119  -10.9429216  
C   -0.4367751    1.4688888  -12.0637168  
C   -0.6600703    2.8047384  -11.7920121  
O   -0.8735375    3.6792018  -12.8180522  
C   -0.6699545    3.2793224  -10.4587874  
O   -0.9055884    4.6345391  -10.3529228  
C   -0.4602389    2.4406237   -9.3840170  
H    0.0716875   -1.3319216  -11.7465959  
H   -0.4329296    1.1272467  -13.0896145  
H   -1.0055657    4.5468634  -12.4143245  
H   -0.8959022    4.8730416   -9.4209221  
H   -0.4733963    2.8330297   -8.3739071  
H    0.3609705   -2.1754985   -9.4065682  
C    2.6001989   -2.1411816   -5.8266046  
C    2.0730546   -1.7332818   -7.0044479  
C    0.9991589   -0.8222833   -6.6393046  
C    1.0189899   -0.7962635   -5.1609565  
N    1.9554493   -1.5673975   -4.6788913  
C    0.0950446    0.0004351   -4.4015596  
C   -0.8074266    0.7379268   -5.0878442  
O   -1.7282259    1.5268492   -4.5083866  
C   -0.8524305    0.7331199   -6.5798603  
O   -1.7006931    1.4286189   -7.1383869  
C    0.1059497   -0.0924311   -7.3360995  
H    2.3756471   -2.0156472   -7.9983212  
H   -2.2213255    1.9193581   -5.2513151  
H    3.4197068   -2.8236756   -5.6666595  
C    3.3321173    0.0004713   -1.3379338  
C    2.6974181    0.0000116   -2.5332314  
C    1.2800438   -0.0002119   -2.2052841  
C    1.2395034    0.0000643   -0.7271299  
N    2.4394062    0.0005460   -0.2131038  
C    0.0000000    0.0000000    0.0000000  
C   -1.1468702    0.0000634   -0.7169543  
O   -2.3742203    0.0000074   -0.1695487  
C   -1.1388770    0.0001607   -2.2096355  
O   -2.2206234    0.0000905   -2.7970411  
C    0.1454522    0.0001815   -2.9324241  
H    3.1367984   -0.0000653   -3.5160950  
H   -2.9844346    0.0001026   -0.9290167  
H    4.3940038    0.0007618   -1.1498640  
C    0.8576279    0.7185626    2.2703808  
C    0.0000000    0.0000000    1.4700000  
C   -0.8668858   -0.7285659    2.3373528  
C   -0.4876752   -0.4117774    3.6669281  
N    0.5635254    0.4678311    3.5902241  
C   -1.1297612   -0.9515493    4.7854808  
C   -2.1738724   -1.8268314    4.5576857  
O   -2.8357962   -2.3827064    5.6140350  
C   -2.5667212   -2.1555554    3.2384331  
O   -3.6226318   -3.0413663    3.1773122  
C   -1.9335634   -1.6236449    2.1344818  
H    1.0363952    0.8769718    4.3757045  
H   -0.8454472   -0.7142436    5.8013813  
H   -3.5178062   -2.9546422    5.2385129  
H   -3.8247440   -3.2102924    2.2519915  
H   -2.2566033   -1.8942483    1.1360343  
H    1.6567807    1.3889844    2.0042067  
