62

C   -7.4719081    3.0809917    0.1704884  
C   -7.0178254    1.8482347   -0.2376627  
C   -8.0969161    0.9306060   -0.0699697  
C   -9.1929068    1.6671264    0.4479750  
N   -8.7788120    2.9689347    0.5837614  
C  -10.4290486    1.0811213    0.7366638  
C  -10.5612956   -0.2730061    0.4978593  
O  -11.7468820   -0.8957335    0.7616912  
C   -9.4791957   -1.0249799   -0.0182925  
O   -9.7681916   -2.3615652   -0.2009511  
C   -8.2593434   -0.4475838   -0.3030686  
H   -9.3459730    3.7263440    0.9193786  
H  -11.2682336    1.6369221    1.1317033  
H  -11.6252062   -1.8250545    0.5275520  
H   -8.9852150   -2.7968560   -0.5517682  
H   -7.4487672   -1.0491459   -0.6974900  
H   -6.9664963    4.0310420    0.2008506  
C   -4.4924722    2.0950382   -0.2442176  
C   -3.4157282    1.6323169   -0.9302108  
C   -3.9167334    0.7362616   -1.9455502  
C   -5.3841441    0.7147471   -1.7937837  
N   -5.6689496    1.5587230   -0.7452227  
C   -6.2266196   -0.0146658   -2.5683136  
C   -5.6495861   -0.8333368   -3.6215682  
O   -6.3243550   -1.5259647   -4.3720698  
C   -4.0978602   -0.8259952   -3.8001701  
O   -3.6005727   -1.5115249   -4.6833547  
C   -3.2941076    0.0012878   -2.9038237  
H   -2.3878035    1.8892262   -0.7458680  
H   -7.3001860   -0.0161873   -2.4403987  
H   -4.5254896    2.7825514    0.5853157  
C    0.0000000    0.0000000    0.0000000  
C    1.0541688   -0.0001723   -0.8560392  
C    0.5103136   -0.0000455   -2.1935956  
C   -0.9576373    0.0002461   -2.0455730  
N   -1.2018460   -0.0001389   -0.6915968  
C   -1.8348314    0.0008319   -3.0810607  
C   -1.2972851    0.0009739   -4.4314603  
O   -2.0050676    0.0014268   -5.4301316  
C    0.2542619    0.0004184   -4.6117572  
O    0.7184666    0.0002257   -5.7439122  
C    1.0974551    0.0000873   -3.4189129  
H    2.0940752   -0.0005484   -0.5817983  
H    2.1707276   -0.0000912   -3.5523673  
H   -2.1128194    0.0014915   -0.2706789  
C    3.3041272   -0.0001177    3.0120429  
C    2.5845372    0.0004780    1.8395852  
C    1.2040006    0.0000008    2.1983588  
C    1.1422373   -0.0006037    3.6154372  
N    2.4348639   -0.0026109    4.0777464  
C   -0.0655181   -0.0008797    4.3197917  
C   -1.2321768   -0.0002324    3.5801400  
O   -2.4392816   -0.0001146    4.2172520  
C   -1.1911209    0.0000007    2.1655264  
O   -2.4371527    0.0002320    1.5732860  
C    0.0000000    0.0000000    1.4700000  
H    3.0031534    0.0000661    0.8477417  
H    2.7054629    0.0071099    5.0445261  
H   -0.1193549   -0.0014844    5.3997470  
H   -3.1132988    0.0000648    3.5251786  
H   -2.3200282    0.0004071    0.6183591  
H    4.3686625   -0.0004071    3.1724291  
