62

C   -8.4494744    1.0814645   -1.6969726  
C   -9.7614098    0.7057072   -1.5234819  
C   -9.8293251   -0.6969502   -1.7735604  
C   -8.5167491   -1.1259827   -2.0976018  
N   -7.7039669   -0.0209482   -2.0437484  
C   -8.2094329   -2.4552320   -2.4032837  
C   -9.2459825   -3.3680590   -2.3811532  
O   -9.0015527   -4.6791776   -2.6713860  
C  -10.5623813   -2.9592373   -2.0605647  
O  -11.4838407   -3.9857943   -2.0814485  
C  -10.8663337   -1.6480183   -1.7591626  
H  -10.5702000    1.3620606   -1.2513566  
H   -7.2111297   -2.7885873   -2.6512064  
H   -9.8490677   -5.1372773   -2.5997754  
H  -12.3462517   -3.6250528   -1.8540328  
H  -11.8840782   -1.3646096   -1.5175981  
H   -7.9867964    2.0488855   -1.6021879  
C   -4.3991018    2.0926374   -0.0704357  
C   -3.3610091    1.6305297   -0.8140045  
C   -3.9159994    0.7341916   -1.8006143  
C   -5.3729686    0.7118419   -1.5692436  
N   -5.6007885    1.5556536   -0.5067139  
C   -6.2559170   -0.0180488   -2.2968188  
C   -5.7365716   -0.8363894   -3.3799320  
O   -6.4507770   -1.5293999   -4.0926369  
C   -4.1968644   -0.8281649   -3.6426855  
O   -3.7479707   -1.5134097   -4.5516379  
C   -3.3460097   -0.0004262   -2.7913647  
H   -2.3247243    1.8880237   -0.6858470  
H   -4.3873336    2.7801298    0.7596880  
H   -6.5015168    1.7527688   -0.1106326  
C    0.0000000    0.0000000    0.0000000  
C    1.0662919   -0.0000103   -0.8334272  
C    0.4961868    0.0000066   -2.1718889  
C   -0.9663860   -0.0000849   -1.9540248  
N   -1.2632775   -0.0000084   -0.6828659  
C   -1.8985364   -0.0000515   -3.0477258  
C   -1.3925778    0.0004567   -4.3020543  
O   -2.1456385    0.0005412   -5.4151314  
C    0.0786229    0.0009326   -4.5544999  
O    0.4683756    0.0012594   -5.7221104  
C    1.0143162    0.0008443   -3.4159034  
H    2.1107195    0.0000631   -0.5721869  
H   -1.5042277    0.0009692   -6.1484420  
H    2.0724151    0.0013151   -3.6409746  
C    3.3003543   -0.0005276    2.9438989  
C    2.5232812   -0.0003497    4.0790748  
C    1.1623199    0.0001319    3.6520102  
C    1.1711883   -0.0000583    2.2336141  
N    2.4852299    0.0014920    1.8362361  
C    0.0000000    0.0000000    1.4700000  
C   -1.2020384   -0.0000520    2.1506477  
O   -2.3759250   -0.0003494    1.4542253  
C   -1.2314658    0.0005113    3.5655508  
O   -2.5054393    0.0008037    4.0950179  
C   -0.0764518    0.0007272    4.3195194  
H    2.8919952    0.0005619    5.0905303  
H    2.8036267   -0.0088181    0.8841339  
H   -3.0835639   -0.0000348    2.1118817  
H   -2.4360050    0.0011527    5.0545920  
H   -0.1304098    0.0013421    5.4019087  
H    4.3715549   -0.0004895    2.8367138  
