64

C    0.6784435   -0.7158674   -5.1604806  
C   -0.1387074    0.0017015   -4.3179686  
C   -1.0481455    0.7301998   -5.1406544  
C   -0.7354107    0.4143962   -6.4876478  
N    0.3188400   -0.4645854   -6.4638959  
C   -1.4327204    0.9543845   -7.5725265  
C   -2.4647268    1.8288738   -7.2925120  
O   -3.1787621    2.3849177   -8.3142675  
C   -2.7916047    2.1566101   -5.9551429  
O   -3.8437008    3.0417139   -5.8410033  
C   -2.1039437    1.6244857   -4.8843985  
H    0.7522634   -0.8729856   -7.2721870  
H   -1.1991951    0.7178275   -8.6014617  
H   -3.8415771    2.9562089   -7.9049176  
H   -3.9995943    3.2099938   -4.9066674  
H   -2.3770359    1.8943253   -3.8709463  
H    1.4902653   -1.3859286   -4.9348208  
C    3.3041276    0.0001179   -1.5420426  
C    2.5845373   -0.0004778   -0.3695850  
C    1.2040008   -0.0000007   -0.7283588  
C    1.1422377    0.0006038   -2.1454370  
N    2.4348643    0.0026110   -2.6077459  
C   -0.0655176    0.0008796   -2.8497919  
C   -1.2321760    0.0002323   -2.1101404  
O   -2.4392811    0.0001143   -2.7472523  
C   -1.1911205   -0.0000006   -0.6955268  
O   -2.4371526   -0.0002322   -0.1032865  
C    0.0000000    0.0000000    0.0000000  
H    3.0031533   -0.0000657    0.6222587  
H    2.7054636   -0.0071097   -3.5745259  
H   -3.1132988   -0.0000651   -2.0551790  
H   -2.3200280   -0.0004074    0.8516406  
C    4.7577225    0.0005133   -1.7610455  
C    5.7612601   -0.0009871   -0.8461768  
C    7.0028647    0.0003035   -1.5832328  
C    6.6377965    0.0027252   -3.0127466  
N    5.2625481    0.0023369   -3.0525128  
C    7.5310416    0.0048863   -4.0344177  
C    8.9464547    0.0045968   -3.7040555  
O    9.8285352    0.0063647   -4.5527212  
C    9.3558927    0.0017963   -2.1966873  
O   10.5445703    0.0012218   -1.9063342  
C    8.3019810   -0.0001022   -1.1851942  
H    5.6450064   -0.0029743    0.2229794  
H    7.2422436    0.0067731   -5.0762919  
H    8.5938431   -0.0018313   -0.1437829  
H    4.7106090    0.0052008   -3.8906074  
C    0.8676693    0.7151171    2.2619005  
C    0.5875920    0.4624972    3.5848544  
C   -0.5048400   -0.4542819    3.6114698  
C   -0.8517165   -0.7276451    2.2635546  
N    0.0000000    0.0000000    1.4700000  
C   -1.8902865   -1.5946756    1.9108239  
C   -2.5912627   -2.1969500    2.9375057  
O   -3.6148162   -3.0527051    2.6493466  
C   -2.2603868   -1.9365747    4.2886322  
O   -3.0513550   -2.6123276    5.1947621  
C   -1.2361111   -1.0811317    4.6373480  
H    1.1060808    0.8876438    4.4271209  
H   -2.1597133   -1.8070987    0.8854031  
H   -3.9636755   -3.3565188    3.4974381  
H   -2.7621927   -2.3810384    6.0827341  
H   -1.0058879   -0.9010589    5.6809233  
H    1.6167816    1.3499334    1.8205408  
