62

C   10.0699891    0.7095077   -1.0437879  
C   11.3220345    0.4594354   -0.5316185  
C   11.1533959   -0.4480533    0.5558671  
C    9.7649712   -0.7186375    0.6606821  
N    9.1358927    0.0016669   -0.3242234  
C    9.2326030   -1.5768834    1.6275260  
C   10.1180019   -2.1730693    2.5043431  
O    9.6518602   -3.0201588    3.4677555  
C   11.5067348   -1.9153366    2.4159525  
O   12.2574439   -2.5842510    3.3605877  
C   12.0326024   -1.0685572    1.4625619  
H   12.2434289    0.8802804   -0.8961921  
H    8.1753765   -1.7871451    1.7127548  
H   10.4242979   -3.3209003    3.9639005  
H   13.1829185   -2.3553083    3.2314227  
H   13.1007054   -0.8903102    1.4194020  
H    9.7692245    1.3378998   -1.8645326  
C    6.7793184   -0.0000203   -4.0582541  
C    7.7853564    0.0004709   -3.1461341  
C    7.1695416    0.0010648   -1.8401453  
C    5.7118176    0.0008488   -2.0678072  
N    5.5416283    0.0005848   -3.4330637  
C    4.7795901    0.0008674   -1.0815733  
C    5.2428765    0.0013429    0.2960697  
O    4.4818131    0.0014587    1.2547580  
C    6.7823177    0.0018304    0.5605058  
O    7.1842444    0.0025394    1.7162372  
C    7.6891545    0.0014823   -0.5847012  
H    8.8386419    0.0006050   -3.3633967  
H    6.8379580   -0.0005569   -5.1345677  
H    4.6549021   -0.0011625   -3.9029158  
C    3.3321168    0.0004716   -1.3379341  
C    2.6974177    0.0000118   -2.5332316  
C    1.2800432   -0.0002116   -2.2052842  
C    1.2395033    0.0000644   -0.7271298  
N    2.4394059    0.0005460   -0.2131041  
C    0.0000000    0.0000000    0.0000000  
C   -1.1468704    0.0000635   -0.7169542  
O   -2.3742206    0.0000074   -0.1695488  
C   -1.1388774    0.0001608   -2.2096352  
O   -2.2206238    0.0000906   -2.7970409  
C    0.1454514    0.0001818   -2.9324241  
H    3.1367978   -0.0000649   -3.5160956  
H   -2.9844350    0.0001027   -0.9290164  
H    0.1083567    0.0003684   -4.0135594  
C    0.8576279    0.7185626    2.2703808  
C    0.0000000    0.0000000    1.4700000  
C   -0.8668858   -0.7285659    2.3373528  
C   -0.4876752   -0.4117774    3.6669281  
N    0.5635254    0.4678311    3.5902241  
C   -1.1297612   -0.9515493    4.7854808  
C   -2.1738724   -1.8268314    4.5576857  
O   -2.8357962   -2.3827064    5.6140350  
C   -2.5667212   -2.1555554    3.2384331  
O   -3.6226318   -3.0413663    3.1773122  
C   -1.9335634   -1.6236449    2.1344818  
H    1.0363952    0.8769718    4.3757045  
H   -0.8454472   -0.7142436    5.8013813  
H   -3.5178062   -2.9546422    5.2385129  
H   -3.8247440   -3.2102924    2.2519915  
H   -2.2566033   -1.8942483    1.1360343  
H    1.6567807    1.3889844    2.0042067  
