62

C   -0.3826700    0.0235707   -8.7328456  
C    0.3754557   -0.6514120   -9.6613462  
C   -0.1216353   -0.2883057  -10.9480681  
C   -1.1920184    0.6188291  -10.7399517  
N   -1.3251267    0.7848067   -9.3837252  
C   -1.9188309    1.1850250  -11.7915957  
C   -1.5583371    0.8292228  -13.0767527  
O   -2.2345008    1.3528766  -14.1405207  
C   -0.4934629   -0.0745998  -13.3047104  
O   -0.2566151   -0.3291627  -14.6397906  
C    0.2238166   -0.6337619  -12.2677065  
H    1.1862278   -1.3237419   -9.4386032  
H   -1.9971081    1.3808086   -8.9351688  
H   -2.7357825    1.8769053  -11.6396273  
H   -1.8283596    0.9787333  -14.9331939  
H    0.4770306   -0.9480271  -14.7059325  
H    1.0342951   -1.3232352  -12.4732050  
C    2.2783849   -2.0910257   -5.9524491  
C    1.7853127   -1.6292412   -4.7744381  
C    0.6997749   -0.7327359   -5.0949402  
C    0.6001068   -0.7099362   -6.5667883  
N    1.5849255   -1.5536734   -7.0262771  
C   -0.3061440    0.0202238   -7.2648431  
C   -1.2459582    0.8383997   -6.5165965  
O   -2.1000520    1.5316275   -7.0534952  
C   -1.1584128    0.8296993   -4.9570889  
O   -1.9441938    1.5148019   -4.3164303  
C   -0.1387079    0.0017019   -4.3179684  
H    2.1415246   -1.8870540   -3.7929803  
H    3.0901480   -2.7785182   -6.1264730  
H    1.7699541   -1.7505090   -7.9927486  
C    3.3041273    0.0001178   -1.5420428  
C    2.5845373   -0.0004780   -0.3695851  
C    1.2040007   -0.0000007   -0.7283589  
C    1.1422374    0.0006038   -2.1454372  
N    2.4348641    0.0026111   -2.6077464  
C   -0.0655179    0.0008799   -2.8497918  
C   -1.2321766    0.0002325   -2.1101402  
O   -2.4392814    0.0001148   -2.7472522  
C   -1.1911209   -0.0000007   -0.6955266  
O   -2.4371528   -0.0002320   -0.1032862  
C    0.0000000    0.0000000    0.0000000  
H    3.0031533   -0.0000660    0.6222584  
H    2.7054631   -0.0071097   -3.5745261  
H   -3.1132988   -0.0000648   -2.0551787  
H   -2.3200282   -0.0004072    0.8516409  
H    4.3686625    0.0004073   -1.7024290  
C    2.5528530    2.1414826    2.8079335  
C    2.0663498    1.7338582    4.0032312  
C    0.9804344    0.8229586    3.6752840  
C    0.9495562    0.7966882    2.1971295  
N    1.8690446    1.5676019    1.6831036  
C    0.0000000    0.0000000    1.4700000  
C   -0.8785127   -0.7372425    2.1869543  
O   -1.8187535   -1.5261249    1.6395491  
C   -0.8723269   -0.7321790    3.6796354  
O   -1.7010379   -1.4274584    4.2670412  
C    0.1115397    0.0933559    4.4024240  
H    2.4028853    2.0163452    4.9860947  
H   -2.2861435   -1.9184361    2.3990168  
H    0.0832434    0.0693689    5.4835595  
H    3.3664920    2.8238276    2.6198634  
