62

C   -0.4138949   -0.9858880   -9.5541654  
C   -0.5494835    0.0892217   -8.7066855  
C   -0.8057965    1.2317559   -9.5212529  
C   -0.8154968    0.7885831  -10.8686319  
N   -0.5724139   -0.5624473  -10.8529797  
C   -1.0395371    1.6503063  -11.9466047  
C   -1.2580620    2.9836461  -11.6591525  
O   -1.4824254    3.8684305  -12.6739582  
C   -1.2518511    3.4450489  -10.3212870  
O   -1.4846226    4.7994065  -10.1993187  
C   -1.0306290    2.5955503   -9.2573604  
H   -0.5307492   -1.1540449  -11.6630763  
H   -1.0480484    1.3188099  -12.9757990  
H   -1.6087091    4.7322036  -12.2601797  
H   -1.4637971    5.0286812   -9.2651862  
H   -1.0315524    2.9779742   -8.2433439  
H   -0.2152329   -2.0210042   -9.3350161  
C    2.1801846   -2.1249309   -6.0224128  
C    1.6691587   -1.6625654   -4.8318088  
C    0.6003592   -0.7747106   -5.1542709  
C    0.5048749   -0.7347773   -6.5689139  
N    1.4798201   -1.5643490   -7.0648071  
C   -0.4436396    0.0417841   -7.2412683  
C   -1.3117719    0.7914588   -6.4715206  
O   -2.2577358    1.5673116   -7.0766812  
C   -1.2319854    0.7651224   -5.0588080  
O   -2.1656655    1.5661203   -4.4343180  
C   -0.2963293   -0.0005341   -4.3948471  
H    2.0238859   -1.9312126   -3.8515077  
H    1.6475668   -1.7459252   -8.0378808  
H   -2.7500811    2.0006168   -6.3673799  
H   -2.0433738    1.4908465   -3.4830122  
H    2.9897744   -2.8091273   -6.2105564  
C    3.1301146   -0.0010313   -1.7028256  
C    2.5367765   -0.0002766   -0.4864669  
C    1.1089901    0.0001027   -0.7656184  
C    1.0177865   -0.0004150   -2.2415133  
N    2.1993571   -0.0011612   -2.7963824  
C   -0.2459219   -0.0002879   -2.9257116  
C   -1.3675326   -0.0000606   -2.1698520  
O   -2.6129318    0.0000865   -2.6748483  
C   -1.3083588    0.0000910   -0.6783229  
O   -2.3693264    0.0004206   -0.0541685  
C    0.0000000    0.0000000    0.0000000  
H    3.0096016   -0.0001007    0.4807518  
H   -3.1967444    0.0002093   -1.8949026  
H    4.1849275   -0.0015114   -1.9271979  
C    2.4951002    2.0940188    2.9809380  
C    1.9440701    1.6314916    1.8291961  
C    0.8759964    0.7350050    2.2038498  
C    0.8497377    0.7130254    3.6788474  
N    1.8560616    1.5571714    4.0882609  
C   -0.0205033   -0.0168748    4.4215661  
C   -0.9962600   -0.8356168    3.7214979  
O   -1.8224391   -1.5286685    4.3006425  
C   -0.9864710   -0.8277881    2.1595606  
O   -1.8030528   -1.5133726    1.5592035  
C    0.0000000    0.0000000    1.4700000  
H    2.2509283    1.8888011    0.8310761  
H   -0.0229599   -0.0187323    5.5027230  
H    3.3143982    2.7817323    3.1139444  
H    2.0889452    1.7545833    5.0442112  
