62

C   -3.3001091   -0.0403324   -1.4738970  
C   -2.5230953   -0.0307824   -2.6090734  
C   -1.1622390   -0.0138866   -2.1820093  
C   -1.1711032   -0.0141838   -0.7636133  
N   -2.4850675   -0.0284820   -0.3662345  
C    0.0000000    0.0000000    0.0000000  
C    1.2019506    0.0144456   -0.6806484  
O    2.3757556    0.0283061    0.0157735  
C    1.2313682    0.0153636   -2.0955516  
O    2.5052460    0.0310211   -2.6250189  
C    0.0764354    0.0016492   -2.8495196  
H   -2.8917941   -0.0343178   -3.6205288  
H   -2.8033159   -0.0426314    0.5858677  
H    3.0833394    0.0371555   -0.6418829  
H    2.4358119    0.0305327   -3.5845934  
H    0.1303822    0.0029149   -3.9319086  
C   -5.6722887   -0.0680841   -2.3740952  
C   -6.9483496   -0.0812676   -1.9098002  
C   -6.8717568   -0.0792640   -0.4679385  
C   -5.4361809   -0.0636918   -0.1278382  
N   -4.7626992   -0.0579216   -1.3275378  
C   -4.9458278   -0.0570295    1.1375529  
C   -5.8953346   -0.0660063    2.2379579  
O   -5.5530333   -0.0610940    3.4131630  
C   -7.4204573   -0.0827774    1.9010238  
O   -8.2292956   -0.0907522    2.8191619  
C   -7.8272321   -0.0884126    0.4980432  
H   -7.8413663   -0.0914385   -2.5089923  
H   -3.8889896   -0.0454619    1.3652995  
H   -5.3198482   -0.0651545   -3.3927545  
C  -10.4109739   -2.1315830   -2.5043182  
C   -9.3196771   -1.7373625   -1.8077254  
C   -9.8297393   -0.8236785   -0.7970238  
C  -11.2885205   -0.7811251   -1.0352062  
N  -11.6351417   -1.5458773   -2.0347044  
C  -12.1675466    0.0227849   -0.2313851  
C  -11.6144458    0.7507797    0.7653279  
O  -12.3151517    1.5448465    1.5926786  
C  -10.1457367    0.7286670    1.0309714  
O   -9.7113747    1.4164293    1.9548399  
C   -9.2650392   -0.1039336    0.1924769  
H   -8.2951104   -2.0304700   -1.9607810  
H  -13.2296777    0.0350206   -0.4279530  
H  -11.6492080    1.9278614    2.1918216  
H  -10.4553498   -2.8112895   -3.3403822  
C    2.5311839    2.1237619    3.0120429  
C    1.9795631    1.6616747    1.8395852  
C    0.9223175    0.7739173    2.1983588  
C    0.8753926    0.7337535    3.6154372  
N    1.8668922    1.5631002    4.0777464  
C   -0.0496243   -0.0427881    4.3197917  
C   -0.9437528   -0.7922060    3.5801400  
O   -1.8685244   -1.5680278    4.2172520  
C   -0.9124520   -0.7656372    2.1655264  
O   -1.8671164   -1.5663939    1.5732860  
C    0.0000000    0.0000000    1.4700000  
H    2.3005065    1.9304404    0.8477417  
H    2.0679347    1.7444845    5.0445261  
H   -0.0904770   -0.0778569    5.3997470  
H   -2.3849669   -2.0011402    3.5251786  
H   -1.7775064   -1.4909735    0.6183591  
H    3.3468514    2.8078103    3.1724291  
