60

C    3.1743510   -5.4762958   -8.9100876  
C    3.3485134   -5.0078893  -10.1917781  
C    3.0467002   -3.6139576  -10.1702532  
C    2.6918587   -3.2854778   -8.8367937  
N    2.7779434   -4.4394585   -8.0981897  
C    2.3329750   -1.9917716   -8.4465178  
C    2.3325832   -1.0117498   -9.4200343  
O    1.9905329    0.2686339   -9.0934868  
C    2.6832581   -1.3199497  -10.7560202  
O    2.6343030   -0.2357713  -11.6077838  
C    3.0371502   -2.5960592  -11.1418067  
H    3.6542890   -5.5984872  -11.0383525  
H    2.5940591   -4.5136409   -7.1139821  
H    2.0545175    0.7844747   -9.9077830  
H    2.8849068   -0.5296846  -12.4889287  
H    3.3007528   -2.8019999  -12.1726220  
H    3.3001466   -6.4682434   -8.5111232  
C    2.5563879   -2.1074458   -5.9371929  
C    1.9637245   -1.6426518   -7.0671445  
C    0.9098264   -0.7472303   -6.6519876  
C    0.9372953   -0.7283017   -5.1769702  
N    1.9574935   -1.5736538   -4.8062060  
C    0.0950446    0.0004351   -4.4015596  
C   -0.9054232    0.8207087   -5.0639425  
O   -1.7097170    1.5127956   -4.4536737  
C   -0.9528376    0.8157262   -6.6252025  
O   -1.7910235    1.5021491   -7.1939976  
C    0.0078422   -0.0105933   -7.3519361  
H   -0.0314996   -0.0083091   -8.4327557  
H    3.3801399   -2.7951868   -5.8355365  
H    2.2269416   -1.7707466   -3.8598452  
C    3.3321173    0.0004713   -1.3379338  
C    2.6974181    0.0000116   -2.5332314  
C    1.2800438   -0.0002119   -2.2052841  
C    1.2395034    0.0000643   -0.7271299  
N    2.4394062    0.0005460   -0.2131038  
C    0.0000000    0.0000000    0.0000000  
C   -1.1468702    0.0000634   -0.7169543  
O   -2.3742203    0.0000074   -0.1695487  
C   -1.1388770    0.0001607   -2.2096355  
O   -2.2206234    0.0000905   -2.7970411  
C    0.1454522    0.0001815   -2.9324241  
H    3.1367984   -0.0000653   -3.5160950  
H   -2.9844346    0.0001026   -0.9290167  
H    4.3940038    0.0007618   -1.1498640  
C    2.5528530    2.1414826    2.8079335  
C    2.0663498    1.7338582    4.0032312  
C    0.9804344    0.8229586    3.6752840  
C    0.9495562    0.7966882    2.1971295  
N    1.8690446    1.5676019    1.6831036  
C    0.0000000    0.0000000    1.4700000  
C   -0.8785127   -0.7372425    2.1869543  
O   -1.8187535   -1.5261249    1.6395491  
C   -0.8723269   -0.7321790    3.6796354  
O   -1.7010379   -1.4274584    4.2670412  
C    0.1115397    0.0933559    4.4024240  
H    2.4028853    2.0163452    4.9860947  
H   -2.2861435   -1.9184361    2.3990168  
H    0.0832434    0.0693689    5.4835595  
H    3.3664920    2.8238276    2.6198634  
