60

C    4.6705664   -2.9935655   -8.8244322  
C    3.9799125   -2.0071592   -8.1592505  
C    4.1572405   -0.8019442   -8.9012838  
C    4.9719642   -1.1172370  -10.0187548  
N    5.2673328   -2.4556195   -9.9406019  
C    5.3517120   -0.1658290  -10.9702808  
C    4.9005359    1.1273600  -10.7906156  
O    5.2412767    2.0957991  -11.6900794  
C    4.0870912    1.4615760   -9.6818216  
O    3.7193943    2.7907170   -9.6427584  
C    3.7122943    0.5235593   -8.7425785  
H    3.4183857   -2.1397075   -7.2503442  
H    5.8215730   -2.9672755  -10.6031765  
H    5.9725853   -0.3997126  -11.8241044  
H    4.8284074    2.9127511  -11.3812225  
H    3.1721818    2.9321503   -8.8641967  
H    4.7858881   -4.0379821   -8.5902240  
C    3.9015080   -0.6894964   -4.5616462  
C    2.8699641   -0.0020530   -4.0185824  
C    2.2908331    0.7423718   -5.1262549  
C    3.1193986    0.3762533   -6.2950239  
N    4.0651029   -0.4628707   -5.9702103  
C    2.8662857    0.9110770   -7.6045979  
C    1.8321947    1.7721969   -7.7404752  
O    1.4822278    2.3472700   -8.9035981  
C    0.9774045    2.1609344   -6.5801402  
O    0.0532404    2.9498372   -6.7770489  
C    1.2573313    1.5987279   -5.2469150  
H    0.7144384    2.9050451   -8.6832841  
H    0.6149062    1.9053321   -4.4323510  
H    4.5849522   -1.3616566   -4.0676039  
C    3.2573670   -0.0002921   -1.5109382  
C    2.5379468   -0.0001711   -0.3591962  
C    1.1435043    0.0000330   -0.7338498  
C    1.1092608   -0.0000085   -2.2088474  
N    2.4227562    0.0001906   -2.6182610  
C   -0.0265533   -0.0002525   -2.9515663  
C   -1.3003033   -0.0002641   -2.2514979  
O   -2.3786785   -0.0004132   -2.8306425  
C   -1.2877724    0.0000310   -0.6895608  
O   -2.3539956    0.0003306   -0.0892035  
C    0.0000000    0.0000000    0.0000000  
H    2.9384091   -0.0000370    0.6389240  
H   -0.0296290   -0.0004088   -4.0327231  
H    4.3270394   -0.0004767   -1.6439445  
C    0.0000000    0.0000000    1.4700000  
C    1.0541688    0.0001722    2.3260392  
C    0.5103138    0.0000454    3.6635956  
C   -0.9576371   -0.0002459    3.5155732  
N   -1.2018458    0.0001392    2.1615969  
C   -1.8348311   -0.0008317    4.5510609  
C   -1.2972847   -0.0009736    5.9014604  
O   -2.0050672   -0.0014265    6.9001319  
C    0.2542623   -0.0004184    6.0817573  
O    0.7184670   -0.0002256    7.2139121  
C    1.0974552   -0.0000873    4.8889129  
H    2.0940752    0.0005483    2.0517982  
H   -2.9081052   -0.0011668    4.4207061  
H    2.1707277    0.0000911    5.0223670  
H   -2.1128194   -0.0014912    1.7406791  
