60

C   -0.2963294   -0.0005338   -4.3948469  
C    0.7248287   -0.0020289   -5.3166396  
C    0.1197348   -0.0021706   -6.6083287  
C   -1.2847550   -0.0004250   -6.4100066  
N   -1.5029813   -0.0014160   -5.0546494  
C   -2.1980210    0.0002432   -7.4686539  
C   -1.6841003   -0.0005639   -8.7508632  
O   -2.5311372    0.0003862   -9.8211639  
C   -0.2858198   -0.0026806   -8.9690928  
O    0.0686631   -0.0036733  -10.3023925  
C    0.6157255   -0.0036142   -7.9251870  
H    1.7764815   -0.0040143   -5.0863876  
H   -2.4039876    0.0099675   -4.6118856  
H   -3.2696198    0.0014283   -7.3241654  
H   -1.9739380   -0.0007158  -10.6103357  
H    1.0289089   -0.0050674  -10.3618041  
H    1.6811962   -0.0054203   -8.1232956  
C    3.1301144   -0.0010311   -1.7028257  
C    2.5367765   -0.0002766   -0.4864669  
C    1.1089900    0.0001028   -0.7656184  
C    1.0177865   -0.0004148   -2.2415134  
N    2.1993573   -0.0011611   -2.7963824  
C   -0.2459219   -0.0002876   -2.9257117  
C   -1.3675328   -0.0000605   -2.1698521  
O   -2.6129318    0.0000868   -2.6748487  
C   -1.3083586    0.0000910   -0.6783230  
O   -2.3693261    0.0004206   -0.0541687  
C    0.0000000    0.0000000    0.0000000  
H    3.0096014   -0.0001008    0.4807517  
H   -3.1967444    0.0002095   -1.8949028  
C    6.6685708   -0.0005967    0.8976866  
C    7.6427397   -0.0013905   -0.0483943  
C    6.9825038   -0.0021116   -1.3324984  
C    5.5334434   -0.0016404   -1.0549838  
N    5.4101702   -0.0011224    0.3153057  
C    4.5679458   -0.0016854   -2.0086709  
C    4.9837194   -0.0024605   -3.4013901  
O    4.1902288   -0.0026238   -4.3334168  
C    6.5131870   -0.0032215   -3.7184591  
O    6.8752460   -0.0041839   -4.8872933  
C    7.4587608   -0.0028166   -2.6050220  
H    8.7028559   -0.0016450    0.1326225  
H    8.5159862   -0.0031431   -2.8330532  
H    6.7640838    0.0001112    1.9713563  
H    4.5400773    0.0008356    0.8152875  
C    0.8681109    0.7263879    2.2709268  
C    0.6127770    0.5096195    3.5869401  
C   -0.4920590   -0.4175482    3.6542670  
C   -0.8620974   -0.7254003    2.2596025  
N    0.0000000    0.0000000    1.4700000  
C   -1.8641242   -1.5660088    1.8976294  
C   -2.6293522   -2.2103885    2.9520183  
O   -3.5512764   -2.9839180    2.7283916  
C   -2.2549728   -1.8987399    4.4361073  
O   -2.8923672   -2.4351063    5.3323774  
C   -1.1543735   -0.9755647    4.7012123  
H    1.1382914    0.9492124    4.4159191  
H   -2.1192137   -1.7782617    0.8686553  
H   -0.9013378   -0.7652422    5.7314848  
H    1.6172880    1.3558399    1.8188057  
