62

C    2.7684270   -3.2434558   -8.8083022  
C    3.0994329   -3.1973246  -10.1427598  
C    2.9062138   -1.8512794  -10.5733733  
C    2.4529229   -1.1154772   -9.4486296  
N    2.3784915   -1.9913470   -8.3941489  
C    2.1602454    0.2504614   -9.5064268  
C    2.3285133    0.8852399  -10.7217132  
O    2.0575605    2.2182784  -10.8339890  
C    2.7794856    0.1681436  -11.8553864  
O    2.8960888    0.9413761  -12.9919858  
C    3.0681502   -1.1794610  -11.7991631  
H    3.4374037   -4.0314918  -10.7334664  
H    1.8142689    0.8169356   -8.6528412  
H    2.2385105    2.4572816  -11.7523560  
H    3.2056513    0.3813319  -13.7104041  
H    3.4116695   -1.7021383  -12.6841943  
H    2.7782652   -4.0707543   -8.1195076  
C    2.5229104   -2.1069161   -5.8790361  
C    1.9659599   -1.6422908   -7.0270794  
C    0.8993071   -0.7471214   -6.6452951  
C    0.8803723   -0.7281566   -5.1701439  
N    1.8886141   -1.5732494   -4.7674571  
C    0.0139741    0.0003876   -4.4216236  
C   -0.9653705    0.8204010   -5.1151637  
O   -1.7886283    1.5123015   -4.5305090  
C   -0.9636625    0.8153758   -6.6771425  
O   -1.7837157    1.5015804   -7.2720341  
C    0.0195994   -0.0107210   -7.3732829  
H    0.0142656   -0.0084680   -8.4548052  
H    3.3432276   -2.7944518   -5.7515060  
H    2.1282169   -1.7702569   -3.8130854  
C    3.2798085    0.0005853   -1.4499648  
C    2.5571144    0.0005562   -2.5996554  
C    1.1637436    0.0001546   -2.2210360  
C    1.1336965   -0.0000201   -0.7459470  
N    2.4483513   -0.0001430   -0.3402717  
C    0.0000000    0.0000000    0.0000000  
C   -1.2757367   -0.0000188   -0.6964414  
O   -2.3524597   -0.0000640   -0.1142313  
C   -1.2676494   -0.0000875   -2.2584081  
O   -2.3355762   -0.0004102   -2.8557294  
C    0.0181562    0.0001757   -2.9516296  
H    2.9547357    0.0006072   -3.5989105  
H    4.3498550    0.0008609   -1.3200021  
H    2.7563627    0.0012824    0.6148063  
C    0.8576279    0.7185626    2.2703808  
C    0.0000000    0.0000000    1.4700000  
C   -0.8668858   -0.7285659    2.3373528  
C   -0.4876752   -0.4117774    3.6669281  
N    0.5635254    0.4678311    3.5902241  
C   -1.1297612   -0.9515493    4.7854808  
C   -2.1738724   -1.8268314    4.5576857  
O   -2.8357962   -2.3827064    5.6140350  
C   -2.5667212   -2.1555554    3.2384331  
O   -3.6226318   -3.0413663    3.1773122  
C   -1.9335634   -1.6236449    2.1344818  
H    1.0363952    0.8769718    4.3757045  
H   -0.8454472   -0.7142436    5.8013813  
H   -3.5178062   -2.9546422    5.2385129  
H   -3.8247440   -3.2102924    2.2519915  
H   -2.2566033   -1.8942483    1.1360343  
H    1.6567807    1.3889844    2.0042067  
