60

C   -3.2553471    3.6111322    1.5928236  
C   -3.6142951    4.4165963    2.6486887  
C   -5.0321177    4.3276467    2.7770148  
C   -5.4872152    3.4455740    1.7637231  
N   -4.3830536    3.0302051    1.0616457  
C   -6.8367210    3.1227865    1.5921618  
C   -7.7432898    3.7007418    2.4595015  
O   -9.0733363    3.4197518    2.3368943  
C   -7.3086814    4.5835903    3.4766105  
O   -8.3322459    5.0772292    4.2589019  
C   -5.9775480    4.9026908    3.6462732  
H   -2.9376063    4.9977362    3.2514850  
H   -7.1900240    2.4513354    0.8217517  
H   -9.5231110    3.9198247    3.0303611  
H   -7.9535373    5.6643917    4.9202818  
H   -5.6746306    5.5822689    4.4342410  
H   -2.2842878    3.4061766    1.1756960  
C   -4.3991024    2.0926371   -0.0704360  
C   -3.3610094    1.6305294   -0.8140048  
C   -3.9159995    0.7341912   -1.8006147  
C   -5.3729687    0.7118414   -1.5692446  
N   -5.6007886    1.5556530   -0.5067146  
C   -6.2559171   -0.0180491   -2.2968195  
C   -5.7365712   -0.8363897   -3.3799324  
O   -6.4507762   -1.5294000   -4.0926375  
C   -4.1968640   -0.8281647   -3.6426858  
O   -3.7479703   -1.5134097   -4.5516380  
C   -3.3460097   -0.0004262   -2.7913647  
H   -2.3247247    1.8880235   -0.6858467  
H   -7.3209340   -0.0201819   -2.1106906  
H   -6.5015175    1.7527679   -0.1106336  
C    0.0000000    0.0000000    0.0000000  
C    1.0662919   -0.0000103   -0.8334272  
C    0.4961868    0.0000066   -2.1718889  
C   -0.9663860   -0.0000849   -1.9540248  
N   -1.2632775   -0.0000084   -0.6828659  
C   -1.8985364   -0.0000515   -3.0477258  
C   -1.3925778    0.0004567   -4.3020543  
O   -2.1456385    0.0005412   -5.4151314  
C    0.0786229    0.0009326   -4.5544999  
O    0.4683756    0.0012594   -5.7221104  
C    1.0143162    0.0008443   -3.4159034  
H    2.1107195    0.0000631   -0.5721869  
H   -1.5042277    0.0009692   -6.1484420  
H    2.0724151    0.0013151   -3.6409746  
C    1.0672568    0.0000697    2.3021913  
C    0.0000000    0.0000000    1.4700000  
C   -1.1601224    0.0000736    2.3478473  
C   -0.5938729    0.0000769    3.7138435  
N    0.7113367    0.0001554    3.6934124  
C   -1.4286986    0.0001879    4.8835240  
C   -2.7683114    0.0006799    4.6970523  
O   -3.6653903    0.0008304    5.6976972  
C   -3.3702025    0.0010610    3.3310774  
O   -4.5974910    0.0013779    3.2362962  
C   -2.4926826    0.0008943    2.1470656  
H   -0.9878360   -0.0000190    5.8697035  
H   -4.5324246    0.0012261    5.2533954  
H   -2.9677772    0.0012974    1.1752040  
H    2.1134392    0.0000545    2.0405121  
