62

C    3.8746898   -3.6988592   -5.1079718  
C    2.8381504   -3.0666529   -4.4611576  
C    2.8771874   -3.4897581   -3.0995193  
C    3.9683066   -4.3872837   -2.9736893  
N    4.5511448   -4.4933275   -4.2121043  
C    4.3062630   -5.0020779   -1.7643084  
C    3.5287595   -4.7051860   -0.6618014  
O    3.8147653   -5.2774383    0.5439105  
C    2.4357377   -3.8124575   -0.7674233  
O    1.7588570   -3.6196565    0.4191699  
C    2.1015919   -3.2057930   -1.9602479  
H    5.3559709   -5.0530666   -4.4287317  
H    5.1365426   -5.6871622   -1.6618520  
H    3.1595336   -4.9401195    1.1685318  
H    1.0365552   -3.0041970    0.2607604  
H    1.2586597   -2.5265197   -2.0105590  
H    4.1841202   -3.6470358   -6.1377898  
C    1.8836765   -2.1362878   -5.0810771  
C    1.8358577   -1.7275852   -6.3703619  
C    0.7030357   -0.8169581   -6.4333933  
C    0.1677631   -0.7920094   -5.0551901  
N    0.8558147   -1.5634002   -4.2579886  
C   -0.9736297    0.0040464   -4.6965763  
C   -1.5536731    0.7419470   -5.6704281  
O   -2.6247580    1.5303580   -5.4774857  
C   -1.0366304    0.7382185   -7.0707186  
O   -1.6142412    1.4340391   -7.9058358  
C    0.1355193   -0.0866884   -7.4135273  
H    2.4887432   -2.0091995   -7.1787617  
H   -2.8038829    1.9233573   -6.3507659  
H    0.4792065   -0.0617341   -8.4389471  
C    1.1188642    0.0008222   -0.8003808  
C    0.0000000    0.0000000    0.0000000  
C   -1.1323862    0.0008899   -0.8673528  
C   -0.6382663    0.0019679   -2.1969280  
N    0.7324016    0.0038481   -2.1202242  
C   -1.4770914    0.0027318   -3.3154808  
C   -2.8395473    0.0020945   -3.0876857  
O   -3.7039201    0.0024425   -4.1440349  
C   -3.3517868    0.0013931   -1.7684331  
O   -4.7300497    0.0012366   -1.7073121  
C   -2.5248543    0.0009123   -0.6644817  
H    1.3576314   -0.0056167   -2.9057046  
H   -4.5940032    0.0021826   -3.7685128  
H   -4.9934602    0.0007259   -0.7819913  
H   -2.9462577    0.0005603    0.3339659  
H    2.1619895    0.0009355   -0.5342068  
C    2.5528530    2.1414826    2.8079335  
C    2.0663498    1.7338582    4.0032312  
C    0.9804344    0.8229586    3.6752840  
C    0.9495562    0.7966882    2.1971295  
N    1.8690446    1.5676019    1.6831036  
C    0.0000000    0.0000000    1.4700000  
C   -0.8785127   -0.7372425    2.1869543  
O   -1.8187535   -1.5261249    1.6395491  
C   -0.8723269   -0.7321790    3.6796354  
O   -1.7010379   -1.4274584    4.2670412  
C    0.1115397    0.0933559    4.4024240  
H    2.4028853    2.0163452    4.9860947  
H   -2.2861435   -1.9184361    2.3990168  
H    0.0832434    0.0693689    5.4835595  
H    3.3664920    2.8238276    2.6198634  
