66

C    4.5815793   -0.5423686   -7.5195617  
C    5.6551165   -0.4628309   -8.3761015  
C    5.7488336    0.8955127   -8.8012125  
C    4.6971841    1.6040396   -8.1656427  
N    4.0065892    0.7008284   -7.3962886  
C    4.4850795    2.9729784   -8.3548726  
C    5.3505562    3.6388533   -9.2008847  
O    5.1891754    4.9762131   -9.4209691  
C    6.4055900    2.9492794   -9.8444772  
O    7.1807052    3.7518025  -10.6559539  
C    6.6152662    1.5987373   -9.6584723  
H    6.2916288   -1.2831769   -8.6604909  
H    3.6853161    3.5187624   -7.8735194  
H    5.8885292    5.2384441  -10.0336722  
H    7.8693174    3.2090789  -11.0520218  
H    7.4317178    1.0975896  -10.1651634  
H    4.1796668   -1.3878242   -6.9879317  
C    2.8320536   -0.6842456   -3.3638060  
C    1.6628945    0.0339172   -3.2649299  
C    1.5251281    0.7739968   -4.4765002  
C    2.6497192    0.4643214   -5.2835459  
N    3.4240288   -0.4223170   -4.5771928  
C    2.8441968    1.0160061   -6.5534315  
C    1.8857964    1.8961095   -7.0171815  
O    2.0260206    2.4635775   -8.2506037  
C    0.7569685    2.2178780   -6.2265925  
O   -0.1068581    3.1097676   -6.8279908  
C    0.5646024    1.6742133   -4.9736162  
H    4.2830073   -0.8287898   -4.9011023  
H    1.2587957    3.0370503   -8.3761385  
H   -0.8411894    3.2733619   -6.2283258  
H   -0.3098409    1.9397111   -4.3910881  
H    3.2912529   -1.3614891   -2.6642088  
C    1.1243410    0.0100105   -0.7919003  
C    0.7474072    0.0234665   -2.1148542  
C   -0.6787384    0.0234379   -2.1414698  
C   -1.1201748    0.0098411   -0.7935547  
N    0.0000000    0.0000000    0.0000000  
C   -2.4730818    0.0063307   -0.4408240  
C   -3.3971962    0.0170429   -1.4675058  
O   -4.7313520    0.0145490   -1.1793468  
C   -2.9763654    0.0303020   -2.8186325  
O   -4.0166484    0.0394464   -3.7247625  
C   -1.6418567    0.0334992   -3.1673480  
H   -2.8160166   -0.0041569    0.5845966  
H   -5.1938823    0.0230023   -2.0274386  
H   -3.6464680    0.0481700   -4.6127343  
H   -1.3497475    0.0435647   -4.2109234  
H    2.1062466    0.0053162   -0.3505405  
C    0.8576279    0.7185626    2.2703808  
C    0.0000000    0.0000000    1.4700000  
C   -0.8668858   -0.7285659    2.3373528  
C   -0.4876752   -0.4117774    3.6669281  
N    0.5635254    0.4678311    3.5902241  
C   -1.1297612   -0.9515493    4.7854808  
C   -2.1738724   -1.8268314    4.5576857  
O   -2.8357962   -2.3827064    5.6140350  
C   -2.5667212   -2.1555554    3.2384331  
O   -3.6226318   -3.0413663    3.1773122  
C   -1.9335634   -1.6236449    2.1344818  
H    1.0363952    0.8769718    4.3757045  
H   -0.8454472   -0.7142436    5.8013813  
H   -3.5178062   -2.9546422    5.2385129  
H   -3.8247440   -3.2102924    2.2519915  
H   -2.2566033   -1.8942483    1.1360343  
H    1.6567807    1.3889844    2.0042067  
