60

C    1.8809259   -3.2584952  -10.0581880  
C    1.3315652   -2.5524158   -9.0131418  
C    1.2383224   -1.1923953   -9.4329640  
C    1.7499562   -1.1286974  -10.7543644  
N    2.1330849   -2.4001178  -11.1026757  
C    1.8118662    0.0618512  -11.4848094  
C    1.3485685    1.2089411  -10.8702207  
O    1.3854941    2.3986481  -11.5382388  
C    0.8347967    1.1657008   -9.5522734  
O    0.4131232    2.3913007   -9.0795799  
C    0.7736688   -0.0084044   -8.8309793  
H    1.0355782   -2.9664468   -8.0644781  
H    2.5239753   -2.6663438  -11.9882875  
H    2.2008081    0.1170831  -12.4922195  
H    1.0206392    3.0608741  -10.9369050  
H    0.0809010    2.2740786   -8.1843200  
H    2.1141620   -4.3062375  -10.1406301  
C    1.9999918   -2.1070890   -5.1447766  
C    1.9105667   -1.6426495   -6.4177158  
C    0.7784254   -0.7475272   -6.4606980  
C    0.2115582   -0.7283877   -5.0986826  
N    0.9973786   -1.5733444   -4.3494008  
C   -0.8712826    0.0001710   -4.7267111  
C   -1.5219797    0.8200163   -5.7351666  
O   -2.5037637    1.5119151   -5.4992068  
C   -0.9387700    0.8148045   -7.1841813  
O   -1.4783591    1.5008668   -8.0417488  
C    0.2330300   -0.0112902   -7.4640108  
H    2.5631036   -1.8981143   -7.2335262  
H    2.7138547   -2.7945382   -4.7208625  
H    0.8643846   -1.7702172   -3.3744130  
C    1.0965514    0.0001359   -0.8010305  
C    0.0000000    0.0000000    0.0000000  
C   -1.1546563    0.0001470   -0.8669513  
C   -0.6372014    0.0003519   -2.2486282  
N    0.7342871    0.0007337   -2.1395014  
C   -1.4147739    0.0001352   -3.3608717  
C   -2.8576049   -0.0001048   -3.1854462  
O   -3.6427779   -0.0002494   -4.1244907  
C   -3.4275840   -0.0000725   -1.7311666  
O   -4.6406831    0.0000333   -1.5710060  
C   -2.4891867   -0.0001091   -0.6116744  
H   -2.8919122   -0.0002918    0.3920866  
H    2.1388272    0.0000663   -0.5261648  
H    1.3735872   -0.0006099   -2.9130262  
C    0.0000000    0.0000000    1.4700000  
C    1.0541688    0.0001722    2.3260392  
C    0.5103138    0.0000454    3.6635956  
C   -0.9576371   -0.0002459    3.5155732  
N   -1.2018458    0.0001392    2.1615969  
C   -1.8348311   -0.0008317    4.5510609  
C   -1.2972847   -0.0009736    5.9014604  
O   -2.0050672   -0.0014265    6.9001319  
C    0.2542623   -0.0004184    6.0817573  
O    0.7184670   -0.0002256    7.2139121  
C    1.0974552   -0.0000873    4.8889129  
H    2.0940752    0.0005483    2.0517982  
H   -2.9081052   -0.0011668    4.4207061  
H    2.1707277    0.0000911    5.0223670  
H   -2.1128194   -0.0014912    1.7406791  
