60

C    9.0581381   -0.0038216    0.6598393  
C    9.7352066   -0.0065714    1.8573522  
C   11.1277221   -0.0088610    1.5483258  
C   11.2402761   -0.0070722    0.1343760  
N    9.9650646   -0.0059728   -0.3740026  
C   12.4725183   -0.0082441   -0.5262048  
C   13.6118938   -0.0109701    0.2548165  
O   14.8410740   -0.0118657   -0.3385881  
C   13.5201201   -0.0131623    1.6670456  
O   14.7441050   -0.0161846    2.3035965  
C   12.3048184   -0.0122812    2.3194003  
H    9.2812818   -0.0079934    2.8335402  
H    9.7293360    0.0059347   -1.3498465  
H   12.5650584   -0.0070369   -1.6035337  
H   15.4898319   -0.0141026    0.3772147  
H   14.5928020   -0.0174884    3.2537069  
H   12.2659454   -0.0141951    3.4024344  
C    6.6174604   -0.0017047    1.3537077  
C    5.3857487   -0.0012517    0.7819026  
C    5.5854749   -0.0008503   -0.6481131  
C    7.0449748   -0.0011376   -0.8640993  
N    7.6133357   -0.0012547    0.3888394  
C    7.6418659   -0.0012958   -2.0828796  
C    6.7899755   -0.0009488   -3.2605120  
O    7.2316305   -0.0009950   -4.4021083  
C    5.2415215   -0.0003889   -3.0553446  
O    4.5141879    0.0002132   -4.0393396  
C    4.7161325   -0.0005435   -1.6923264  
H    4.4446705   -0.0010218    1.3024658  
H    8.7143807   -0.0016363   -2.2193392  
H    6.8814402   -0.0021124    2.3987936  
C    3.2573665   -0.0002920   -1.5109385  
C    2.5379463   -0.0001709   -0.3591964  
C    1.1435038    0.0000331   -0.7338500  
C    1.1092599   -0.0000083   -2.2088477  
N    2.4227553    0.0001909   -2.6182613  
C   -0.0265539   -0.0002524   -2.9515660  
C   -1.3003040   -0.0002640   -2.2514977  
O   -2.3786790   -0.0004133   -2.8306421  
C   -1.2877727    0.0000311   -0.6895603  
O   -2.3539959    0.0003306   -0.0892030  
C    0.0000000    0.0000000    0.0000000  
H    2.9384091   -0.0000367    0.6389234  
H   -0.0296303   -0.0004086   -4.0327229  
H    2.7280482   -0.0013407   -3.5742119  
C    0.0000000    0.0000000    1.4700000  
C    1.0541688    0.0001722    2.3260392  
C    0.5103138    0.0000454    3.6635956  
C   -0.9576371   -0.0002459    3.5155732  
N   -1.2018458    0.0001392    2.1615969  
C   -1.8348311   -0.0008317    4.5510609  
C   -1.2972847   -0.0009736    5.9014604  
O   -2.0050672   -0.0014265    6.9001319  
C    0.2542623   -0.0004184    6.0817573  
O    0.7184670   -0.0002256    7.2139121  
C    1.0974552   -0.0000873    4.8889129  
H    2.0940752    0.0005483    2.0517982  
H   -2.9081052   -0.0011668    4.4207061  
H    2.1707277    0.0000911    5.0223670  
H   -2.1128194   -0.0014912    1.7406791  
