64

C    4.7279105   -1.0616695   -4.9891819  
C    5.5598135   -1.9525763   -4.3514602  
C    6.6542836   -2.2032184   -5.2311847  
C    6.4339774   -1.4307075   -6.4002085  
N    5.2547178   -0.7511138   -6.2210010  
C    7.3165732   -1.4313159   -7.4845586  
C    8.4422230   -2.2260168   -7.3868820  
O    9.3373772   -2.2637483   -8.4165856  
C    8.6793221   -3.0041969   -6.2288507  
O    9.8433608   -3.7426417   -6.2841182  
C    7.8089134   -3.0042938   -5.1588438  
H    5.3971949   -2.3712524   -3.3730643  
H    4.8459216   -0.1141775   -6.8806815  
H    7.1543092   -0.8449059   -8.3784242  
H   10.0384337   -2.8712059   -8.1468065  
H    9.9280635   -4.2387203   -5.4641579  
H    8.0169749   -3.6108697   -4.2851997  
C    2.8405919   -0.6921322   -3.3577789  
C    3.4604994   -0.4644328   -4.5443459  
C    2.6384065    0.4700294   -5.2763156  
C    1.4804521    0.7702492   -4.4127189  
N    1.6628945    0.0339172   -3.2649299  
C    0.4714000    1.6144659   -4.7456108  
C    0.5296171    2.2710624   -6.0409978  
O   -0.3306320    3.0486892   -6.4328757  
C    1.7466586    1.9676547   -6.9718898  
O    1.8063721    2.5143253   -8.0649802  
C    2.7724700    1.0395747   -6.5026035  
H   -0.3689150    1.8209773   -4.0974340  
H    3.6119876    0.8350155   -7.1530569  
H    3.1449034   -1.3294200   -2.5434398  
C    1.1243410    0.0100105   -0.7919003  
C    0.7474072    0.0234665   -2.1148542  
C   -0.6787384    0.0234379   -2.1414698  
C   -1.1201748    0.0098411   -0.7935547  
N    0.0000000    0.0000000    0.0000000  
C   -2.4730818    0.0063307   -0.4408240  
C   -3.3971962    0.0170429   -1.4675058  
O   -4.7313520    0.0145490   -1.1793468  
C   -2.9763654    0.0303020   -2.8186325  
O   -4.0166484    0.0394464   -3.7247625  
C   -1.6418567    0.0334992   -3.1673480  
H   -2.8160166   -0.0041569    0.5845966  
H   -5.1938823    0.0230023   -2.0274386  
H   -3.6464680    0.0481700   -4.6127343  
H   -1.3497475    0.0435647   -4.2109234  
H    2.1062466    0.0053162   -0.3505405  
C    2.5311839    2.1237619    3.0120429  
C    1.9795631    1.6616747    1.8395852  
C    0.9223175    0.7739173    2.1983588  
C    0.8753926    0.7337535    3.6154372  
N    1.8668922    1.5631002    4.0777464  
C   -0.0496243   -0.0427881    4.3197917  
C   -0.9437528   -0.7922060    3.5801400  
O   -1.8685244   -1.5680278    4.2172520  
C   -0.9124520   -0.7656372    2.1655264  
O   -1.8671164   -1.5663939    1.5732860  
C    0.0000000    0.0000000    1.4700000  
H    2.3005065    1.9304404    0.8477417  
H    2.0679347    1.7444845    5.0445261  
H   -0.0904770   -0.0778569    5.3997470  
H   -2.3849669   -2.0011402    3.5251786  
H   -1.7775064   -1.4909735    0.6183591  
H    3.3468514    2.8078103    3.1724291  
