62

C    4.3405876    0.0834577   -6.6680295  
C    5.5314512   -0.5653745   -6.8989578  
C    5.9798552   -0.1647872   -8.1924269  
C    5.0136596    0.7372086   -8.7070094  
N    4.0308331    0.8642086   -7.7569873  
C    5.1312129    1.3342950   -9.9657616  
C    6.2445673    1.0152405  -10.7186384  
O    6.4093074    1.5700935  -11.9547663  
C    7.2193607    0.1171334  -10.2226567  
O    8.2690794   -0.0991436  -11.0913684  
C    7.1039053   -0.4724894   -8.9810686  
H    6.0166517   -1.2447737   -6.2192590  
H    3.2178675    1.4478171   -7.8374152  
H    4.3982393    2.0224511  -10.3637490  
H    7.2387508    1.2184685  -12.3035478  
H    8.8817089   -0.7166902  -10.6803635  
H    7.8665787   -1.1566905   -8.6279728  
C    4.6022462   -2.1272931   -2.8466434  
C    3.4305510   -1.6635856   -2.2947617  
C    2.8449917   -0.7762114   -3.2457021  
C    3.7116210   -0.7379407   -4.3679383  
N    4.7696350   -1.5679973   -4.0918412  
C    3.4480381    0.0377430   -5.5009113  
C    2.2883219    0.7882332   -5.5011201  
O    1.9820896    1.5632872   -6.5821047  
C    1.4112320    0.7635555   -4.3907505  
O    0.2988108    1.5651928   -4.5432008  
C    1.6707636   -0.0012343   -3.2725974  
H    3.0458274   -1.9310528   -1.3255135  
H    5.5403297   -1.7506945   -4.7087957  
H    1.1435171    1.9973734   -6.3780712  
H   -0.2405314    1.4910428   -3.7499695  
H    5.3325177   -2.8116314   -2.4499765  
C    1.0965514    0.0001358   -0.8010306  
C    0.0000000    0.0000000    0.0000000  
C   -1.1546565    0.0001470   -0.8669508  
C   -0.6372019    0.0003520   -2.2486278  
N    0.7342867    0.0007338   -2.1395012  
C   -1.4147744    0.0001354   -3.3608712  
C   -2.8576052   -0.0001047   -3.1854454  
O   -3.6427785   -0.0002490   -4.1244896  
C   -3.4275841   -0.0000727   -1.7311660  
O   -4.6406832    0.0000333   -1.5710049  
C   -2.4891868   -0.0001090   -0.6116739  
H   -1.0150456    0.0001617   -4.3654239  
H   -2.8919122   -0.0002919    0.3920871  
H    2.1388270    0.0000663   -0.5261650  
C    0.8681109    0.7263879    2.2709268  
C    0.6127770    0.5096195    3.5869401  
C   -0.4920590   -0.4175482    3.6542670  
C   -0.8620974   -0.7254003    2.2596025  
N    0.0000000    0.0000000    1.4700000  
C   -1.8641242   -1.5660088    1.8976294  
C   -2.6293522   -2.2103885    2.9520183  
O   -3.5512764   -2.9839180    2.7283916  
C   -2.2549728   -1.8987399    4.4361073  
O   -2.8923672   -2.4351063    5.3323774  
C   -1.1543735   -0.9755647    4.7012123  
H    1.1382914    0.9492124    4.4159191  
H   -2.1192137   -1.7782617    0.8686553  
H   -0.9013378   -0.7652422    5.7314848  
H    1.6172880    1.3558399    1.8188057  
