64

C    2.7015518   -3.0393877   -8.2148501  
C    2.2183896   -1.8168390   -7.8093922  
C    2.5422197   -0.8801357   -8.8352193  
C    3.2283444   -1.5950363   -9.8501453  
N    3.3096490   -2.9028723   -9.4407908  
C    3.6985743   -0.9865563  -11.0178040  
C    3.4717706    0.3682333  -11.1636933  
O    3.9093749    1.0124323  -12.2846409  
C    2.7894231    1.0988302  -10.1619708  
O    2.6423095    2.4390535  -10.4543786  
C    2.3254898    0.4992556   -9.0096686  
H    3.7345911   -3.6486492   -9.9615826  
H    4.2223379   -1.5258130  -11.7950267  
H    3.6516892    1.9382116  -12.1856700  
H    2.1718640    2.8590227   -9.7278046  
H    1.8063526    1.0847544   -8.2598913  
H    2.6617712   -3.9976690   -7.7258990  
C    1.8159016   -2.1156534   -5.3336806  
C    0.9337941   -1.6549081   -4.3839084  
C    0.0359166   -0.7660298   -5.0459596  
C    0.4223297   -0.7238310   -6.4100823  
N    1.5073772   -1.5530969   -6.5501064  
C   -0.2444663    0.0542445   -7.3612762  
C   -1.3211419    0.8031322   -6.9275550  
O   -2.0081610    1.5803925   -7.8146200  
C   -1.7216870    0.7745412   -5.5705127  
O   -2.8111770    1.5750115   -5.2955535  
C   -1.0641734    0.0073898   -4.6315339  
H    0.9377500   -1.9252650   -3.3418506  
H    0.0451694    0.0908672   -8.4024158  
H   -2.7106169    2.0128237   -7.3118039  
H   -3.0163349    1.4981861   -4.3587442  
H    2.6416167   -2.7999472   -5.2393636  
C    1.1319248    0.0015675   -0.8009270  
C    0.7969916    0.0034959   -2.1169404  
C   -0.6453336    0.0035703   -2.1842672  
C   -1.1266831    0.0015415   -0.7896027  
N    0.0000000    0.0000000    0.0000000  
C   -2.4346129    0.0013924   -0.4276297  
C   -3.4350110    0.0031352   -1.4820184  
O   -4.6384610    0.0030897   -1.2583919  
C   -2.9478958    0.0050460   -2.9661075  
O   -3.7809377    0.0062160   -3.8623775  
C   -1.5113821    0.0053068   -3.2312125  
H    1.4821240    0.0045436   -2.9459192  
H   -2.7664565    0.0000185    0.6013447  
H    2.1104318    0.0009428   -0.3488058  
C    0.0000000    0.0000000    1.4700000  
C    1.0521667    0.0011902    2.3562342  
C    0.4917218    0.0011957    3.6679131  
C   -0.9187428   -0.0003148    3.5178682  
N   -1.1833171    0.0009411    2.1707914  
C   -1.7951701   -0.0010350    4.6072090  
C   -1.2375837   -0.0005224    5.8710424  
O   -2.0474215   -0.0015360    6.9697579  
C    0.1673580    0.0013566    6.0411963  
O    0.5673524    0.0020687    7.3615553  
C    1.0325770    0.0023412    4.9669890  
H    2.0953057    0.0030649    2.0900562  
H   -2.0989778   -0.0102372    1.7591824  
H   -2.8710934   -0.0020419    4.4995513  
H   -1.4634884   -0.0006497    7.7393593  
H    1.5290710    0.0033153    7.3880045  
H    2.1042148    0.0039609    5.1284455  
