62

C    9.9791432    0.7179807   -0.8498395  
C    9.0071987    0.0003575   -0.1919580  
C    9.6588434   -0.7277275    0.8472020  
C   11.0396616   -0.4116271    0.7740881  
N   11.1999288    0.4671256   -0.2683732  
C   11.9864304   -0.9511762    1.6500469  
C   11.5309310   -1.8255232    2.6176289  
O   12.4126293   -2.3811411    3.4990526  
C   10.1571244   -2.1535502    2.7063496  
O    9.8614546   -3.0384627    3.7226431  
C    9.2225923   -1.6218594    1.8423590  
H   12.0713275    0.8756518   -0.5542968  
H   13.0402698   -0.7143916    1.5994814  
H   11.8940925   -2.9524026    4.0804675  
H    8.9142882   -3.2069615    3.7132470  
H    8.1771060   -1.8919139    1.9345934  
H    9.8983677    1.3878097   -1.6887453  
C    6.8742260    0.0004673   -4.0661423  
C    5.5942422    0.0008993   -3.5620504  
C    5.7067592    0.0008100   -2.1401013  
C    7.0913509    0.0006002   -1.8321528  
N    7.7720040   -0.0015555   -3.0243458  
C    7.5742853    0.0007687   -0.5200693  
C    6.6425085    0.0014633    0.4997193  
O    7.0593435    0.0020074    1.7994354  
C    5.2567325    0.0013069    0.2125910  
O    4.4562658    0.0016418    1.3362446  
C    4.7795901    0.0008674   -1.0815733  
H    4.6906028    0.0001318   -4.1472243  
H    8.7711574    0.0083685   -3.1221988  
H    6.2603303    0.0021429    2.3424297  
H    3.5363981    0.0015351    1.0543802  
H    7.2178046   -0.0000038   -5.0863935  
C    3.3321168    0.0004716   -1.3379341  
C    2.6974177    0.0000118   -2.5332316  
C    1.2800432   -0.0002116   -2.2052842  
C    1.2395033    0.0000644   -0.7271298  
N    2.4394059    0.0005460   -0.2131041  
C    0.0000000    0.0000000    0.0000000  
C   -1.1468704    0.0000635   -0.7169542  
O   -2.3742206    0.0000074   -0.1695488  
C   -1.1388774    0.0001608   -2.2096352  
O   -2.2206238    0.0000906   -2.7970409  
C    0.1454514    0.0001818   -2.9324241  
H    3.1367978   -0.0000649   -3.5160956  
H   -2.9844350    0.0001027   -0.9290164  
H    0.1083567    0.0003684   -4.0135594  
C    0.0000000    0.0000000    1.4700000  
C    1.0541688    0.0001722    2.3260392  
C    0.5103138    0.0000454    3.6635956  
C   -0.9576371   -0.0002459    3.5155732  
N   -1.2018458    0.0001392    2.1615969  
C   -1.8348311   -0.0008317    4.5510609  
C   -1.2972847   -0.0009736    5.9014604  
O   -2.0050672   -0.0014265    6.9001319  
C    0.2542623   -0.0004184    6.0817573  
O    0.7184670   -0.0002256    7.2139121  
C    1.0974552   -0.0000873    4.8889129  
H    2.0940752    0.0005483    2.0517982  
H   -2.9081052   -0.0011668    4.4207061  
H    2.1707277    0.0000911    5.0223670  
H   -2.1128194   -0.0014912    1.7406791  
