60

C    7.1971040   -3.6340404   -3.3454928  
C    6.8242361   -3.0369665   -4.5274151  
C    7.7247937   -3.5020262   -5.5310660  
C    8.6329320   -4.3881988   -4.8971033  
N    8.2854777   -4.4441707   -3.5701672  
C    9.6624739   -5.0364746   -5.5859938  
C    9.7771604   -4.7858299   -6.9395832  
O   10.7645050   -5.3927374   -7.6605705  
C    8.8809468   -3.9045517   -7.5899415  
O    9.1261503   -3.7586978   -8.9397359  
C    7.8652114   -3.2644555   -6.9109093  
H    8.7452175   -5.0013037   -2.8728698  
H   10.3579777   -5.7129107   -5.1085948  
H   10.6669532   -5.0841706   -8.5708092  
H    8.4772373   -3.1480257   -9.3024959  
H    7.1941826   -2.5947251   -7.4359417  
H    6.7736905   -3.5450103   -2.3597172  
C    5.7052414   -2.0986832   -4.6958680  
C    4.8302126   -1.6343308   -3.7670099  
C    3.9272648   -0.7382851   -4.4501080  
C    4.3509914   -0.7185532   -5.8632098  
N    5.4336782   -1.5634475   -5.9458741  
C    3.7483765    0.0103197   -6.8365049  
C    2.6063696    0.8302497   -6.4676277  
O    1.9959432    1.5225187   -7.2716453  
C    2.1405130    0.8248035   -4.9767376  
O    1.1803930    1.5114043   -4.6542318  
C    2.8699641   -0.0020530   -4.0185824  
H    4.8187254   -1.8901546   -2.7224838  
H    4.0749498    0.0105278   -7.8671645  
H    5.9462301   -1.7623466   -6.7853838  
C    3.2573670   -0.0002921   -1.5109382  
C    2.5379468   -0.0001711   -0.3591962  
C    1.1435043    0.0000330   -0.7338498  
C    1.1092608   -0.0000085   -2.2088474  
N    2.4227562    0.0001906   -2.6182610  
C   -0.0265533   -0.0002525   -2.9515663  
C   -1.3003033   -0.0002641   -2.2514979  
O   -2.3786785   -0.0004132   -2.8306425  
C   -1.2877724    0.0000310   -0.6895608  
O   -2.3539956    0.0003306   -0.0892035  
C    0.0000000    0.0000000    0.0000000  
H    2.9384091   -0.0000370    0.6389240  
H   -0.0296290   -0.0004088   -4.0327231  
H    4.3270394   -0.0004767   -1.6439445  
C    0.0000000    0.0000000    1.4700000  
C    1.0662921    0.0000102    2.3034270  
C    0.4961870   -0.0000064    3.6418889  
C   -0.9663858    0.0000850    3.4240247  
N   -1.2632773    0.0000084    2.1528658  
C   -1.8985362    0.0000517    4.5177257  
C   -1.3925775   -0.0004564    5.7720543  
O   -2.1456383   -0.0005410    6.8851312  
C    0.0786232   -0.0009323    6.0245000  
O    0.4683759   -0.0012588    7.1921102  
C    1.0143166   -0.0008442    4.8859032  
H    2.1107198   -0.0000632    2.0421868  
H   -2.9622183    0.0003270    4.3293377  
H   -1.5042274   -0.0009692    7.6184419  
H    2.0724152   -0.0013148    5.1109744  
