60

C    8.1505513   -5.6352728   -6.3597865  
C    7.3894034   -4.6501412   -5.7744346  
C    7.6465688   -3.4440807   -6.4912919  
C    8.5804191   -3.7575676   -7.5118680  
N    8.8667345   -5.0957334   -7.4025386  
C    9.0622386   -2.8049265   -8.4147053  
C    8.5925587   -1.5123395   -8.2851024  
O    9.0298253   -0.5427530   -9.1405055  
C    7.6609212   -1.1799205   -7.2729936  
O    7.2897460    0.1488277   -7.2738499  
C    7.1853688   -2.1191540   -6.3818050  
H    6.7307752   -4.7840606   -4.9334431  
H    9.4915149   -5.6062493   -8.0000352  
H    9.7741357   -3.0374319   -9.1946706  
H    8.5844094    0.2735175   -8.8786417  
H    6.6594938    0.2890220   -6.5605966  
H    8.2403262   -6.6797901   -6.1150749  
C    6.1745029   -2.1408800   -4.0544034  
C    6.2180775   -1.7334918   -5.3442539  
C    5.0926412   -0.8229053   -5.4882169  
C    4.4611847   -0.7965391   -4.1513727  
N    5.0910257   -1.5671311   -3.3066964  
C    3.2973506   -0.0000934   -3.8752374  
C    2.7877444    0.7368257   -4.8884434  
O    1.7057652    1.5254555   -4.7725803  
C    3.4025815    0.7316574   -6.2486306  
O    2.8855805    1.4266378   -7.1232349  
C    4.5959743   -0.0936240   -6.5067945  
H    1.5889229    1.9175677   -5.6567458  
H    5.0113657   -0.0697227   -7.5053481  
H    6.8407164   -2.8229592   -3.5505179  
C    3.3321174    0.0004714   -1.3379332  
C    2.6974186    0.0000115   -2.5332308  
C    1.2800441   -0.0002119   -2.2052838  
C    1.2395035    0.0000643   -0.7271293  
N    2.4394063    0.0005458   -0.2131034  
C    0.0000000    0.0000000    0.0000000  
C   -1.1468701    0.0000634   -0.7169542  
O   -2.3742201    0.0000072   -0.1695492  
C   -1.1388767    0.0001606   -2.2096354  
O   -2.2206229    0.0000903   -2.7970413  
C    0.1454526    0.0001815   -2.9324239  
H   -2.9844344    0.0001023   -0.9290168  
H    0.1083580    0.0003680   -4.0135594  
H    4.3940040    0.0007617   -1.1498630  
C    2.4951002    2.0940188    2.9809380  
C    1.9440701    1.6314916    1.8291961  
C    0.8759964    0.7350050    2.2038498  
C    0.8497377    0.7130254    3.6788474  
N    1.8560616    1.5571714    4.0882609  
C   -0.0205033   -0.0168748    4.4215661  
C   -0.9962600   -0.8356168    3.7214979  
O   -1.8224391   -1.5286685    4.3006425  
C   -0.9864710   -0.8277881    2.1595606  
O   -1.8030528   -1.5133726    1.5592035  
C    0.0000000    0.0000000    1.4700000  
H    2.2509283    1.8888011    0.8310761  
H   -0.0229599   -0.0187323    5.5027230  
H    3.3143982    2.7817323    3.1139444  
H    2.0889452    1.7545833    5.0442112  
