62

C   -6.3456172    1.0733388   -0.9608646  
C   -6.1749101    1.9590220    0.0778323  
C   -7.4683828    2.2194556    0.6197766  
C   -8.3969658    1.4580247   -0.1351295  
N   -7.6821875    0.7753336   -1.0878323  
C   -9.7711980    1.4701639    0.1220220  
C  -10.2161028    2.2652157    1.1603523  
O  -11.5479992    2.3139632    1.4547813  
C   -9.3051496    3.0324417    1.9247774  
O   -9.9032524    3.7727647    2.9235451  
C   -7.9493322    3.0211607    1.6714803  
H   -5.2339957    2.3680245    0.4040057  
H   -8.0720680    0.1443223   -1.7644408  
H  -10.4841346    0.8922333   -0.4497478  
H  -11.6405302    2.9196136    2.2017023  
H   -9.2189892    4.2609910    3.3915431  
H   -7.2758612    3.6195065    2.2738898  
C   -3.9884053    0.7039232   -1.8242583  
C   -3.3460097   -0.0004262   -2.7913647  
C   -4.3537576   -0.7427567   -3.5112429  
C   -5.6451796   -0.4107432   -2.8797467  
N   -5.3546447    0.4703280   -1.8637778  
C   -6.8441771   -0.9105386   -3.2725756  
C   -6.8640249   -1.8374915   -4.3919058  
O   -7.8934838   -2.3421825   -4.8206287  
C   -5.5080965   -2.2034208   -5.0755418  
O   -5.5122767   -2.9830138   -6.0186632  
C   -4.2805263   -1.6000814   -4.5627984  
H   -7.7799856   -0.6539442   -2.7957828  
H   -3.3459149   -1.8584818   -5.0418129  
H   -3.5786587    1.3738259   -1.0858632  
C    0.0000000    0.0000000    0.0000000  
C    1.0662919   -0.0000103   -0.8334272  
C    0.4961868    0.0000066   -2.1718889  
C   -0.9663860   -0.0000849   -1.9540248  
N   -1.2632775   -0.0000084   -0.6828659  
C   -1.8985364   -0.0000515   -3.0477258  
C   -1.3925778    0.0004567   -4.3020543  
O   -2.1456385    0.0005412   -5.4151314  
C    0.0786229    0.0009326   -4.5544999  
O    0.4683756    0.0012594   -5.7221104  
C    1.0143162    0.0008443   -3.4159034  
H    2.1107195    0.0000631   -0.5721869  
H   -1.5042277    0.0009692   -6.1484420  
H    2.0724151    0.0013151   -3.6409746  
C    0.0000000    0.0000000    1.4700000  
C    1.0521667    0.0011902    2.3562342  
C    0.4917218    0.0011957    3.6679131  
C   -0.9187428   -0.0003148    3.5178682  
N   -1.1833171    0.0009411    2.1707914  
C   -1.7951701   -0.0010350    4.6072090  
C   -1.2375837   -0.0005224    5.8710424  
O   -2.0474215   -0.0015360    6.9697579  
C    0.1673580    0.0013566    6.0411963  
O    0.5673524    0.0020687    7.3615553  
C    1.0325770    0.0023412    4.9669890  
H    2.0953057    0.0030649    2.0900562  
H   -2.0989778   -0.0102372    1.7591824  
H   -2.8710934   -0.0020419    4.4995513  
H   -1.4634884   -0.0006497    7.7393593  
H    1.5290710    0.0033153    7.3880045  
H    2.1042148    0.0039609    5.1284455  
