66

C   -0.1609456    0.7850247   -7.3220843  
C   -1.1205096    0.5451621   -8.2782065  
C   -0.5486407   -0.3551162   -9.2253412  
C    0.7729424   -0.6320272   -8.7909850  
N    0.9766025    0.0777458   -7.6336766  
C    1.6343479   -1.4858198   -9.4865480  
C    1.1527483   -2.0709654  -10.6414698  
O    1.9517151   -2.9132882  -11.3592145  
C   -0.1628314   -1.8067818  -11.0912194  
O   -0.4941588   -2.4648418  -12.2576345  
C   -1.0130872   -0.9643895  -10.4056797  
H   -2.1104584    0.9680159   -8.2919802  
H    2.6427503   -1.7008594   -9.1608419  
H    1.4286767   -3.2063931  -12.1167014  
H   -1.3977760   -2.2321218  -12.4919902  
H   -2.0154257   -0.7809968  -10.7746836  
H   -0.1974809    1.4057845   -6.4432887  
C    1.6628972    0.0337774   -3.2649299  
C    3.0380376    0.0322339   -3.3030632  
C    3.4164363    0.0450042   -4.6782910  
C    2.2194499    0.0543131   -5.4392527  
N    1.1735136    0.0452126   -4.5501230  
C    2.2121579    0.0682245   -6.8373024  
C    3.4355021    0.0731290   -7.4788486  
O    3.4861483    0.0869817   -8.8427611  
C    4.6406904    0.0636279   -6.7370616  
O    5.7759387    0.0697218   -7.5209740  
C    4.6486387    0.0496297   -5.3578352  
H    3.6884138    0.0219302   -2.4452181  
H    0.2007677    0.0592358   -4.7982168  
H    4.4223080    0.0878593   -9.0812346  
H    6.5448551    0.0626228   -6.9427687  
H    5.5876348    0.0424199   -4.8168060  
C    1.1243417    0.0099160   -0.7919004  
C    0.7474091    0.0234036   -2.1148543  
C   -0.6787366    0.0234950   -2.1414699  
C   -1.1201739    0.0099353   -0.7935547  
N    0.0000000    0.0000000    0.0000000  
C   -2.4730814    0.0065387   -0.4408241  
C   -3.3971947    0.0173286   -1.4675058  
O   -4.7313509    0.0149470   -1.1793468  
C   -2.9763629    0.0305525   -2.8186324  
O   -4.0166449    0.0397843   -3.7247623  
C   -1.6418539    0.0336374   -3.1673480  
H   -2.8160170   -0.0039200    0.5845965  
H   -5.1938800    0.0234391   -2.0274383  
H   -3.6464639    0.0484767   -4.6127342  
H   -1.3497441    0.0436783   -4.2109235  
H    2.1062470    0.0051389   -0.3505406  
C    0.8676693    0.7151171    2.2619005  
C    0.5875920    0.4624972    3.5848544  
C   -0.5048400   -0.4542819    3.6114698  
C   -0.8517165   -0.7276451    2.2635546  
N    0.0000000    0.0000000    1.4700000  
C   -1.8902865   -1.5946756    1.9108239  
C   -2.5912627   -2.1969500    2.9375057  
O   -3.6148162   -3.0527051    2.6493466  
C   -2.2603868   -1.9365747    4.2886322  
O   -3.0513550   -2.6123276    5.1947621  
C   -1.2361111   -1.0811317    4.6373480  
H    1.1060808    0.8876438    4.4271209  
H   -2.1597133   -1.8070987    0.8854031  
H   -3.9636755   -3.3565188    3.4974381  
H   -2.7621927   -2.3810384    6.0827341  
H   -1.0058879   -0.9010589    5.6809233  
H    1.6167816    1.3499334    1.8205408  
