60

C    3.2095571   -5.4976322   -8.8916516  
C    2.7834996   -4.5356829   -8.0053124  
C    2.6995790   -3.3098597   -8.7298230  
C    3.0895546   -3.5879532  -10.0649297  
N    3.3944760   -4.9249753  -10.1282684  
C    3.1255853   -2.6084028  -11.0619105  
C    2.7610102   -1.3247971  -10.7046730  
O    2.7778835   -0.3299599  -11.6390325  
C    2.3693036   -1.0275491   -9.3776360  
O    2.0358528    0.2964746   -9.1798602  
C    2.3337833   -1.9933445   -8.3935105  
H    2.5616608   -4.6973514   -6.9643305  
H    3.6928219   -5.4137557  -10.9529272  
H    3.4220155   -2.8138823  -12.0812772  
H    2.4931430    0.4745983  -11.1864039  
H    1.7834018    0.4122195   -8.2587324  
H    3.3975409   -6.5466265   -8.7392318  
C    2.4782020   -2.1081877   -5.8783644  
C    1.9212515   -1.6438940   -7.0265418  
C    0.8545983   -0.7486149   -6.6450159  
C    0.8356633   -0.7292244   -5.1698703  
N    1.8439055   -1.5742005   -4.7669395  
C   -0.0307352   -0.0004646   -4.4215603  
C   -1.0100801    0.8193483   -5.1153371  
O   -1.8333382    1.5114172   -4.5308821  
C   -1.0083720    0.8138723   -6.6773144  
O   -1.8284254    1.4999049   -7.2724040  
C   -0.0251097   -0.0124250   -7.3732162  
H   -0.0304434   -0.0104840   -8.4547392  
H    3.2985195   -2.7956863   -5.7506359  
H    2.0835082   -1.7709325   -3.8125110  
C    3.2573670   -0.0002920   -1.5109380  
C    2.5379468   -0.0001709   -0.3591961  
C    1.1435043    0.0000332   -0.7338500  
C    1.1092609   -0.0000082   -2.2088477  
N    2.4227562    0.0001909   -2.6182613  
C   -0.0265532   -0.0002522   -2.9515663  
C   -1.3003035   -0.0002639   -2.2514981  
O   -2.3786784   -0.0004131   -2.8306429  
C   -1.2877725    0.0000312   -0.6895608  
O   -2.3539958    0.0003307   -0.0892036  
C    0.0000000    0.0000000    0.0000000  
H    2.9384091   -0.0000369    0.6389239  
H    4.3270394   -0.0004765   -1.6439446  
H    2.7280494   -0.0013406   -3.5742113  
C    0.0000000    0.0000000    1.4700000  
C    1.0662921    0.0000102    2.3034270  
C    0.4961870   -0.0000064    3.6418889  
C   -0.9663858    0.0000850    3.4240247  
N   -1.2632773    0.0000084    2.1528658  
C   -1.8985362    0.0000517    4.5177257  
C   -1.3925775   -0.0004564    5.7720543  
O   -2.1456383   -0.0005410    6.8851312  
C    0.0786232   -0.0009323    6.0245000  
O    0.4683759   -0.0012588    7.1921102  
C    1.0143166   -0.0008442    4.8859032  
H    2.1107198   -0.0000632    2.0421868  
H   -2.9622183    0.0003270    4.3293377  
H   -1.5042274   -0.0009692    7.6184419  
H    2.0724152   -0.0013148    5.1109744  
