60

C    9.6043807    0.0040371   -7.6065583  
C    8.9496407    0.0030055   -6.3966893  
C    7.5516306    0.0027097   -6.6798282  
C    7.4128665    0.0033133   -8.0914480  
N    8.6784273    0.0060637   -8.6233941  
C    6.1685819    0.0029225   -8.7290564  
C    5.0438895    0.0015965   -7.9270309  
O    3.8039126    0.0008105   -8.4975313  
C    5.1618420    0.0013524   -6.5167464  
O    3.9498750    0.0004012   -5.8575965  
C    6.3890371    0.0020110   -5.8870487  
H    9.4215946    0.0036306   -5.4290886  
H    8.8960366   -0.0034804   -9.6034624  
H    6.0560730    0.0035226   -9.8044837  
H    3.1685436    0.0002327   -7.7698144  
H    4.1187756    0.0002694   -4.9104554  
H   10.6586138    0.0049333   -7.8246194  
C    6.4690072    0.0019754   -4.4192254  
C    7.5790601    0.0025228   -3.6450408  
C    7.0826136    0.0021759   -2.2775463  
C    5.6103549    0.0015082   -2.4155215  
N    5.2447501    0.0013071   -3.6686466  
C    4.7390840    0.0009613   -1.2727298  
C    5.3125312    0.0006873   -0.0477836  
O    4.6211392    0.0001822    1.1046130  
C    6.7952868    0.0009743    0.1242526  
O    7.2479824    0.0008233    1.2689304  
C    7.6676528    0.0015789   -1.0635611  
H    8.6077290    0.0030016   -3.9627129  
H    5.3014936    0.0000716    1.8019441  
H    8.7364287    0.0016559   -0.8963857  
C    3.2798077    0.0005856   -1.4499661  
C    2.5571132    0.0005565   -2.5996564  
C    1.1637425    0.0001547   -2.2210366  
C    1.1336959   -0.0000200   -0.7459475  
N    2.4483509   -0.0001429   -0.3402730  
C    0.0000000    0.0000000    0.0000000  
C   -1.2757370   -0.0000187   -0.6964411  
O   -2.3524597   -0.0000640   -0.1142306  
C   -1.2676502   -0.0000874   -2.2584078  
O   -2.3355774   -0.0004102   -2.8557287  
C    0.0181551    0.0001758   -2.9516297  
H    2.9547342    0.0006074   -3.5989118  
H    0.0150776    0.0003317   -4.0331632  
H    2.7563626    0.0012823    0.6148051  
C    2.3971438    2.0127888    3.1728260  
C    1.9431056    1.6308205    1.9564670  
C    0.8496017    0.7127664    2.2356185  
C    0.7794028    0.6545384    3.7115134  
N    1.6840587    1.4146091    4.2663826  
C   -0.1885723   -0.1578550    4.3957118  
C   -1.0476298   -0.8789867    3.6398520  
O   -2.0015663   -1.6796266    4.1448486  
C   -1.0022026   -0.8410666    2.1483229  
O   -1.8147390   -1.5232959    1.5241687  
C    0.0000000    0.0000000    1.4700000  
H    2.3054237    1.9346118    0.9892483  
H   -0.2170646   -0.1815267    5.4753125  
H   -2.4487139   -2.0549881    3.3649027  
H    3.2048689    2.6911772    3.3971983  
