62

C    7.3253776   -3.6306437   -3.1444791  
C    7.0002333   -3.0331759   -4.3402137  
C    7.9409224   -3.4971726   -5.3068631  
C    8.8232337   -4.3831325   -4.6371411  
N    8.4224474   -4.4400058   -3.3253664  
C    9.8801883   -5.0304325   -5.2841633  
C   10.0493551   -4.7790124   -6.6318838  
O   11.0654191   -5.3849525   -7.3126622  
C    9.1796247   -3.8979311   -7.3175083  
O    9.4791130   -3.7512257   -8.6562119  
C    8.1368688   -3.2587974   -6.6797821  
H    8.8539617   -4.9972270   -2.6103281  
H   10.5562402   -5.7067020   -4.7793698  
H   11.0045594   -5.0759689   -8.2259472  
H    8.8450201   -3.1407527   -9.0446088  
H    7.4872027   -2.5891946   -7.2311835  
H    6.8623979   -3.5423817   -2.1765853  
C    5.8883844   -2.0954747   -4.5533061  
C    4.9762274   -1.6321308   -3.6603568  
C    4.1010830   -0.7362690   -4.3789592  
C    4.5815863   -0.7155458   -5.7737629  
N    5.6672527   -1.5597487   -5.8130038  
C    4.0183660    0.0134746   -6.7702647  
C    2.8618710    0.8325284   -6.4474560  
O    2.2840239    1.5248518   -7.2751529  
C    2.3361182    0.8260250   -4.9766239  
O    1.3633188    1.5118827   -4.6928606  
C    3.0267438   -0.0008951   -3.9901699  
H    4.9226755   -1.8885071   -2.6172766  
H    4.3863443    0.0144162   -7.7868770  
H    6.2134523   -1.7579029   -6.6312018  
C    3.3003547    0.0005277   -1.4738986  
C    2.5232816    0.0003497   -2.6090746  
C    1.1623203   -0.0001319   -2.1820102  
C    1.1711884    0.0000584   -0.7636141  
N    2.4852301   -0.0014919   -0.3662359  
C    0.0000000    0.0000000    0.0000000  
C   -1.2020383    0.0000520   -0.6806479  
O   -2.3759248    0.0003493    0.0157745  
C   -1.2314655   -0.0005115   -2.0955511  
O   -2.5054388   -0.0008040   -2.6250184  
C   -0.0764513   -0.0007274   -2.8495195  
H    2.8036266    0.0088183    0.5858662  
H   -3.0835639    0.0000346   -0.6418822  
H   -2.4360043   -0.0011529   -3.5845924  
H   -0.1304091   -0.0013423   -3.9319089  
H    4.3715553    0.0004897   -1.3667133  
C    0.8175213    0.6860729    2.3021913  
C    0.0000000    0.0000000    1.4700000  
C   -0.8887526   -0.7456559    2.3478473  
C   -0.4549825   -0.3816753    3.7138435  
N    0.5448156    0.4573574    3.6934124  
C   -1.0945674   -0.9182058    4.8835240  
C   -2.1210866   -1.7789155    4.6970523  
O   -2.8083856   -2.3554314    5.6976972  
C   -2.5824069   -2.1655116    3.3310774  
O   -3.5227682   -2.9541547    3.2362962  
C   -1.9100805   -1.6015804    2.1470656  
H   -0.7567140   -0.6349833    5.8697035  
H   -3.4728268   -2.9124471    5.2533954  
H   -2.2742832   -1.9066565    1.1752040  
H    1.6189533    1.3585343    2.0405121  
