66

C    3.3003547    0.0005275   -1.4738980  
C    2.5232816    0.0003495   -2.6090742  
C    1.1623206   -0.0001320   -2.1820096  
C    1.1711889    0.0000583   -0.7636136  
N    2.4852300   -0.0014920   -0.3662353  
C    0.0000000    0.0000000    0.0000000  
C   -1.2020382    0.0000519   -0.6806479  
O   -2.3759247    0.0003494    0.0157745  
C   -1.2314650   -0.0005113   -2.0955508  
O   -2.5054383   -0.0008037   -2.6250181  
C   -0.0764510   -0.0007273   -2.8495192  
H    2.8919962   -0.0005621   -3.6205295  
H    2.8036265    0.0088181    0.5858667  
H   -3.0835641    0.0000347   -0.6418820  
H   -2.4360047   -0.0011529   -3.5845921  
C    6.6264032    0.0032391   -4.4617161  
C    5.3881255    0.0032370   -3.8624358  
C    5.6076652    0.0015203   -2.4530389  
C    7.0115532    0.0008108   -2.2504935  
N    7.6002641   -0.0000642   -3.4906694  
C    7.5921595   -0.0005634   -0.9786118  
C    6.7400262   -0.0009265    0.1086077  
O    7.2537882   -0.0019039    1.3731475  
C    5.3365293   -0.0006068   -0.0730883  
O    4.6231719   -0.0014619    1.1077864  
C    4.7630506    0.0004754   -1.3275394  
H    4.4428895    0.0032321   -4.3777240  
H    8.5891806    0.0098628   -3.6636588  
H    8.6613880   -0.0012540   -0.8175187  
H    6.4980460   -0.0022988    1.9749102  
H    3.6846504   -0.0011488    0.8961682  
H    6.8919812    0.0038900   -5.5049934  
C    2.3020063   -2.1258168   -5.9826638  
C    1.8093627   -1.6631476   -4.7844541  
C    0.7354067   -0.7757531   -5.0906395  
C    0.6179779   -0.7364004   -6.5036468  
N    1.5853781   -1.5658600   -7.0142843  
C   -0.3410996    0.0396021   -7.1615059  
C   -1.1974265    0.7893049   -6.3786730  
O   -2.1529109    1.5646259   -6.9693847  
C   -1.0957275    0.7635436   -4.9673575  
O   -2.0198639    1.5644924   -4.3287677  
C   -0.1496409   -0.0015614   -4.3176961  
H    2.1793389   -1.9313021   -3.8096699  
H    1.7380685   -1.7477627   -7.9897731  
H   -0.4356778    0.0740519   -8.2381070  
H   -2.6343326    1.9980532   -6.2526993  
H   -1.8828066    1.4896274   -3.3794447  
H    3.1087987   -2.8098333   -6.1830797  
C    2.5311839    2.1237619    3.0120429  
C    1.9795631    1.6616747    1.8395852  
C    0.9223175    0.7739173    2.1983588  
C    0.8753926    0.7337535    3.6154372  
N    1.8668922    1.5631002    4.0777464  
C   -0.0496243   -0.0427881    4.3197917  
C   -0.9437528   -0.7922060    3.5801400  
O   -1.8685244   -1.5680278    4.2172520  
C   -0.9124520   -0.7656372    2.1655264  
O   -1.8671164   -1.5663939    1.5732860  
C    0.0000000    0.0000000    1.4700000  
H    2.3005065    1.9304404    0.8477417  
H    2.0679347    1.7444845    5.0445261  
H   -0.0904770   -0.0778569    5.3997470  
H   -2.3849669   -2.0011402    3.5251786  
H   -1.7775064   -1.4909735    0.6183591  
H    3.3468514    2.8078103    3.1724291  
