62

C    5.9562622   -0.7162721   -0.9337475  
C    6.5055040    0.0019695   -1.9705360  
C    7.6091188    0.7294215   -1.4343956  
C    7.6854687    0.4123153   -0.0539824  
N    6.6662114   -0.4664014    0.2172893  
C    8.6586650    0.9510383    0.7930461  
C    9.5715990    1.8255775    0.2363509  
O   10.5432045    2.3804166    1.0181118  
C    9.5115247    2.1546033   -1.1387672  
O   10.4901470    3.0395833   -1.5418186  
C    8.5515503    1.6237277   -1.9749173  
H    6.4759655   -0.8755270    1.1141751  
H    8.7221406    0.7134852    1.8460142  
H   11.0653544    2.9519741    0.4402312  
H   10.3785647    3.2087807   -2.4823107  
H    8.5304098    1.8945384   -3.0240564  
H    5.1133878   -1.3859179   -0.9239422  
C    2.4521485    0.0014838   -3.7217479  
C    3.5087829    0.0013023   -2.8687536  
C    4.7039154    0.0022084   -3.6789958  
C    4.2537131    0.0029671   -5.0840252  
N    2.8785576    0.0020813   -5.0411853  
C    5.0840337    0.0043213   -6.1574641  
C    6.5167228    0.0048564   -5.9126426  
O    7.3462800    0.0060004   -6.8127172  
C    7.0158851    0.0038175   -4.4325611  
O    8.2198465    0.0039492   -4.2140686  
C    6.0245775    0.0026616   -3.3596400  
H    3.4569040    0.0004300   -1.7945464  
H    4.7332280    0.0049887   -7.1801302  
H    2.2773150    0.0038584   -5.8446475  
C    0.0000000    0.0000000    0.0000000  
C    1.0662924   -0.0000102   -0.8334267  
C    0.4961874    0.0000064   -2.1718888  
C   -0.9663853   -0.0000849   -1.9540250  
N   -1.2632772   -0.0000084   -0.6828660  
C   -1.8985357   -0.0000515   -3.0477261  
C   -1.3925767    0.0004566   -4.3020548  
O   -2.1456375    0.0005411   -5.4151316  
C    0.0786242    0.0009324   -4.5545000  
O    0.4683770    0.0012590   -5.7221099  
C    1.0143173    0.0008443   -3.4159029  
H    2.1107200    0.0000632   -0.5721862  
H   -2.9622180   -0.0003269   -2.8593382  
H   -1.5042262    0.0009694   -6.1484423  
C    3.3041272   -0.0001177    3.0120429  
C    2.5845372    0.0004780    1.8395852  
C    1.2040006    0.0000008    2.1983588  
C    1.1422373   -0.0006037    3.6154372  
N    2.4348639   -0.0026109    4.0777464  
C   -0.0655181   -0.0008797    4.3197917  
C   -1.2321768   -0.0002324    3.5801400  
O   -2.4392816   -0.0001146    4.2172520  
C   -1.1911209    0.0000007    2.1655264  
O   -2.4371527    0.0002320    1.5732860  
C    0.0000000    0.0000000    1.4700000  
H    3.0031534    0.0000661    0.8477417  
H    2.7054629    0.0071099    5.0445261  
H   -0.1193549   -0.0014844    5.3997470  
H   -3.1132988    0.0000648    3.5251786  
H   -2.3200282    0.0004071    0.6183591  
H    4.3686625   -0.0004071    3.1724291  
