64

C   -8.6090745    2.6060396   -2.3717015  
C   -9.8339627    2.0427378   -2.0981931  
C   -9.7325348    0.6543625   -2.4092014  
C   -8.4110912    0.4269174   -2.8717832  
N   -7.7563788    1.6330849   -2.8381956  
C   -7.9552310   -0.8338328   -3.2686317  
C   -8.8495631   -1.8841686   -3.1969178  
O   -8.4566879   -3.1364185   -3.5717980  
C  -10.1723340   -1.6771357   -2.7384093  
O  -10.9417614   -2.8221935   -2.7254933  
C  -10.6228179   -0.4335957   -2.3470030  
H  -10.6950242    2.5681115   -1.7219617  
H   -6.7984587    1.7809440   -3.0999353  
H   -9.2223185   -3.7119322   -3.4458671  
H  -11.8194202   -2.5952607   -2.4032818  
H  -11.6416139   -0.3056229   -2.0003690  
H   -8.2766297    3.6251348   -2.2722854  
C   -3.9753655    0.7163349   -1.9467742  
C   -5.3225256    0.4642270   -2.0653821  
C   -5.4809831   -0.4521470   -3.1469321  
C   -4.1848197   -0.7258018   -3.6538837  
N   -3.2941076    0.0012878   -2.9038237  
C   -3.9601867   -1.5925640   -4.7276861  
C   -5.0641065   -2.1942653   -5.2999569  
O   -4.9017598   -3.0497377   -6.3510633  
C   -6.3653915   -1.9335917   -4.8085065  
O   -7.3605151   -2.6087758   -5.4846713  
C   -6.5877664   -1.0784128   -3.7493817  
H   -6.0959844    0.8894460   -1.4489867  
H   -2.9748056   -1.8052071   -5.1188504  
H   -5.7858325   -3.3531621   -6.5952224  
H   -8.2070636   -2.3773170   -5.0904813  
H   -3.4466826    1.3507419   -1.2561358  
C    0.0000000    0.0000000    0.0000000  
C    1.0541688   -0.0001723   -0.8560392  
C    0.5103136   -0.0000455   -2.1935956  
C   -0.9576373    0.0002461   -2.0455730  
N   -1.2018460   -0.0001389   -0.6915968  
C   -1.8348314    0.0008319   -3.0810607  
C   -1.2972851    0.0009739   -4.4314603  
O   -2.0050676    0.0014268   -5.4301316  
C    0.2542619    0.0004184   -4.6117572  
O    0.7184666    0.0002257   -5.7439122  
C    1.0974551    0.0000873   -3.4189129  
H    2.0940752   -0.0005484   -0.5817983  
H    2.1707276   -0.0000912   -3.5523673  
H   -2.1128194    0.0014915   -0.2706789  
C    1.1243417   -0.0099156    2.2619005  
C    0.7474090   -0.0234034    3.5848544  
C   -0.6787367   -0.0234952    3.6114698  
C   -1.1201739   -0.0099357    2.2635546  
N    0.0000000    0.0000000    1.4700000  
C   -2.4730812   -0.0065396    1.9108239  
C   -3.3971947   -0.0173298    2.9375057  
O   -4.7313508   -0.0149487    2.6493466  
C   -2.9763630   -0.0305536    4.2886322  
O   -4.0166453   -0.0397858    5.1947621  
C   -1.6418541   -0.0336380    4.6373480  
H    1.4178735   -0.0310004    4.4271209  
H   -2.8160170    0.0039190    0.8854031  
H   -5.1938803   -0.0234410    3.4974381  
H   -3.6464643   -0.0484781    6.0827341  
H   -1.3497443   -0.0436789    5.6809233  
H    2.1062470   -0.0051382    1.8205408  
