62

C    7.9237457    0.7120592   -4.4775571  
C    8.4919811    0.4630718   -5.7053931  
C    9.5703266   -0.4451131   -5.4886641  
C    9.6120434   -0.7172201   -4.0972103  
N    8.5999691    0.0028852   -3.5125993  
C   10.5534197   -1.5764908   -3.5225336  
C   11.4691788   -2.1721545   -4.3679627  
O   12.4101307   -3.0201970   -3.8595876  
C   11.4438775   -1.9129061   -5.7589941  
O   12.4212530   -2.5814734   -6.4668770  
C   10.5156407   -1.0651156   -6.3265798  
H    8.1696875    0.8850679   -6.6418972  
H   10.5905952   -1.7879151   -2.4627601  
H   12.9406177   -3.3203545   -4.6090902  
H   12.3342288   -2.3514872   -7.3970042  
H   10.5209698   -0.8857146   -7.3953475  
H    7.0904918    1.3405226   -4.2135876  
C    4.7630507    0.0004755   -1.3275395  
C    5.7197932    0.0015998   -2.2912395  
C    6.9965553    0.0009184   -1.6169154  
C    6.7031140   -0.0007359   -0.1709969  
N    5.3315510   -0.0005304   -0.0628078  
C    7.6461204   -0.0021761    0.8049345  
C    9.0433296   -0.0018652    0.4045099  
O    9.9665705   -0.0030133    1.2082063  
C    9.3772084    0.0001299   -1.1213755  
O   10.5499563    0.0007152   -1.4705517  
C    8.2742424    0.0012894   -2.0791419  
H    5.5504518    0.0029550   -3.3532823  
H    7.4095540   -0.0035071    1.8598967  
H    4.8220252   -0.0029948    0.8017292  
C    3.3003548    0.0005276   -1.4738982  
C    2.5232817    0.0003497   -2.6090743  
C    1.1623204   -0.0001319   -2.1820101  
C    1.1711886    0.0000583   -0.7636140  
N    2.4852302   -0.0014919   -0.3662356  
C    0.0000000    0.0000000    0.0000000  
C   -1.2020379    0.0000520   -0.6806479  
O   -2.3759249    0.0003495    0.0157742  
C   -1.2314652   -0.0005112   -2.0955511  
O   -2.5054384   -0.0008036   -2.6250184  
C   -0.0764510   -0.0007271   -2.8495195  
H    2.8919962   -0.0005619   -3.6205297  
H    2.8036267    0.0088181    0.5858667  
H   -3.0835636    0.0000348   -0.6418823  
H   -2.4360038   -0.0011526   -3.5845925  
H   -0.1304090   -0.0013420   -3.9319089  
C    0.8175213    0.6860729    2.3021913  
C    0.0000000    0.0000000    1.4700000  
C   -0.8887526   -0.7456559    2.3478473  
C   -0.4549825   -0.3816753    3.7138435  
N    0.5448156    0.4573574    3.6934124  
C   -1.0945674   -0.9182058    4.8835240  
C   -2.1210866   -1.7789155    4.6970523  
O   -2.8083856   -2.3554314    5.6976972  
C   -2.5824069   -2.1655116    3.3310774  
O   -3.5227682   -2.9541547    3.2362962  
C   -1.9100805   -1.6015804    2.1470656  
H   -0.7567140   -0.6349833    5.8697035  
H   -3.4728268   -2.9124471    5.2533954  
H   -2.2742832   -1.9066565    1.1752040  
H    1.6189533    1.3585343    2.0405121  
