60

C    4.6509244   -0.5311918   -7.4997861  
C    4.0593867    0.6998853   -7.3354705  
C    4.7821888    1.6211695   -8.1499590  
C    5.8122438    0.8885075   -8.7934809  
N    5.7052244   -0.4146194   -8.3751212  
C    6.7224716    1.4787405   -9.6754651  
C    6.5902731    2.8332071   -9.9123657  
O    7.4521703    3.4599836  -10.7651818  
C    5.5692082    3.5813694   -9.2795183  
O    5.5690596    4.9188380   -9.6179266  
C    4.6710628    2.9998010   -8.4090936  
H    6.2959121   -1.1700036   -8.6725489  
H    7.5098551    0.9258934  -10.1690150  
H    7.1874440    4.3888023  -10.7870941  
H    4.8495323    5.3513802   -9.1480417  
H    3.8995777    3.5985045   -7.9391535  
H    4.4050909   -1.4829087   -7.0607418  
C    2.9127954   -0.7214785   -3.3153353  
C    3.5543791   -0.5031931   -4.4921092  
C    2.7457297    0.4250570   -5.2466115  
C    1.5720416    0.7318908   -4.4069097  
N    1.7334695    0.0049281   -3.2500363  
C    0.5691413    1.5730687   -4.7651217  
C    0.6510588    2.2191799   -6.0644929  
O   -0.2019679    2.9933399   -6.4784044  
C    1.8850621    1.9086324   -6.9703641  
O    1.9647747    2.4464583   -8.0665616  
C    2.9022249    0.9847028   -6.4747981  
H    4.4875230   -0.9424619   -4.7969015  
H   -0.2829847    1.7845541   -4.1341978  
H    3.2021876   -1.3520602   -2.4904058  
C    1.1319246    0.0015678   -0.8009268  
C    0.7969914    0.0034958   -2.1169401  
C   -0.6453340    0.0035696   -2.1842669  
C   -1.1266832    0.0015410   -0.7896025  
N    0.0000000    0.0000000    0.0000000  
C   -2.4346129    0.0013913   -0.4276292  
C   -3.4350111    0.0031335   -1.4820181  
O   -4.6384614    0.0030875   -1.2583914  
C   -2.9478961    0.0050442   -2.9661074  
O   -3.7809382    0.0062135   -3.8623773  
C   -1.5113825    0.0053055   -3.2312122  
H   -2.7664565    0.0000174    0.6013448  
H   -1.1823533    0.0068381   -4.2614848  
H    2.1104316    0.0009435   -0.3488059  
C    0.8400945    0.7047457    2.2710304  
C    0.0000000    0.0000000    1.4700000  
C   -0.8844236   -0.7423113    2.3369512  
C   -0.4878984   -0.4098547    3.7186280  
N    0.5629682    0.4714286    3.6095011  
C   -1.0836927   -0.9095027    4.8308716  
C   -2.1891196   -1.8367527    4.6554461  
O   -2.7906899   -2.3413415    5.5944904  
C   -2.6257283   -2.2031529    3.2011665  
O   -3.5549479   -2.9829990    3.0410059  
C   -1.9068976   -1.5999348    2.0816745  
H   -0.7774656   -0.6525820    5.8354244  
H   -2.2155208   -1.8586617    1.0779135  
H    1.6384792    1.3747609    1.9961646  
H    1.0518368    0.8833920    4.3830260  
