60

C    9.0957056   -0.0045213   -0.0376073  
C    9.8729961   -0.0067310    1.0974177  
C   11.2338714   -0.0094820    0.6700887  
C   11.2247301   -0.0085185   -0.7483052  
N    9.9106114   -0.0074455   -1.1454292  
C   12.3957693   -0.0103184   -1.5121462  
C   13.5979365   -0.0128354   -0.8317316  
O   14.7716871   -0.0143202   -1.5283816  
C   13.6276358   -0.0142077    0.5831653  
O   14.9017094   -0.0171204    1.1123846  
C   12.4727689   -0.0127067    1.3373577  
H    9.5044766   -0.0075059    2.1089441  
H    9.5920512    0.0039570   -2.0974640  
H   12.3955596   -0.0097413   -2.5934426  
H   15.4794516   -0.0162844   -0.8708631  
H   14.8324597   -0.0178541    2.0719720  
H   12.5269354   -0.0139982    2.4197357  
C    6.7235404   -0.0015093    0.8630518  
C    5.4473217   -0.0011276    0.3990038  
C    5.5236520   -0.0015784   -1.0428731  
C    6.9592462   -0.0022881   -1.3832516  
N    7.6329838   -0.0018113   -0.1836820  
C    7.4493969   -0.0032604   -2.6487383  
C    6.4996351   -0.0034064   -3.7489599  
O    6.8417413   -0.0041910   -4.9242315  
C    4.9744858   -0.0024119   -3.4117300  
O    4.1654306   -0.0022186   -4.3297118  
C    4.5679461   -0.0016854   -2.0086701  
H    4.5543632   -0.0004090    0.9983693  
H    8.5062545   -0.0038988   -2.8766899  
H    7.0761896   -0.0013784    1.8816430  
C    3.1301149   -0.0010311   -1.7028252  
C    2.5367768   -0.0002767   -0.4864665  
C    1.1089904    0.0001028   -0.7656183  
C    1.0177872   -0.0004148   -2.2415132  
N    2.1993578   -0.0011611   -2.7963820  
C   -0.2459209   -0.0002877   -2.9257118  
C   -1.3675319   -0.0000605   -2.1698524  
O   -2.6129313    0.0000867   -2.6748490  
C   -1.3083584    0.0000910   -0.6783232  
O   -2.3693261    0.0004206   -0.0541692  
C    0.0000000    0.0000000    0.0000000  
H    3.0096017   -0.0001007    0.4807525  
H   -0.2829630   -0.0004687   -4.0053125  
H   -3.1967441    0.0002094   -1.8949034  
C    2.3971438    2.0127888    3.1728260  
C    1.9431056    1.6308205    1.9564670  
C    0.8496017    0.7127664    2.2356185  
C    0.7794028    0.6545384    3.7115134  
N    1.6840587    1.4146091    4.2663826  
C   -0.1885723   -0.1578550    4.3957118  
C   -1.0476298   -0.8789867    3.6398520  
O   -2.0015663   -1.6796266    4.1448486  
C   -1.0022026   -0.8410666    2.1483229  
O   -1.8147390   -1.5232959    1.5241687  
C    0.0000000    0.0000000    1.4700000  
H    2.3054237    1.9346118    0.9892483  
H   -0.2170646   -0.1815267    5.4753125  
H   -2.4487139   -2.0549881    3.3649027  
H    3.2048689    2.6911772    3.3971983  
