60

C    7.1003450    0.0002878   -6.1188200  
C    7.6402609    0.0002062   -4.8535308  
C    9.0584803   -0.0001511   -5.0060220  
C    9.3273384    0.0000123   -6.3987315  
N    8.1164617   -0.0016730   -7.0455632  
C   10.6253111    0.0000535   -6.9184021  
C   11.6709194    0.0002348   -6.0156945  
O   12.9583894    0.0006335   -6.4689440  
C   11.4229061   -0.0002995   -4.6223871  
O   12.5686423   -0.0004585   -3.8538613  
C   10.1426832   -0.0006138   -4.1090115  
H    7.0807507   -0.0007226   -3.9337807  
H    7.9905297    0.0085887   -8.0415636  
H   10.8369027    0.0000337   -7.9787943  
H   13.5236560    0.0003996   -5.6855292  
H   12.3127784   -0.0007966   -2.9264254  
H    9.9837929   -0.0012035   -3.0369893  
C    3.2973507   -0.0000930   -3.8752373  
C    4.6090968    0.0000006   -4.2265165  
C    4.6584754   -0.0001364   -5.6695681  
C    3.2579291   -0.0002895   -6.1335296  
N    2.4824026   -0.0006539   -4.9971104  
C    2.8797130   -0.0000494   -7.4368552  
C    3.9215758    0.0001630   -8.4502927  
O    3.6829953    0.0003254   -9.6508675  
C    5.4116114    0.0000758   -7.9816782  
O    6.2974493   -0.0000536   -8.8258056  
C    5.6945670    0.0000911   -6.5485738  
H    5.4465356   -0.0000337   -3.5517502  
H    1.8466888   -0.0000377   -7.7558720  
H    1.4789639    0.0007241   -4.9846265  
C    3.3321175    0.0004715   -1.3379331  
C    2.6974186    0.0000117   -2.5332308  
C    1.2800441   -0.0002117   -2.2052838  
C    1.2395036    0.0000644   -0.7271292  
N    2.4394065    0.0005460   -0.2131033  
C    0.0000000    0.0000000    0.0000000  
C   -1.1468701    0.0000635   -0.7169542  
O   -2.3742199    0.0000073   -0.1695491  
C   -1.1388766    0.0001607   -2.2096354  
O   -2.2206227    0.0000905   -2.7970412  
C    0.1454526    0.0001817   -2.9324239  
H   -2.9844344    0.0001026   -0.9290168  
H    0.1083579    0.0003683   -4.0135594  
H    4.3940038    0.0007619   -1.1498630  
C    2.5528530    2.1414826    2.8079335  
C    2.0663498    1.7338582    4.0032312  
C    0.9804344    0.8229586    3.6752840  
C    0.9495562    0.7966882    2.1971295  
N    1.8690446    1.5676019    1.6831036  
C    0.0000000    0.0000000    1.4700000  
C   -0.8785127   -0.7372425    2.1869543  
O   -1.8187535   -1.5261249    1.6395491  
C   -0.8723269   -0.7321790    3.6796354  
O   -1.7010379   -1.4274584    4.2670412  
C    0.1115397    0.0933559    4.4024240  
H    2.4028853    2.0163452    4.9860947  
H   -2.2861435   -1.9184361    2.3990168  
H    0.0832434    0.0693689    5.4835595  
H    3.3664920    2.8238276    2.6198634  
