62

C    5.6607617   -0.0163855   -2.2932973  
C    6.9286108   -0.0269757   -1.7595243  
C    6.7830848   -0.0173779   -0.3406057  
C    5.3917871   -0.0011660   -0.0650081  
N    4.7390844    0.0009612   -1.2727295  
C    4.8785140    0.0113254    1.2354476  
C    5.7862817    0.0070720    2.2766576  
O    5.3393696    0.0184375    3.5662901  
C    7.1782829   -0.0086635    2.0218985  
O    7.9523725   -0.0106009    3.1638819  
C    7.6853528   -0.0207192    0.7392214  
H    7.8455658   -0.0389094   -2.3234797  
H    3.8192327    0.0238500    1.4521686  
H    6.1255035    0.0133026    4.1277465  
H    8.8784936   -0.0215793    2.9035307  
H    8.7565286   -0.0324764    0.5751402  
H    5.3410111   -0.0183875   -3.3212632  
C    3.2798077    0.0005856   -1.4499659  
C    2.5571132    0.0005565   -2.5996562  
C    1.1637425    0.0001548   -2.2210364  
C    1.1336957   -0.0000200   -0.7459472  
N    2.4483508   -0.0001429   -0.3402728  
C    0.0000000    0.0000000    0.0000000  
C   -1.2757370   -0.0000187   -0.6964410  
O   -2.3524597   -0.0000640   -0.1142306  
C   -1.2676501   -0.0000873   -2.2584079  
O   -2.3355772   -0.0004101   -2.8557287  
C    0.0181552    0.0001759   -2.9516296  
H    2.9547343    0.0006074   -3.5989115  
H    2.7563624    0.0012823    0.6148054  
C    2.5409761   -2.1228910   -5.9711693  
C    1.9926464   -1.6610296   -4.7970800  
C    0.9342931   -0.7733295   -5.1527157  
C    0.8833320   -0.7329662   -6.5696491  
N    1.8735971   -1.5621440   -7.0348972  
C   -0.0437651    0.0435817   -7.2712562  
C   -0.9358622    0.7928008   -6.5289551  
O   -1.8625226    1.5686193   -7.1633207  
C   -0.9005335    0.7660313   -5.1144400  
O   -1.8535912    1.5666043   -4.5193699  
C    0.0139724    0.0003878   -4.4216237  
H    2.3164383   -1.9299052   -3.8061929  
H    2.0719065   -1.7433682   -8.0022712  
H   -0.0876942    0.0788020   -8.3510856  
H   -2.3770381    2.0015785   -6.4697185  
H   -1.7612565    1.4910554   -3.5647129  
H    3.3562540   -2.8068323   -6.1339745  
C    0.8175213    0.6860729    2.3021913  
C    0.0000000    0.0000000    1.4700000  
C   -0.8887526   -0.7456559    2.3478473  
C   -0.4549825   -0.3816753    3.7138435  
N    0.5448156    0.4573574    3.6934124  
C   -1.0945674   -0.9182058    4.8835240  
C   -2.1210866   -1.7789155    4.6970523  
O   -2.8083856   -2.3554314    5.6976972  
C   -2.5824069   -2.1655116    3.3310774  
O   -3.5227682   -2.9541547    3.2362962  
C   -1.9100805   -1.6015804    2.1470656  
H   -0.7567140   -0.6349833    5.8697035  
H   -3.4728268   -2.9124471    5.2533954  
H   -2.2742832   -1.9066565    1.1752040  
H    1.6189533    1.3585343    2.0405121  
