64

C    9.8335046   -0.7056174   -2.2101054  
C   11.1858098   -0.4540777   -2.1885561  
C   11.4572299    0.4550542   -3.2536433  
C   10.2214796    0.7250816   -3.8954626  
N    9.2566788    0.0028818   -3.2380401  
C   10.1110803    1.5845892   -4.9926630  
C   11.2692147    2.1826320   -5.4500963  
O   11.2183735    3.0310121   -6.5181219  
C   12.5116913    1.9254821   -4.8232420  
O   13.5725552    2.5962914   -5.3958886  
C   12.6213878    1.0774594   -3.7409531  
H   11.8901845   -0.8750226   -1.4916662  
H    9.1722327    1.7944353   -5.4863556  
H   12.1233269    3.3329456   -6.6703053  
H   14.3730082    2.3676252   -4.9136108  
H   13.5867377    0.8997002   -3.2816263  
H    9.2350159   -1.3354727   -1.5744539  
C    5.6484569   -0.0000681   -0.6807740  
C    4.7161325   -0.0005435   -1.6923264  
C    5.4371286    0.0004103   -2.9230838  
C    6.8175140    0.0011681   -2.5968004  
N    6.9105280    0.0028045   -1.2271423  
C    7.8240135    0.0018979   -3.5672367  
C    7.4298415    0.0015550   -4.8911724  
O    8.3714604    0.0018843   -5.8792857  
C    6.0574640    0.0011754   -5.2367107  
O    5.8267420    0.0012878   -6.5968985  
C    5.0639868    0.0007285   -4.2798774  
H    7.7671525   -0.0069120   -0.7036150  
H    7.8889775    0.0018556   -6.7162295  
H    4.8759896    0.0009848   -6.7441179  
H    4.0211713    0.0006264   -4.5748589  
H    5.5130316   -0.0001048    0.3872235  
C    3.2573665   -0.0002920   -1.5109385  
C    2.5379463   -0.0001709   -0.3591964  
C    1.1435038    0.0000331   -0.7338500  
C    1.1092599   -0.0000083   -2.2088477  
N    2.4227553    0.0001909   -2.6182613  
C   -0.0265539   -0.0002524   -2.9515660  
C   -1.3003040   -0.0002640   -2.2514977  
O   -2.3786790   -0.0004133   -2.8306421  
C   -1.2877727    0.0000311   -0.6895603  
O   -2.3539959    0.0003306   -0.0892030  
C    0.0000000    0.0000000    0.0000000  
H    2.9384091   -0.0000367    0.6389234  
H   -0.0296303   -0.0004086   -4.0327229  
H    2.7280482   -0.0013407   -3.5742119  
C    2.5285572    2.1210227    2.9438989  
C    1.9331703    1.6216660    4.0790748  
C    0.8903039    0.7472258    3.6520102  
C    0.8972198    0.7527806    2.2336141  
N    1.9028376    1.5986179    1.8362361  
C    0.0000000    0.0000000    1.4700000  
C   -0.9207814   -0.7726952    2.1506477  
O   -1.8198395   -1.5274828    1.4542253  
C   -0.9436862   -0.7911793    3.5655508  
O   -1.9197945   -1.6098497    4.0950179  
C   -0.0590329   -0.0485852    4.3195194  
H    2.2150357    1.8593692    5.0905303  
H    2.1533708    1.7953814    0.8841339  
H   -2.3621246   -1.9821033    2.1118817  
H   -1.8668290   -1.5649508    5.0545920  
H   -0.1007624   -0.0827977    5.4019087  
H    3.3491200    2.8096064    2.8367138  
