62

C   -1.0229445    2.1244702   -5.8263647  
C    0.2514045    1.6624424   -6.0609515  
C    0.1740667    0.7751128   -7.1750723  
C   -1.1842004    0.7351371   -7.5818143  
N   -1.8840377    1.5641790   -6.7406637  
C   -1.6294101   -0.0409831   -8.6561576  
C   -0.6862266   -0.7901649   -9.3324034  
O   -1.0664794   -1.5655734  -10.3893639  
C    0.6736410   -0.7637784   -8.9414036  
O    1.4897217   -1.5642590   -9.7137936  
C    1.1135182    0.0014431   -7.8814647  
H    1.1286253    1.9309716   -5.4975967  
H   -2.8701176    1.7456065   -6.7927254  
H   -2.6632465   -0.0759069   -8.9710611  
H   -0.2656033   -1.9985817  -10.7124207  
H    2.3902312   -1.4889868   -9.3836114  
H   -1.3860066    2.8082412   -5.0782992  
C    3.1006060    0.0006268   -3.9654947  
C    4.3965753    0.0006902   -4.3711275  
C    4.3857806    0.0007800   -5.8149835  
C    2.9671179    0.0007929   -6.2201831  
N    2.2396185    0.0002984   -5.0524357  
C    2.5349220    0.0012657   -7.5066161  
C    3.5336516    0.0015713   -8.5625873  
O    3.2452516    0.0019407   -9.7521782  
C    5.0419196    0.0013115   -8.1564677  
O    5.8918142    0.0012585   -9.0367738  
C    5.3843453    0.0010797   -6.7363984  
H    5.2614039    0.0004935   -3.7318427  
H    6.4309093    0.0011061   -6.4635840  
H    1.2375715    0.0017402   -4.9981499  
C    3.2798085    0.0005859   -1.4499648  
C    2.5571146    0.0005569   -2.5996553  
C    1.1637437    0.0001551   -2.2210359  
C    1.1336966   -0.0000198   -0.7459471  
N    2.4483513   -0.0001427   -0.3402720  
C    0.0000000    0.0000000    0.0000000  
C   -1.2757366   -0.0000185   -0.6964416  
O   -2.3524595   -0.0000640   -0.1142313  
C   -1.2676493   -0.0000870   -2.2584084  
O   -2.3355759   -0.0004098   -2.8557296  
C    0.0181563    0.0001763   -2.9516295  
H    0.0150795    0.0003323   -4.0331630  
H    4.3498549    0.0008614   -1.3200020  
H    2.7563627    0.0012824    0.6148062  
C    2.5285572    2.1210227    2.9438989  
C    1.9331703    1.6216660    4.0790748  
C    0.8903039    0.7472258    3.6520102  
C    0.8972198    0.7527806    2.2336141  
N    1.9028376    1.5986179    1.8362361  
C    0.0000000    0.0000000    1.4700000  
C   -0.9207814   -0.7726952    2.1506477  
O   -1.8198395   -1.5274828    1.4542253  
C   -0.9436862   -0.7911793    3.5655508  
O   -1.9197945   -1.6098497    4.0950179  
C   -0.0590329   -0.0485852    4.3195194  
H    2.2150357    1.8593692    5.0905303  
H    2.1533708    1.7953814    0.8841339  
H   -2.3621246   -1.9821033    2.1118817  
H   -1.8668290   -1.5649508    5.0545920  
H   -0.1007624   -0.0827977    5.4019087  
H    3.3491200    2.8096064    2.8367138  
