64

C    6.0508263   -2.3794250   -2.5451158  
C    5.9055105   -1.0762170   -2.9610482  
C    7.1723950   -0.4422877   -2.7945069  
C    8.0594453   -1.4165229   -2.2692123  
N    7.3457950   -2.5807476   -2.1281352  
C    9.3992849   -1.1414502   -1.9794673  
C    9.8519768    0.1403776   -2.2247529  
O   11.1515609    0.4630526   -1.9602179  
C    8.9821082    1.1263062   -2.7482881  
O    9.5826973    2.3539427   -2.9368246  
C    7.6601345    0.8557201   -3.0341109  
H    7.7147223   -3.4498618   -1.7867925  
H   10.0804374   -1.8795112   -1.5788418  
H   11.2561024    1.3931489   -2.1995011  
H    8.9272180    2.9618054   -3.2924286  
H    7.0177046    1.6313765   -3.4342584  
H    5.3328333   -3.1808729   -2.5115577  
C    3.4043357   -0.7242383   -2.9869836  
C    2.4861704   -0.0045255   -3.7159919  
C    3.2157603    0.7227063   -4.7026190  
C    4.5865270    0.4039557   -4.5256372  
N    4.6659996   -0.4754869   -3.4745037  
C    5.5977274    0.9420301   -5.3273466  
C    5.2182039    1.8176003   -6.3261043  
O    6.1649633    2.3718693   -7.1381670  
C    3.8556303    2.1482703   -6.5181130  
O    3.6391784    3.0341204   -7.5533722  
C    2.8575497    1.6180349   -5.7274092  
H    6.6442991    0.7032250   -5.1974924  
H    5.6928641    2.9443313   -7.7567739  
H    2.6943221    3.2044147   -7.6154188  
H    1.8225156    1.8901098   -5.8981670  
H    3.2592090   -1.3942245   -2.1569137  
C    0.0000000    0.0000000    0.0000000  
C    1.0521669   -0.0011848   -0.8862341  
C    0.4917221   -0.0011931   -2.1979130  
C   -0.9187427    0.0003100   -2.0478683  
N   -1.1833170   -0.0009472   -0.7007915  
C   -1.7951698    0.0010259   -3.1372090  
C   -1.2375835    0.0005161   -4.4010425  
O   -2.0474208    0.0015256   -5.4997580  
C    0.1673584   -0.0013557   -4.5711962  
O    0.5673529   -0.0020659   -5.8915551  
C    1.0325773   -0.0023359   -3.4969890  
H    2.0953059   -0.0030542   -0.6200560  
H   -2.0989777    0.0102265   -0.2891825  
H   -2.8710930    0.0020274   -3.0295514  
H   -1.4634881    0.0006427   -6.2693593  
H    1.5290715   -0.0033076   -5.9180042  
C    3.3321173   -0.0004715    2.8079335  
C    2.6974184   -0.0000116    4.0032312  
C    1.2800439    0.0002118    3.6752840  
C    1.2395035   -0.0000644    2.1971295  
N    2.4394063   -0.0005460    1.6831036  
C    0.0000000    0.0000000    1.4700000  
C   -1.1468701   -0.0000635    2.1869543  
O   -2.3742202   -0.0000073    1.6395491  
C   -1.1388768   -0.0001607    3.6796354  
O   -2.2206231   -0.0000905    4.2670412  
C    0.1454524   -0.0001816    4.4024240  
H    3.1367986    0.0000651    4.9860947  
H   -2.9844344   -0.0001026    2.3990168  
H    0.1083576   -0.0003682    5.4835595  
H    4.3940039   -0.0007619    2.6198634  
