64

C    5.6484568    0.0004439   -0.6807742  
C    4.7161324   -0.0005436   -1.6923263  
C    5.4371285   -0.0001080   -2.9230842  
C    6.8175142    0.0008760   -2.5968006  
N    6.9105273    0.0031395   -1.2271436  
C    7.8240137    0.0012220   -3.5672374  
C    7.4298413    0.0002555   -4.8911726  
O    8.3714604    0.0001894   -5.8792857  
C    6.0574641   -0.0003586   -5.2367109  
O    5.8267423   -0.0008767   -6.5968982  
C    5.0639869   -0.0004269   -4.2798782  
H    7.7671531   -0.0062908   -0.7036119  
H    8.8778481    0.0021150   -3.3250882  
H    7.8889788   -0.0002466   -6.7162298  
H    4.8759898   -0.0013000   -6.7441177  
H    4.0211717   -0.0007220   -4.5748589  
H    5.5130312    0.0008845    0.3872233  
C    3.2573666   -0.0002920   -1.5109384  
C    2.5379463   -0.0001710   -0.3591964  
C    1.1435039    0.0000331   -0.7338498  
C    1.1092600   -0.0000083   -2.2088476  
N    2.4227554    0.0001909   -2.6182613  
C   -0.0265538   -0.0002524   -2.9515660  
C   -1.3003040   -0.0002640   -2.2514976  
O   -2.3786789   -0.0004133   -2.8306420  
C   -1.2877727    0.0000311   -0.6895603  
O   -2.3539960    0.0003306   -0.0892032  
C    0.0000000    0.0000000    0.0000000  
H    2.9384090   -0.0000368    0.6389236  
H    2.7280484   -0.0013407   -3.5742118  
C    2.4938350   -2.1214409   -5.9023425  
C    1.8951689   -1.6223091   -7.0358914  
C    0.8534318   -0.7479144   -6.6059868  
C    0.8643842   -0.7532636   -5.1876154  
N    1.8712158   -1.5989402   -4.7929786  
C   -0.0307367   -0.0004647   -4.4215603  
C   -0.9535307    0.7720376   -5.0996962  
O   -1.8506812    1.5268336   -4.4008275  
C   -0.9804634    0.7903150   -6.5145312  
O   -1.9581587    1.6088088   -7.0413366  
C   -0.0978825    0.0477028   -7.2709070  
H    2.1741795   -1.8601295   -8.0481106  
H    2.1244775   -1.7955405   -3.8415648  
H   -2.3948824    1.9813035   -5.0570035  
H   -1.9079192    1.5637768   -8.0010512  
H   -0.1426953    0.0817547   -8.3531782  
H    3.3147702   -2.8099248   -5.7973932  
C    0.8576279    0.7185626    2.2703808  
C    0.0000000    0.0000000    1.4700000  
C   -0.8668858   -0.7285659    2.3373528  
C   -0.4876752   -0.4117774    3.6669281  
N    0.5635254    0.4678311    3.5902241  
C   -1.1297612   -0.9515493    4.7854808  
C   -2.1738724   -1.8268314    4.5576857  
O   -2.8357962   -2.3827064    5.6140350  
C   -2.5667212   -2.1555554    3.2384331  
O   -3.6226318   -3.0413663    3.1773122  
C   -1.9335634   -1.6236449    2.1344818  
H    1.0363952    0.8769718    4.3757045  
H   -0.8454472   -0.7142436    5.8013813  
H   -3.5178062   -2.9546422    5.2385129  
H   -3.8247440   -3.2102924    2.2519915  
H   -2.2566033   -1.8942483    1.1360343  
H    1.6567807    1.3889844    2.0042067  
