64

C   -0.1918093   -0.6567193   -5.1170602  
C   -0.1066354   -0.3930688   -6.4645397  
C   -1.1576407    0.5190708   -6.7775728  
C   -1.8568371    0.7783666   -5.5710006  
N   -1.2456334    0.0471639   -4.5828767  
C   -2.9578877    1.6374766   -5.5046090  
C   -3.3602483    2.2461477   -6.6775553  
O   -4.4293569    3.0946485   -6.6693814  
C   -2.6756822    1.9997977   -7.8914322  
O   -3.1976931    2.6804256   -8.9719849  
C   -1.5895575    1.1521743   -7.9577217  
H    0.6225531   -0.8080758   -7.1391113  
H   -3.4951651    1.8391732   -4.5881742  
H   -4.5387591    3.4047763   -7.5777414  
H   -2.6783306    2.4586747   -9.7508904  
H    0.4148926   -1.2922824   -4.4950222  
C    1.1243406    0.0100009   -0.7919006  
C    0.7474076    0.0234600   -2.1148541  
C   -0.6787382    0.0234440   -2.1414701  
C   -1.1201747    0.0098511   -0.7935543  
N    0.0000000    0.0000000    0.0000000  
C   -2.4730817    0.0063527   -0.4408239  
C   -3.3971961    0.0170733   -1.4675058  
O   -4.7313519    0.0145913   -1.1793472  
C   -2.9763651    0.0303289   -2.8186326  
O   -4.0166478    0.0394824   -3.7247625  
C   -1.6418566    0.0335141   -3.1673479  
H    1.4178714    0.0311078   -2.9571209  
H   -2.8160166   -0.0041319    0.5845963  
H   -5.1938823    0.0230486   -2.0274382  
H   -3.6464679    0.0482029   -4.6127345  
H    2.1062468    0.0052974   -0.3505403  
C   -0.4235098   -0.2869365   -9.6827667  
C   -0.9056486    0.9224596   -9.2385029  
C   -0.6116959    1.8846731  -10.2496094  
C    0.0559859    1.1981732  -11.2959580  
N    0.1555374   -0.1180260  -10.9186966  
C    0.4953075    1.8365691  -12.4596747  
C    0.2559829    3.1926289  -12.5692356  
O    0.6635090    3.8654287  -13.6847077  
C   -0.4083307    3.8951499  -11.5358095  
O   -0.5712285    5.2405761  -11.7939516  
C   -0.8417684    3.2660529  -10.3873788  
H    0.5735846   -0.8485847  -11.4659643  
H    1.0048919    1.3190469  -13.2607334  
H    0.4018247    4.7867897  -13.5586910  
H   -1.0278492    5.6403926  -11.0474613  
H   -1.3476698    3.8304645   -9.6127927  
H   -0.4455846   -1.2563873   -9.2151800  
C    2.5528530    2.1414826    2.8079335  
C    2.0663498    1.7338582    4.0032312  
C    0.9804344    0.8229586    3.6752840  
C    0.9495562    0.7966882    2.1971295  
N    1.8690446    1.5676019    1.6831036  
C    0.0000000    0.0000000    1.4700000  
C   -0.8785127   -0.7372425    2.1869543  
O   -1.8187535   -1.5261249    1.6395491  
C   -0.8723269   -0.7321790    3.6796354  
O   -1.7010379   -1.4274584    4.2670412  
C    0.1115397    0.0933559    4.4024240  
H    2.4028853    2.0163452    4.9860947  
H   -2.2861435   -1.9184361    2.3990168  
H    0.0832434    0.0693689    5.4835595  
H    3.3664920    2.8238276    2.6198634  
