60

C   -4.9948232    2.1239901   -6.5876306  
C   -3.7204763    1.6619509   -6.8222066  
C   -3.7978178    0.7745959   -7.9363068  
C   -5.1560852    0.7346167   -8.3430480  
N   -5.8559185    1.5636812   -7.5019164  
C   -5.6012983   -0.0415264   -9.4173733  
C   -4.6581179   -0.7907281  -10.0936022  
O   -5.0383747   -1.5661594  -11.1505434  
C   -3.2982504   -0.7643386   -9.7026024  
O   -2.4821735   -1.5648407  -10.4749729  
C   -2.8583697    0.0009056   -8.6426812  
H   -2.8432543    1.9304893   -6.2588580  
H   -6.8419979    1.7451120   -7.5539826  
H   -6.6351353   -0.0764529   -9.7322762  
H   -4.2374997   -1.9991787  -11.4735908  
H   -1.5816633   -1.4895648  -10.1447943  
H   -5.3578823    2.8077800   -5.8395810  
C   -0.8712823    0.0001712   -4.7267111  
C    0.4246872    0.0002195   -5.1323438  
C    0.4138924    0.0002758   -6.5761999  
C   -1.0047702    0.0002857   -6.9813996  
N   -1.7322698   -0.0001786   -5.8136522  
C   -1.4369659    0.0007305   -8.2678326  
C   -0.4382364    0.0010073   -9.3238038  
O   -0.7266369    0.0013504  -10.5133939  
C    1.0700316    0.0007501   -8.9176841  
O    1.9199265    0.0006730   -9.7979910  
C    1.4124573    0.0005497   -7.4976147  
H    1.2895156    0.0000338   -4.4930590  
H    2.4590211    0.0005778   -7.2248003  
H   -2.7343169    0.0012690   -5.7593665  
C    1.0965515    0.0001358   -0.8010304  
C    0.0000000    0.0000000    0.0000000  
C   -1.1546562    0.0001470   -0.8669514  
C   -0.6372012    0.0003520   -2.2486282  
N    0.7342873    0.0007338   -2.1395014  
C   -1.4147737    0.0001354   -3.3608717  
C   -2.8576047   -0.0001047   -3.1854463  
O   -3.6427778   -0.0002491   -4.1244908  
C   -3.4275837   -0.0000725   -1.7311667  
O   -4.6406828    0.0000333   -1.5710061  
C   -2.4891866   -0.0001090   -0.6116745  
H   -2.8919121   -0.0002919    0.3920865  
H    2.1388272    0.0000662   -0.5261647  
H    1.3735873   -0.0006098   -2.9130261  
C    2.5128556    2.1077716    2.9199648  
C    1.9592212    1.6432552    4.0696553  
C    0.8915788    0.7479214    3.6910360  
C    0.8684491    0.7287414    2.2159470  
N    1.8754542    1.5738793    1.8102719  
C    0.0000000    0.0000000    1.4700000  
C   -0.9772830   -0.8200135    2.1664417  
O   -1.8021297   -1.5120829    1.5842315  
C   -0.9711318   -0.8147624    3.7284083  
O   -1.7894187   -1.5009653    4.3257297  
C    0.0140216    0.0115358    4.4216297  
H    2.2638494    1.8988021    5.0689105  
H    0.0117648    0.0094386    5.5031631  
H    3.3327358    2.7953732    2.7900019  
H    2.1123206    1.7707734    0.8551938  
