66

C    6.7838478   -1.8390911   -2.1777617  
C    7.4888193   -2.6466323   -1.3155786  
C    8.8644539   -2.5417807   -1.6778425  
C    8.9384602   -1.6483151   -2.7770097  
N    7.6572968   -1.2417391   -3.0561725  
C   10.1454348   -1.3086406   -3.3955766  
C   11.2987408   -1.8811113   -2.8952352  
O   12.5045078   -1.5837547   -3.4615540  
C   11.2453015   -2.7751343   -1.7994780  
O   12.4787901   -3.2614057   -1.4181782  
C   10.0549149   -3.1108942   -1.1889288  
H    7.0637343   -3.2393218   -0.5237350  
H    7.3979665   -0.5966590   -3.7804654  
H   10.2085485   -0.6284416   -4.2337582  
H   13.1684229   -2.0826754   -2.9680359  
H   12.3538310   -3.8569645   -0.6729945  
H   10.0452256   -3.7987319   -0.3515141  
C    4.3849896   -2.1304618   -1.4422213  
C    3.1441139   -1.6666549   -1.8131356  
C    3.3426742   -0.7794832   -2.9122717  
C    4.7370041   -0.7414326   -3.1698022  
N    5.3406529   -1.5714199   -2.2580204  
C    5.2968250    0.0340153   -4.1896405  
C    4.4333178    0.7844916   -4.9637973  
O    4.9266825    1.5593199   -5.9733753  
C    3.0391176    0.7600316   -4.7220874  
O    2.3124334    1.5616245   -5.5780803  
C    2.4861704   -0.0045255   -3.7159919  
H    2.2107616   -1.9339277   -1.3479354  
H    6.3586917    0.0674736   -4.3909402  
H    4.1660274    1.9934379   -6.3810643  
H    1.3814043    1.4876304   -5.3471832  
H    4.6641025   -2.8147098   -0.6593673  
C    0.0000000    0.0000000    0.0000000  
C    1.0521669   -0.0011848   -0.8862341  
C    0.4917221   -0.0011931   -2.1979130  
C   -0.9187427    0.0003100   -2.0478683  
N   -1.1833170   -0.0009472   -0.7007915  
C   -1.7951698    0.0010259   -3.1372090  
C   -1.2375835    0.0005161   -4.4010425  
O   -2.0474208    0.0015256   -5.4997580  
C    0.1673584   -0.0013557   -4.5711962  
O    0.5673529   -0.0020659   -5.8915551  
C    1.0325773   -0.0023359   -3.4969890  
H    2.0953059   -0.0030542   -0.6200560  
H   -2.0989777    0.0102265   -0.2891825  
H   -2.8710930    0.0020274   -3.0295514  
H   -1.4634881    0.0006427   -6.2693593  
H    1.5290715   -0.0033076   -5.9180042  
C    1.1188642   -0.0008217    2.2703808  
C    0.0000000    0.0000000    1.4700000  
C   -1.1323862   -0.0008904    2.3373528  
C   -0.6382662   -0.0019682    3.6669281  
N    0.7324016   -0.0038477    3.5902241  
C   -1.4770914   -0.0027325    4.7854808  
C   -2.8395474   -0.0020958    4.5576857  
O   -3.7039201   -0.0024443    5.6140350  
C   -3.3517868   -0.0013946    3.2384331  
O   -4.7300496   -0.0012389    3.1773122  
C   -2.5248543   -0.0009135    2.1344818  
H    1.3576314    0.0056174    4.3757045  
H   -1.1067570   -0.0036993    5.8013813  
H   -4.5940033   -0.0021850    5.2385129  
H   -4.9934601   -0.0007286    2.2519915  
H   -2.9462578   -0.0005617    1.1360343  
H    2.1619896   -0.0009344    2.0042067  
