62

C   -7.3083195    5.4833945    0.6637857  
C   -8.5557697    5.0163611    1.0076108  
C   -8.5763368    3.6224785    0.7055032  
C   -7.3026224    3.2926123    0.1756302  
N   -6.5578405    4.4457566    0.1623500  
C   -6.9652586    1.9985620   -0.2323018  
C   -7.9311999    1.0196154   -0.1026915  
O   -7.6547281   -0.2610460   -0.4854241  
C   -9.2079968    1.3292056    0.4233879  
O  -10.0598842    0.2459796    0.4885920  
C   -9.5415987    2.6056553    0.8257718  
H   -9.3532272    5.6078197    1.4238210  
H   -5.6069482    4.5188966   -0.1513938  
H   -8.4537519   -0.7760030   -0.3132488  
H  -10.8993085    0.5408053    0.8547182  
H  -10.5277122    2.8126705    1.2247720  
H   -6.8950067    6.4748707    0.7352306  
C   -4.4484553    2.1114134   -0.3461921  
C   -5.6479912    1.6480085   -0.7825916  
C   -5.3783932    0.7523818   -1.8825941  
C   -3.9129551    0.7318186   -2.0524732  
N   -3.4082407    1.5765169   -1.0908921  
C   -3.2578655    0.0024282   -2.9908505  
C   -4.0489188   -0.8168743   -3.8939083  
O   -3.5523765   -1.5094419   -4.7725986  
C   -5.6025063   -0.8101577   -3.7322729  
O   -6.2789756   -1.4957519   -4.4869982  
C   -6.1934212    0.0167334   -2.6830243  
H   -7.2698069    0.0156516   -2.5775884  
H   -4.2368622    2.7988446    0.4566503  
H   -2.4341403    1.7725007   -0.9503007  
C    0.0000000    0.0000000    0.0000000  
C    1.0521666   -0.0011982   -0.8862343  
C    0.4917215   -0.0011996   -2.1979132  
C   -0.9187429    0.0003215   -2.0478682  
N   -1.1833171   -0.0009323   -0.7007913  
C   -1.7951703    0.0010483   -3.1372089  
C   -1.2375841    0.0005313   -4.4010422  
O   -2.0474218    0.0015510   -5.4997578  
C    0.1673576   -0.0013585   -4.5711963  
O    0.5673520   -0.0020735   -5.8915554  
C    1.0325768   -0.0023493   -3.4969892  
H    2.0953056   -0.0030808   -0.6200564  
H   -2.0989778    0.0102529   -0.2891822  
H   -1.4634888    0.0006601   -6.2693595  
H    1.5290707   -0.0033271   -5.9180047  
H    2.1042146   -0.0039770   -3.6584456  
C    0.0000000    0.0000000    1.4700000  
C    1.0541688    0.0001722    2.3260392  
C    0.5103138    0.0000454    3.6635956  
C   -0.9576371   -0.0002459    3.5155732  
N   -1.2018458    0.0001392    2.1615969  
C   -1.8348311   -0.0008317    4.5510609  
C   -1.2972847   -0.0009736    5.9014604  
O   -2.0050672   -0.0014265    6.9001319  
C    0.2542623   -0.0004184    6.0817573  
O    0.7184670   -0.0002256    7.2139121  
C    1.0974552   -0.0000873    4.8889129  
H    2.0940752    0.0005483    2.0517982  
H   -2.9081052   -0.0011668    4.4207061  
H    2.1707277    0.0000911    5.0223670  
H   -2.1128194   -0.0014912    1.7406791  
