62

C    4.4960718   -0.9944162   -8.9149376  
C    4.0834643    0.0818329   -8.1639980  
C    4.1168354    1.2232421   -9.0187925  
C    4.5612043    0.7782404  -10.2901830  
N    4.7842971   -0.5727499  -10.1918372  
C    4.7135456    1.6384839  -11.3817698  
C    4.4115116    2.9721969  -11.1864183  
O    4.5422882    3.8555871  -12.2186635  
C    3.9670669    3.4354153   -9.9251827  
O    3.7073471    4.7899206   -9.8904772  
C    3.8168068    2.5873772   -8.8477884  
H    5.0960663   -1.1654433  -10.9398319  
H    5.0519416    1.3055903  -12.3533003  
H    4.2843915    4.7199120  -11.8726932  
H    3.4125139    5.0204640   -9.0041775  
H    3.4746571    2.9711769   -7.8937917  
H    4.6089414   -2.0292198   -8.6403465  
C    5.7490607   -2.1284786   -4.7144778  
C    4.8671664   -1.6645343   -3.7660657  
C    3.9696975   -0.7771949   -4.4307298  
C    4.3561281   -0.7391882   -5.7949708  
N    5.4407941   -1.5693622   -5.9325542  
C    3.6896895    0.0363916   -6.7484506  
C    2.6133592    0.7870479   -6.3169351  
O    1.9266966    1.5620107   -7.2062836  
C    2.2128025    0.7626344   -4.9598146  
O    1.1236813    1.5644120   -4.6872124  
C    2.8699641   -0.0020530   -4.0185824  
H    4.8709993   -1.9318255   -2.7232165  
H    5.9263183   -1.7522465   -6.7920894  
H    1.2244403    1.9962427   -6.7047423  
H    0.9184891    1.4904381   -3.7501808  
H    6.5744611   -2.8128715   -4.6181479  
C    3.2573670   -0.0002921   -1.5109382  
C    2.5379468   -0.0001711   -0.3591962  
C    1.1435043    0.0000330   -0.7338498  
C    1.1092608   -0.0000085   -2.2088474  
N    2.4227562    0.0001906   -2.6182610  
C   -0.0265533   -0.0002525   -2.9515663  
C   -1.3003033   -0.0002641   -2.2514979  
O   -2.3786785   -0.0004132   -2.8306425  
C   -1.2877724    0.0000310   -0.6895608  
O   -2.3539956    0.0003306   -0.0892035  
C    0.0000000    0.0000000    0.0000000  
H    2.9384091   -0.0000370    0.6389240  
H   -0.0296290   -0.0004088   -4.0327231  
H    4.3270394   -0.0004767   -1.6439445  
C    2.4951002    2.0940188    2.9809380  
C    1.9440701    1.6314916    1.8291961  
C    0.8759964    0.7350050    2.2038498  
C    0.8497377    0.7130254    3.6788474  
N    1.8560616    1.5571714    4.0882609  
C   -0.0205033   -0.0168748    4.4215661  
C   -0.9962600   -0.8356168    3.7214979  
O   -1.8224391   -1.5286685    4.3006425  
C   -0.9864710   -0.8277881    2.1595606  
O   -1.8030528   -1.5133726    1.5592035  
C    0.0000000    0.0000000    1.4700000  
H    2.2509283    1.8888011    0.8310761  
H   -0.0229599   -0.0187323    5.5027230  
H    3.3143982    2.7817323    3.1139444  
H    2.0889452    1.7545833    5.0442112  
