64

C   -2.5823534    0.0022431   -8.8155565  
C   -3.7550502    0.0037833   -8.0963574  
C   -4.8232189    0.0047788   -9.0416684  
C   -4.2362523    0.0034838  -10.3329445  
N   -2.8744479    0.0039102  -10.1594415  
C   -4.9938224    0.0036774  -11.5080518  
C   -6.3689814    0.0048992  -11.3772405  
O   -7.1564365    0.0047907  -12.4921077  
C   -6.9732908    0.0065772  -10.0975437  
O   -8.3524230    0.0080709  -10.1341075  
C   -6.2265514    0.0066605   -8.9378430  
H   -3.8312302    0.0052499   -7.0224915  
H   -2.1952149   -0.0073355  -10.8986955  
H   -4.5525274    0.0028393  -12.4952003  
H   -8.0708609    0.0060544  -12.1805132  
H   -8.6806522    0.0091207   -9.2297465  
H   -6.7175508    0.0081478   -7.9717192  
C   -0.8287671    0.0000935   -4.7555305  
C    0.4934746   -0.0006598   -5.1351931  
C    0.5171460   -0.0005564   -6.5613908  
C   -0.8317454    0.0005673   -7.0000442  
N   -1.6230471   -0.0010139   -5.8782354  
C   -1.1872834    0.0012736   -8.3522208  
C   -0.1624546    0.0011448   -9.2784521  
O   -0.4533755    0.0021631  -10.6120098  
C    1.1896016   -0.0003451   -8.8604100  
O    2.0936294   -0.0007028   -9.9025607  
C    1.5410840   -0.0013158   -7.5266238  
H    1.3371559   -0.0023206   -4.4664687  
H   -2.6269692    0.0098532   -5.8761611  
H    0.3938015    0.0015726  -11.0762885  
H    2.9824058   -0.0017001   -9.5342134  
H    2.5853076   -0.0026325   -7.2366684  
C    1.0672566   -0.0000698   -0.8321912  
C    0.0000000    0.0000000    0.0000000  
C   -1.1601226   -0.0000736   -0.8778472  
C   -0.5938732   -0.0000770   -2.2438435  
N    0.7113365   -0.0001555   -2.2234123  
C   -1.4286989   -0.0001880   -3.4135239  
C   -2.7683117   -0.0006800   -3.2270522  
O   -3.6653907   -0.0008306   -4.2276967  
C   -3.3702026   -0.0010611   -1.8610771  
O   -4.5974909   -0.0013781   -1.7662957  
C   -2.4926826   -0.0008944   -0.6770655  
H   -4.5324249   -0.0012263   -3.7833950  
H   -2.9677773   -0.0012975    0.2947963  
H    2.1134390   -0.0000546   -0.5705121  
C    0.8576279    0.7185626    2.2703808  
C    0.0000000    0.0000000    1.4700000  
C   -0.8668858   -0.7285659    2.3373528  
C   -0.4876752   -0.4117774    3.6669281  
N    0.5635254    0.4678311    3.5902241  
C   -1.1297612   -0.9515493    4.7854808  
C   -2.1738724   -1.8268314    4.5576857  
O   -2.8357962   -2.3827064    5.6140350  
C   -2.5667212   -2.1555554    3.2384331  
O   -3.6226318   -3.0413663    3.1773122  
C   -1.9335634   -1.6236449    2.1344818  
H    1.0363952    0.8769718    4.3757045  
H   -0.8454472   -0.7142436    5.8013813  
H   -3.5178062   -2.9546422    5.2385129  
H   -3.8247440   -3.2102924    2.2519915  
H   -2.2566033   -1.8942483    1.1360343  
H    1.6567807    1.3889844    2.0042067  
