64

C    6.2994838   -0.7134842    2.8201396  
C    6.2850940   -0.4646223    4.1730363  
C    7.3517319    0.4438214    4.4406431  
C    7.9870744    0.7162083    3.2020670  
N    7.3244725   -0.0039862    2.2393132  
C    9.0838066    1.5757804    3.0875940  
C    9.5474229    2.1714624    4.2444863  
O   10.6152937    3.0197933    4.1897027  
C    8.9270818    1.9119377    5.4897341  
O    9.5054085    2.5805632    6.5488952  
C    7.8452585    1.0638498    5.6034502  
H    5.5918603   -0.8868658    4.8802356  
H    9.5725806    1.7874182    2.1465777  
H   10.7722862    3.3199109    5.0944384  
H    9.0273178    2.3503781    7.3514225  
H    7.3909956    0.8842417    6.5708508  
H    5.6605949   -1.3420633    2.2237605  
C    4.7630507    0.0004755   -1.3275395  
C    5.7197932    0.0016003   -2.2912395  
C    6.9965557    0.0009191   -1.6169146  
C    6.7031140   -0.0007358   -0.1709963  
N    5.3315510   -0.0005306   -0.0628077  
C    7.6461193   -0.0021761    0.8049351  
C    9.0433295   -0.0018648    0.4045107  
O    9.9665685   -0.0030129    1.2082070  
C    9.3772083    0.0001309   -1.1213747  
O   10.5499562    0.0007163   -1.4705508  
C    8.2742424    0.0012903   -2.0791417  
H    5.5504522    0.0029556   -3.3532822  
H    8.5138925    0.0024647   -3.1337932  
H    4.8220247   -0.0029954    0.8017292  
C    3.3003548    0.0005276   -1.4738982  
C    2.5232817    0.0003497   -2.6090743  
C    1.1623204   -0.0001319   -2.1820101  
C    1.1711886    0.0000583   -0.7636140  
N    2.4852302   -0.0014919   -0.3662356  
C    0.0000000    0.0000000    0.0000000  
C   -1.2020379    0.0000520   -0.6806479  
O   -2.3759249    0.0003495    0.0157742  
C   -1.2314652   -0.0005112   -2.0955511  
O   -2.5054384   -0.0008036   -2.6250184  
C   -0.0764510   -0.0007271   -2.8495195  
H    2.8919962   -0.0005619   -3.6205297  
H    2.8036267    0.0088181    0.5858667  
H   -3.0835636    0.0000348   -0.6418823  
H   -2.4360038   -0.0011526   -3.5845925  
H   -0.1304090   -0.0013420   -3.9319089  
C    2.5311839    2.1237619    3.0120429  
C    1.9795631    1.6616747    1.8395852  
C    0.9223175    0.7739173    2.1983588  
C    0.8753926    0.7337535    3.6154372  
N    1.8668922    1.5631002    4.0777464  
C   -0.0496243   -0.0427881    4.3197917  
C   -0.9437528   -0.7922060    3.5801400  
O   -1.8685244   -1.5680278    4.2172520  
C   -0.9124520   -0.7656372    2.1655264  
O   -1.8671164   -1.5663939    1.5732860  
C    0.0000000    0.0000000    1.4700000  
H    2.3005065    1.9304404    0.8477417  
H    2.0679347    1.7444845    5.0445261  
H   -0.0904770   -0.0778569    5.3997470  
H   -2.3849669   -2.0011402    3.5251786  
H   -1.7775064   -1.4909735    0.6183591  
H    3.3468514    2.8078103    3.1724291  
