64

C    9.8634395    0.7063991   -0.3009189  
C   11.2150640    0.4549158   -0.2526114  
C   11.4312315   -0.4537686    0.8254261  
C   10.1640398   -0.7235940    1.4027867  
N    9.2343996   -0.0017087    0.6961974  
C    9.9972389   -1.5826595    2.4931873  
C   11.1302636   -2.1804599    3.0099708  
O   11.0244454   -3.0284070    4.0743021  
C   12.4034013   -1.9235057    2.4479077  
O   13.4333465   -2.5940303    3.0747657  
C   12.5687320   -1.0759189    1.3723667  
H   11.9544221    0.8756106   -0.9124287  
H    9.0341908   -1.7923496    2.9379019  
H   11.9203566   -3.3302348    4.2730663  
H   14.2575950   -2.3655222    2.6343070  
H   13.5564760   -0.8983005    0.9633520  
H    9.2985041    1.3359664   -0.9668410  
C    5.7628302    0.0000245   -2.0437088  
C    4.7795901    0.0008674   -1.0815733  
C    5.4361690    0.0004501    0.1847223  
C    6.8315417   -0.0003741   -0.0699539  
N    6.9950519   -0.0025644   -1.4329936  
C    7.7866665   -0.0006597    0.9510872  
C    7.3247562    0.0002039    2.2529380  
O    8.2141754    0.0003228    3.2882870  
C    5.9363881    0.0006582    2.5272563  
O    5.6358413    0.0010892    3.8737390  
C    4.9935669    0.0006671    1.5204720  
H    7.8775299    0.0069799   -1.9116607  
H    7.6891811    0.0006695    4.0992409  
H    4.6787629    0.0014063    3.9717414  
H    3.9369291    0.0008392    1.7612932  
H    5.6826514   -0.0003807   -3.1172687  
C    3.3321168    0.0004716   -1.3379341  
C    2.6974177    0.0000118   -2.5332316  
C    1.2800432   -0.0002116   -2.2052842  
C    1.2395033    0.0000644   -0.7271298  
N    2.4394059    0.0005460   -0.2131041  
C    0.0000000    0.0000000    0.0000000  
C   -1.1468704    0.0000635   -0.7169542  
O   -2.3742206    0.0000074   -0.1695488  
C   -1.1388774    0.0001608   -2.2096352  
O   -2.2206238    0.0000906   -2.7970409  
C    0.1454514    0.0001818   -2.9324241  
H    3.1367978   -0.0000649   -3.5160956  
H   -2.9844350    0.0001027   -0.9290164  
H    0.1083567    0.0003684   -4.0135594  
C    0.8676693    0.7151171    2.2619005  
C    0.5875920    0.4624972    3.5848544  
C   -0.5048400   -0.4542819    3.6114698  
C   -0.8517165   -0.7276451    2.2635546  
N    0.0000000    0.0000000    1.4700000  
C   -1.8902865   -1.5946756    1.9108239  
C   -2.5912627   -2.1969500    2.9375057  
O   -3.6148162   -3.0527051    2.6493466  
C   -2.2603868   -1.9365747    4.2886322  
O   -3.0513550   -2.6123276    5.1947621  
C   -1.2361111   -1.0811317    4.6373480  
H    1.1060808    0.8876438    4.4271209  
H   -2.1597133   -1.8070987    0.8854031  
H   -3.9636755   -3.3565188    3.4974381  
H   -2.7621927   -2.3810384    6.0827341  
H   -1.0058879   -0.9010589    5.6809233  
H    1.6167816    1.3499334    1.8205408  
