66

C   -3.2981802    0.1197741   -1.4738994  
C   -2.5216166    0.0916266   -2.6090752  
C   -1.1615424    0.0424995   -2.1820105  
C   -1.1704126    0.0426327   -0.7636143  
N   -2.4835240    0.0920801   -0.3662364  
C    0.0000000    0.0000000    0.0000000  
C    1.2012382   -0.0438675   -0.6806477  
O    2.3743329   -0.0869542    0.0157750  
C    1.2306661   -0.0443775   -2.0955507  
O    2.5038037   -0.0905230   -2.6250172  
C    0.0764280   -0.0020603   -2.8495194  
H   -2.8900525    0.1059776   -3.6205313  
H   -2.8020850    0.0933829    0.5858655  
H    3.0815135   -0.1124340   -0.6418812  
H    2.4344290   -0.0876433   -3.5845914  
H    0.1303726   -0.0034127   -3.9319085  
C   -5.6585878    0.2228488   -2.3673695  
C   -6.9361731    0.2806538   -1.8605161  
C   -6.8210631    0.2676994   -0.4388333  
C   -5.4374208    0.2008757   -0.1338847  
N   -4.7599024    0.1731429   -1.3275415  
C   -4.9525005    0.1713832    1.1771345  
C   -5.8812648    0.2103599    2.1989250  
O   -5.4623760    0.1844102    3.4977224  
C   -7.2660674    0.2767623    1.9147970  
O   -8.0634843    0.3086641    3.0401652  
C   -7.7451806    0.3056168    0.6216826  
H   -7.8399712    0.3254118   -2.4437306  
H   -3.8991995    0.1203342    1.4162010  
H   -6.2594620    0.2191421    4.0424357  
H   -8.9828806    0.3532255    2.7602927  
H   -5.3173636    0.2116987   -3.3883502  
C   -9.8648737   -0.3084411   -0.6178018  
C   -9.1915655    0.3745112    0.3684534  
C  -10.1603266    1.1456462    1.0765861  
C  -11.4179978    0.8903293    0.4724313  
N  -11.2024792    0.0047945   -0.5542124  
C  -12.6040063    1.4839455    0.9149139  
C  -12.5188984    2.3508655    1.9870071  
O  -13.6463687    2.9577141    2.4598260  
C  -11.2731765    2.6186315    2.6028776  
O  -11.3536059    3.5039171    3.6579337  
C  -10.1027053    2.0335804    2.1667133  
H  -11.9129705   -0.3685671   -1.1573570  
H  -13.5656807    1.2936207    0.4586669  
H  -13.3676825    3.5135616    3.1991725  
H  -10.4700860    3.6299247    4.0172640  
H   -9.1633213    2.2581056    2.6582661  
H   -9.4965881   -0.9931082   -1.3624871  
C    2.5285572    2.1210227    2.9438989  
C    1.9331703    1.6216660    4.0790748  
C    0.8903039    0.7472258    3.6520102  
C    0.8972198    0.7527806    2.2336141  
N    1.9028376    1.5986179    1.8362361  
C    0.0000000    0.0000000    1.4700000  
C   -0.9207814   -0.7726952    2.1506477  
O   -1.8198395   -1.5274828    1.4542253  
C   -0.9436862   -0.7911793    3.5655508  
O   -1.9197945   -1.6098497    4.0950179  
C   -0.0590329   -0.0485852    4.3195194  
H    2.2150357    1.8593692    5.0905303  
H    2.1533708    1.7953814    0.8841339  
H   -2.3621246   -1.9821033    2.1118817  
H   -1.8668290   -1.5649508    5.0545920  
H   -0.1007624   -0.0827977    5.4019087  
H    3.3491200    2.8096064    2.8367138  
