62

C   -0.0046830   -0.9858419   -9.5540827  
C   -0.1539926   -0.5697673  -10.8567936  
C   -0.4104113    0.8328829  -10.8190883  
C   -0.4054684    1.2203611   -9.4546238  
N   -0.1581093    0.0916584   -8.7133673  
C   -0.6249214    2.5380225   -9.0418309  
C   -0.8532273    3.4817737  -10.0243731  
O   -1.0729862    4.7832935   -9.6768604  
C   -0.8624094    3.1145923  -11.3910886  
O   -1.1043024    4.1683129  -12.2481207  
C   -0.6462577    1.8148276  -11.7990292  
H   -0.0874930   -1.1999274  -11.7271204  
H   -0.6225715    2.8397614   -8.0034909  
H   -1.2082875    5.2671117  -10.5020150  
H   -1.0936250    3.8349917  -13.1505548  
H   -0.6593979    1.5635619  -12.8531512  
H    0.1976954   -1.9662196   -9.1580255  
C    2.5715460   -2.1234228   -6.0298477  
C    2.0605229   -1.6614591   -4.8390866  
C    0.9917285   -0.7734885   -5.1612467  
C    0.8962444   -0.7330736   -6.5758760  
N    1.8711847   -1.5624824   -7.0720513  
C   -0.0522657    0.0437219   -7.2479663  
C   -0.9203935    0.7931399   -6.4779637  
O   -1.8663528    1.5692039   -7.0828604  
C   -0.8406070    0.7663227   -5.0652602  
O   -1.7742823    1.5671138   -4.4404977  
C    0.0950446    0.0004351   -4.4015596  
H    2.4152486   -1.9304417   -3.8588769  
H    2.0389303   -1.7437287   -8.0451867  
H   -2.3586956    2.0022709   -6.3734118  
H   -1.6519910    1.4915158   -3.4892176  
H    3.3811320   -2.8075600   -6.2182240  
C    3.3321173    0.0004713   -1.3379338  
C    2.6974181    0.0000116   -2.5332314  
C    1.2800438   -0.0002119   -2.2052841  
C    1.2395034    0.0000643   -0.7271299  
N    2.4394062    0.0005460   -0.2131038  
C    0.0000000    0.0000000    0.0000000  
C   -1.1468702    0.0000634   -0.7169543  
O   -2.3742203    0.0000074   -0.1695487  
C   -1.1388770    0.0001607   -2.2096355  
O   -2.2206234    0.0000905   -2.7970411  
C    0.1454522    0.0001815   -2.9324241  
H    3.1367984   -0.0000653   -3.5160950  
H   -2.9844346    0.0001026   -0.9290167  
H    4.3940038    0.0007618   -1.1498640  
C    2.5128556    2.1077716    2.9199648  
C    1.9592212    1.6432552    4.0696553  
C    0.8915788    0.7479214    3.6910360  
C    0.8684491    0.7287414    2.2159470  
N    1.8754542    1.5738793    1.8102719  
C    0.0000000    0.0000000    1.4700000  
C   -0.9772830   -0.8200135    2.1664417  
O   -1.8021297   -1.5120829    1.5842315  
C   -0.9711318   -0.8147624    3.7284083  
O   -1.7894187   -1.5009653    4.3257297  
C    0.0140216    0.0115358    4.4216297  
H    2.2638494    1.8988021    5.0689105  
H    0.0117648    0.0094386    5.5031631  
H    3.3327358    2.7953732    2.7900019  
H    2.1123206    1.7707734    0.8551938  
