60

C    3.5577931   -4.3036535   -1.9820008  
C    4.6008922   -4.9140090   -2.6391749  
C    4.5608053   -4.4641535   -3.9921805  
C    3.4626600   -3.5731407   -4.1021786  
N    2.8742784   -3.4997865   -2.8640170  
C    3.1222050   -2.9366273   -5.2995630  
C    3.9047573   -3.2042303   -6.4059888  
O    3.6170278   -2.6093423   -7.6002816  
C    5.0043651   -4.0905882   -6.3162688  
O    5.6851991   -4.2537743   -7.5050416  
C    5.3406507   -4.7190867   -5.1354102  
H    5.3035149   -5.6000366   -2.1979475  
H    2.0765824   -2.9355921   -2.6330463  
H    4.2761290   -2.9287499   -8.2302247  
H    6.4118941   -4.8667992   -7.3576700  
H    6.1884394   -5.3930873   -5.0972527  
H    3.2464235   -4.3792372   -0.9542393  
C    1.9859502   -2.0121222   -5.4225055  
C    1.1142987   -1.6302696   -4.4602212  
C    0.2013165   -0.7124160   -5.1239291  
C    0.6817523   -0.6541656   -6.5212024  
N    1.7275942   -1.4140512   -6.7022472  
C    0.0351788    0.1580608   -7.5148402  
C   -1.0425997    0.8790114   -7.1301861  
O   -1.7423825    1.6794830   -7.9521295  
C   -1.5518357    0.8410637   -5.7275461  
O   -2.5376877    1.5231241   -5.4480632  
C   -0.8712826    0.0001710   -4.7267111  
H    1.0933977   -1.9340156   -3.4275658  
H    0.4078533    0.1817532   -8.5284790  
H   -2.4462789    2.0547409   -7.3927868  
C    1.0965514    0.0001359   -0.8010305  
C    0.0000000    0.0000000    0.0000000  
C   -1.1546563    0.0001470   -0.8669513  
C   -0.6372014    0.0003519   -2.2486282  
N    0.7342871    0.0007337   -2.1395014  
C   -1.4147739    0.0001352   -3.3608717  
C   -2.8576049   -0.0001048   -3.1854462  
O   -3.6427779   -0.0002494   -4.1244907  
C   -3.4275840   -0.0000725   -1.7311666  
O   -4.6406831    0.0000333   -1.5710060  
C   -2.4891867   -0.0001091   -0.6116744  
H   -2.8919122   -0.0002918    0.3920866  
H    2.1388272    0.0000663   -0.5261648  
H    1.3735872   -0.0006099   -2.9130262  
C    2.5128556    2.1077716    2.9199648  
C    1.9592212    1.6432552    4.0696553  
C    0.8915788    0.7479214    3.6910360  
C    0.8684491    0.7287414    2.2159470  
N    1.8754542    1.5738793    1.8102719  
C    0.0000000    0.0000000    1.4700000  
C   -0.9772830   -0.8200135    2.1664417  
O   -1.8021297   -1.5120829    1.5842315  
C   -0.9711318   -0.8147624    3.7284083  
O   -1.7894187   -1.5009653    4.3257297  
C    0.0140216    0.0115358    4.4216297  
H    2.2638494    1.8988021    5.0689105  
H    0.0117648    0.0094386    5.5031631  
H    3.3327358    2.7953732    2.7900019  
H    2.1123206    1.7707734    0.8551938  
