62

C    1.1243405    0.0100579   -0.7919005  
C    0.7474061    0.0234979   -2.1148545  
C   -0.6787397    0.0234092   -2.1414699  
C   -1.1201752    0.0097939   -0.7935547  
N    0.0000000    0.0000000    0.0000000  
C   -2.4730815    0.0062265   -0.4408247  
C   -3.3971972    0.0169000   -1.4675061  
O   -4.7313521    0.0143498   -1.1793474  
C   -2.9763670    0.0301768   -2.8186327  
O   -4.0166498    0.0392772   -3.7247625  
C   -1.6418585    0.0334300   -3.1673483  
H   -2.8160167   -0.0042754    0.5845968  
H   -5.1938833    0.0227837   -2.0274383  
H   -3.6464701    0.0480163   -4.6127342  
H   -1.3497495    0.0435080   -4.2109232  
H    2.1062464    0.0054047   -0.3505410  
C    4.5576540   -2.0608770   -2.9109854  
C    3.4088896   -1.6040004   -2.3491312  
C    2.8058657   -0.6998634   -3.2997804  
C    3.7039031   -0.6672365   -4.4699318  
N    4.7468755   -1.5131505   -4.1707198  
C    3.4850151    0.0720187   -5.5867552  
C    2.2849643    0.8903122   -5.6397499  
O    1.9987076    1.5913464   -6.6014719  
C    1.3198855    0.8712925   -4.4117158  
O    0.3065736    1.5563984   -4.4447247  
C    1.6628930    0.0339871   -3.2649301  
H    3.0275645   -1.8698619   -1.3793263  
H    4.1564149    0.0816022   -6.4341283  
H    5.2820356   -2.7514593   -2.5106644  
C    6.4725500   -3.0373545   -5.2371217  
C    7.5040802   -2.9656107   -6.1173905  
C    7.6012087   -1.5886083   -6.5407888  
C    6.5340751   -0.8587650   -5.8299120  
N    5.8860981   -1.7939264   -5.0562918  
C    6.2941787    0.4706878   -5.9591772  
C    7.1435550    1.2336211   -6.8586358  
O    7.0076872    2.4359903   -7.0434310  
C    8.2797367    0.4811195   -7.6219424  
O    9.0010032    1.1128799   -8.3821498  
C    8.4406306   -0.9537160   -7.4001028  
H    8.1258547   -3.7839578   -6.4341218  
H    5.5062069    0.9867389   -5.4284209  
H    9.2297952   -1.4672734   -7.9322682  
H    6.0913067   -3.8940196   -4.7054567  
C    2.5285572    2.1210227    2.9438989  
C    1.9331703    1.6216660    4.0790748  
C    0.8903039    0.7472258    3.6520102  
C    0.8972198    0.7527806    2.2336141  
N    1.9028376    1.5986179    1.8362361  
C    0.0000000    0.0000000    1.4700000  
C   -0.9207814   -0.7726952    2.1506477  
O   -1.8198395   -1.5274828    1.4542253  
C   -0.9436862   -0.7911793    3.5655508  
O   -1.9197945   -1.6098497    4.0950179  
C   -0.0590329   -0.0485852    4.3195194  
H    2.2150357    1.8593692    5.0905303  
H    2.1533708    1.7953814    0.8841339  
H   -2.3621246   -1.9821033    2.1118817  
H   -1.8668290   -1.5649508    5.0545920  
H   -0.1007624   -0.0827977    5.4019087  
H    3.3491200    2.8096064    2.8367138  
