60

C    8.9836090    0.0031768   -4.0787932  
C    9.5199218    0.0043448   -5.3456136  
C   10.9385686    0.0051554   -5.1971579  
C   11.2113894    0.0041362   -3.8052185  
N   10.0023574    0.0048977   -3.1549442  
C   12.5108351    0.0042471   -3.2892439  
C   13.5538711    0.0051013   -4.1949228  
O   14.8426249    0.0048966   -3.7453384  
C   13.3018931    0.0065000   -5.5875182  
O   14.4454383    0.0076411   -6.3592996  
C   12.0202148    0.0066646   -6.0972495  
H    8.9577965    0.0056885   -6.2637677  
H    9.8792633   -0.0061014   -2.1585970  
H   12.7254431    0.0036181   -2.2294585  
H   15.4056602    0.0058942   -4.5303584  
H   14.1869368    0.0085189   -7.2860037  
H   11.8582754    0.0079321   -7.1688143  
C    6.4690058    0.0019755   -4.4192265  
C    7.5790592    0.0025230   -3.6450419  
C    7.0826133    0.0021762   -2.2775473  
C    5.6103540    0.0015083   -2.4155221  
N    5.2447492    0.0013072   -3.6686472  
C    4.7390840    0.0009613   -1.2727298  
C    5.3125313    0.0006874   -0.0477840  
O    4.6211397    0.0001824    1.1046126  
C    6.7952874    0.0009744    0.1242517  
O    7.2479830    0.0008235    1.2689293  
C    7.6676525    0.0015792   -1.0635625  
H    5.3014942    0.0000718    1.8019434  
H    8.7364289    0.0016562   -0.8963872  
H    6.4103385    0.0020016   -5.4960417  
C    3.2798077    0.0005856   -1.4499661  
C    2.5571132    0.0005565   -2.5996564  
C    1.1637425    0.0001547   -2.2210366  
C    1.1336959   -0.0000200   -0.7459475  
N    2.4483509   -0.0001429   -0.3402730  
C    0.0000000    0.0000000    0.0000000  
C   -1.2757370   -0.0000187   -0.6964411  
O   -2.3524597   -0.0000640   -0.1142306  
C   -1.2676502   -0.0000874   -2.2584078  
O   -2.3355774   -0.0004102   -2.8557287  
C    0.0181551    0.0001758   -2.9516297  
H    2.9547342    0.0006074   -3.5989118  
H    0.0150776    0.0003317   -4.0331632  
H    2.7563626    0.0012823    0.6148051  
C    0.0000000    0.0000000    1.4700000  
C    1.0662921    0.0000102    2.3034270  
C    0.4961870   -0.0000064    3.6418889  
C   -0.9663858    0.0000850    3.4240247  
N   -1.2632773    0.0000084    2.1528658  
C   -1.8985362    0.0000517    4.5177257  
C   -1.3925775   -0.0004564    5.7720543  
O   -2.1456383   -0.0005410    6.8851312  
C    0.0786232   -0.0009323    6.0245000  
O    0.4683759   -0.0012588    7.1921102  
C    1.0143166   -0.0008442    4.8859032  
H    2.1107198   -0.0000632    2.0421868  
H   -2.9622183    0.0003270    4.3293377  
H   -1.5042274   -0.0009692    7.6184419  
H    2.0724152   -0.0013148    5.1109744  
