64

C   -3.9747612    0.7101850   -1.9417823  
C   -5.3221355    0.4600623   -2.0621546  
C   -5.4813673   -0.4485687   -3.1501041  
C   -4.1854344   -0.7197654   -3.6589634  
N   -3.2941075    0.0012873   -2.9038235  
C   -3.9615342   -1.5791670   -4.7388183  
C   -5.0659633   -2.1759000   -5.3152940  
O   -4.9043393   -3.0241176   -6.3723733  
C   -6.3670286   -1.9175708   -4.8220261  
O   -7.3627223   -2.5871489   -5.5029089  
C   -6.5886806   -1.0696515   -3.7569302  
H   -6.0952351    0.8816070   -1.4427913  
H   -2.9763329   -1.7899005   -5.1314648  
H   -5.7886690   -3.3250690   -6.6186536  
H   -8.2090764   -2.3577388   -5.1071047  
H   -7.5966689   -0.8909705   -3.4012484  
H   -3.4455419    1.3392825   -1.2467125  
C    0.0000000    0.0000000    0.0000000  
C    1.0541688   -0.0001722   -0.8560392  
C    0.5103135   -0.0000454   -2.1935954  
C   -0.9576375    0.0002459   -2.0455728  
N   -1.2018462   -0.0001392   -0.6915966  
C   -1.8348315    0.0008316   -3.0810604  
C   -1.2972851    0.0009737   -4.4314603  
O   -2.0050681    0.0014265   -5.4301316  
C    0.2542617    0.0004185   -4.6117570  
O    0.7184664    0.0002257   -5.7439119  
C    1.0974549    0.0000874   -3.4189129  
H    2.0940751   -0.0005482   -0.5817983  
H   -2.1128195    0.0014911   -0.2706785  
C    4.3304646   -2.1219089   -1.2732989  
C    5.3835927   -1.6226244   -2.0041232  
C    4.8312730   -0.7479127   -2.9861734  
C    3.4245689   -0.7532348   -2.8042910  
N    3.1541554   -1.5992005   -1.7574694  
C    2.5562209   -0.0001551   -3.6003007  
C    3.1181940    0.7726055   -4.5979003  
O    2.3162976    1.5276815   -5.4040250  
C    4.5194615    0.7908606   -4.7952161  
O    4.9245909    1.6096321   -5.8290571  
C    5.3766891    0.0479714   -4.0104850  
H    6.4220542   -1.8605489   -1.8492591  
H    2.2402064   -1.7958553   -1.3914017  
H    2.9020995    1.9822982   -6.0232382  
H    5.8833591    1.5645647   -5.8949091  
H    6.4456639    0.0820134   -4.1854490  
H    4.3252214   -2.8106332   -0.4458991  
C    1.1188642   -0.0008217    2.2703808  
C    0.0000000    0.0000000    1.4700000  
C   -1.1323862   -0.0008904    2.3373528  
C   -0.6382662   -0.0019682    3.6669281  
N    0.7324016   -0.0038477    3.5902241  
C   -1.4770914   -0.0027325    4.7854808  
C   -2.8395474   -0.0020958    4.5576857  
O   -3.7039201   -0.0024443    5.6140350  
C   -3.3517868   -0.0013946    3.2384331  
O   -4.7300496   -0.0012389    3.1773122  
C   -2.5248543   -0.0009135    2.1344818  
H    1.3576314    0.0056174    4.3757045  
H   -1.1067570   -0.0036993    5.8013813  
H   -4.5940033   -0.0021850    5.2385129  
H   -4.9934601   -0.0007286    2.2519915  
H   -2.9462578   -0.0005617    1.1360343  
H    2.1619896   -0.0009344    2.0042067  
