60

C    9.3599990    0.0017987    0.1233605  
C    9.8963127    0.0031029   -1.1434597  
C   11.3149606    0.0033722   -0.9950034  
C   11.5877806    0.0018975    0.3969354  
N   10.3787485    0.0029203    1.0472100  
C   12.8872255    0.0014148    0.9129098  
C   13.9302624    0.0021322    0.0072316  
O   15.2190164    0.0013548    0.4568155  
C   13.6782842    0.0039792   -1.3853633  
O   14.8218305    0.0049135   -2.1571447  
C   12.3966067    0.0047296   -1.8950943  
H    9.3341882    0.0048824   -2.0616131  
H   10.2556510   -0.0082918    2.0435546  
H   13.1018336    0.0004365    1.9726954  
H   15.7820516    0.0023548   -0.3282038  
H   14.5633289    0.0061219   -3.0838486  
H   12.2346672    0.0063307   -2.9666591  
C    5.6938824    0.0016101   -2.2318642  
C    4.7390840    0.0009613   -1.2727298  
C    5.4706526    0.0008610   -0.0152293  
C    6.8949560    0.0014079   -0.4126512  
N    7.0320415    0.0019292   -1.7108026  
C    7.9554492    0.0015313    0.5571115  
C    7.6088224    0.0015158    1.8644692  
O    8.4940071    0.0016142    2.8756505  
C    6.1802430    0.0013412    2.2972752  
O    5.9381798    0.0012127    3.5041825  
C    5.1106701    0.0011731    1.2834019  
H    7.9484093    0.0015987    3.6827907  
H    4.0886164    0.0011647    1.6378544  
H    5.5602492    0.0018872   -3.3019652  
C    3.2798077    0.0005856   -1.4499661  
C    2.5571132    0.0005565   -2.5996564  
C    1.1637425    0.0001547   -2.2210366  
C    1.1336959   -0.0000200   -0.7459475  
N    2.4483509   -0.0001429   -0.3402730  
C    0.0000000    0.0000000    0.0000000  
C   -1.2757370   -0.0000187   -0.6964411  
O   -2.3524597   -0.0000640   -0.1142306  
C   -1.2676502   -0.0000874   -2.2584078  
O   -2.3355774   -0.0004102   -2.8557287  
C    0.0181551    0.0001758   -2.9516297  
H    2.9547342    0.0006074   -3.5989118  
H    0.0150776    0.0003317   -4.0331632  
H    2.7563626    0.0012823    0.6148051  
C    0.8400945    0.7047457    2.2710304  
C    0.0000000    0.0000000    1.4700000  
C   -0.8844236   -0.7423113    2.3369512  
C   -0.4878984   -0.4098547    3.7186280  
N    0.5629682    0.4714286    3.6095011  
C   -1.0836927   -0.9095027    4.8308716  
C   -2.1891196   -1.8367527    4.6554461  
O   -2.7906899   -2.3413415    5.5944904  
C   -2.6257283   -2.2031529    3.2011665  
O   -3.5549479   -2.9829990    3.0410059  
C   -1.9068976   -1.5999348    2.0816745  
H   -0.7774656   -0.6525820    5.8354244  
H   -2.2155208   -1.8586617    1.0779135  
H    1.6384792    1.3747609    1.9961646  
H    1.0518368    0.8833920    4.3830260  
