60

C   -7.0286982    3.3808599    0.8220715  
C   -6.7218118    2.1175760    0.3721797  
C   -7.8270265    1.2782822    0.7018539  
C   -8.7865566    2.0918519    1.3570887  
N   -8.2693445    3.3621796    1.4151955  
C  -10.0072289    1.5948808    1.8237460  
C  -10.2640666    0.2522204    1.6250619  
O  -11.4408029   -0.2850246    2.0605788  
C   -9.3190660   -0.5757871    0.9737608  
O   -9.7216619   -1.8897517    0.8522872  
C   -8.1145239   -0.0862488    0.5133729  
H   -8.7306469    4.1588455    1.8158254  
H  -10.7427013    2.2096898    2.3240376  
H  -11.4170791   -1.2216236    1.8250283  
H   -9.0272572   -2.3802220    0.4019040  
H   -7.4103580   -0.7447075    0.0183372  
H   -6.4601548    4.2934393    0.7680712  
C   -4.2186866    2.1401319   -0.0437262  
C   -5.4804250    1.7323141   -0.3144295  
C   -5.3466897    0.8217461   -1.4411419  
C   -3.8965662    0.7958597   -1.7293373  
N   -3.2302259    1.5666944   -0.9133753  
C   -3.3460097   -0.0004262   -2.7913647  
C   -4.2050297   -0.7376508   -3.5315800  
O   -3.8298204   -1.5261789   -4.5530898  
C   -5.6737587   -0.7329691   -3.2651710  
O   -6.3965398   -1.4282086   -3.9789291  
C   -6.2140638    0.0921568   -2.1701081  
H   -4.6590777   -1.9185767   -4.8809755  
H   -7.2835616    0.0679006   -2.0094323  
H   -3.8917478    2.8223391    0.7248296  
C    0.0000000    0.0000000    0.0000000  
C    1.0662919   -0.0000103   -0.8334272  
C    0.4961868    0.0000066   -2.1718889  
C   -0.9663860   -0.0000849   -1.9540248  
N   -1.2632775   -0.0000084   -0.6828659  
C   -1.8985364   -0.0000515   -3.0477258  
C   -1.3925778    0.0004567   -4.3020543  
O   -2.1456385    0.0005412   -5.4151314  
C    0.0786229    0.0009326   -4.5544999  
O    0.4683756    0.0012594   -5.7221104  
C    1.0143162    0.0008443   -3.4159034  
H    2.1107195    0.0000631   -0.5721869  
H   -1.5042277    0.0009692   -6.1484420  
H    2.0724151    0.0013151   -3.6409746  
C    3.1301144    0.0010313    3.1728260  
C    2.5367765    0.0002768    1.9564670  
C    1.1089900   -0.0001027    2.2356185  
C    1.0177864    0.0004150    3.7115134  
N    2.1993570    0.0011613    4.2663826  
C   -0.2459220    0.0002880    4.3957118  
C   -1.3675327    0.0000606    3.6398520  
O   -2.6129319   -0.0000866    4.1448486  
C   -1.3083589   -0.0000910    2.1483229  
O   -2.3693264   -0.0004206    1.5241687  
C    0.0000000    0.0000000    1.4700000  
H    3.0096015    0.0001008    0.9892483  
H   -0.2829642    0.0004689    5.4753125  
H   -3.1967446   -0.0002093    3.3649027  
H    4.1849273    0.0015113    3.3971983  
