64

C    2.1593638   -0.0003141   -8.1531371  
C    3.2364058   -0.0030570   -7.2973101  
C    4.4111216   -0.0044375   -8.1064096  
C    3.9847346   -0.0021269   -9.4592266  
N    2.6119417   -0.0016044   -9.4517992  
C    4.8789432   -0.0023694  -10.5340201  
C    6.2281648   -0.0046852  -10.2377542  
O    7.1447487   -0.0046750  -11.2491336  
C    6.6731674   -0.0073869   -8.8943320  
O    8.0465875   -0.0099033   -8.7637317  
C    5.7915739   -0.0074225   -7.8335223  
H    3.1820705   -0.0050579   -6.2221186  
H    2.0271706    0.0104812  -10.2678113  
H    4.5603536   -0.0007606  -11.5673150  
H    8.0147449   -0.0067660  -10.8291701  
H    8.2629618   -0.0116018   -7.8262976  
H    6.1620473   -0.0097087   -6.8150813  
C   -0.1387078    0.0017019   -4.3179684  
C    0.8680295    0.0011954   -5.2554905  
C    0.2429724    0.0018232   -6.5376383  
C   -1.1582727    0.0029977   -6.3175531  
N   -1.3554488    0.0009412   -4.9589749  
C   -2.0878503    0.0041704   -7.3619062  
C   -1.5938805    0.0044643   -8.6519335  
O   -2.4574177    0.0059476   -9.7089649  
C   -0.1991526    0.0029313   -8.8918278  
O    0.1346064    0.0030290  -10.2304650  
C    0.7184771    0.0015007   -7.8620319  
H    1.9231278   -0.0006419   -5.0415804  
H   -2.2494821    0.0117256   -4.5022806  
H   -3.1570789    0.0049250   -7.2008121  
H   -1.9125267    0.0055958  -10.5066851  
H    1.0938155    0.0019692  -10.3047651  
C    3.3041272    0.0001178   -1.5420428  
C    2.5845372   -0.0004779   -0.3695851  
C    1.2040007   -0.0000007   -0.7283589  
C    1.1422375    0.0006038   -2.1454371  
N    2.4348641    0.0026111   -2.6077464  
C   -0.0655179    0.0008799   -2.8497918  
C   -1.2321766    0.0002325   -2.1101402  
O   -2.4392816    0.0001148   -2.7472523  
C   -1.1911209   -0.0000007   -0.6955266  
O   -2.4371527   -0.0002320   -0.1032863  
C    0.0000000    0.0000000    0.0000000  
H    3.0031533   -0.0000660    0.6222584  
H    2.7054632   -0.0071097   -3.5745261  
H   -3.1132986   -0.0000648   -2.0551788  
H   -2.3200284   -0.0004071    0.8516409  
H    4.3686626    0.0004072   -1.7024289  
C    2.4951002    2.0940188    2.9809380  
C    1.9440701    1.6314916    1.8291961  
C    0.8759964    0.7350050    2.2038498  
C    0.8497377    0.7130254    3.6788474  
N    1.8560616    1.5571714    4.0882609  
C   -0.0205033   -0.0168748    4.4215661  
C   -0.9962600   -0.8356168    3.7214979  
O   -1.8224391   -1.5286685    4.3006425  
C   -0.9864710   -0.8277881    2.1595606  
O   -1.8030528   -1.5133726    1.5592035  
C    0.0000000    0.0000000    1.4700000  
H    2.2509283    1.8888011    0.8310761  
H   -0.0229599   -0.0187323    5.5027230  
H    3.3143982    2.7817323    3.1139444  
H    2.0889452    1.7545833    5.0442112  
