64

C    3.5520019   -3.5868795   -5.6499313  
C    2.5935430   -2.9963578   -4.8592934  
C    2.7964108   -3.4753796   -3.5311431  
C    3.9024017   -4.3624848   -3.5730320  
N    4.3361066   -4.4088068   -4.8747121  
C    4.3857907   -5.0225962   -2.4392875  
C    3.7411315   -4.7825768   -1.2413797  
O    4.1721376   -5.4007393   -0.1033450  
C    2.6356742   -3.9011339   -1.1794239  
O    2.1017348   -3.7672508    0.0856162  
C    2.1580898   -3.2497840   -2.2975396  
H    5.1145568   -4.9480384   -5.2082188  
H    5.2281962   -5.7000296   -2.4645996  
H    3.5922247   -5.0987191    0.6078150  
H    1.3605530   -3.1555735    0.0397411  
H    1.3093167   -2.5805055   -2.2192562  
H    3.7374481   -3.4879072   -6.7057595  
C    1.5647264   -2.0539602   -5.3222425  
C    1.3415388   -1.5772672   -6.5740516  
C    0.2114924   -0.6825498   -6.4885504  
C   -0.2083733   -0.6770012   -5.0741692  
N    0.6518897   -1.5286393   -4.4202963  
C   -1.2456329    0.0471727   -4.5828766  
C   -1.9989045    0.8763049   -5.5089741  
O   -2.9500478    1.5652086   -5.1639542  
C   -1.5719704    0.8855380   -7.0114543  
O   -2.1988676    1.5795080   -7.8005467  
C   -0.4365516    0.0630007   -7.4214650  
H    1.9041930   -1.8243645   -7.4566485  
H   -0.1472088    0.0751448   -8.4635098  
H    0.6225289   -1.7350432   -3.4386737  
C    1.1243410    0.0099923   -0.7919003  
C    0.7474076    0.0234544   -2.1148543  
C   -0.6787381    0.0234490   -2.1414700  
C   -1.1201745    0.0098592   -0.7935546  
N    0.0000000    0.0000000    0.0000000  
C   -2.4730816    0.0063709   -0.4408240  
C   -3.3971958    0.0170982   -1.4675058  
O   -4.7313517    0.0146259   -1.1793471  
C   -2.9763648    0.0303504   -2.8186324  
O   -4.0166480    0.0395118   -3.7247624  
C   -1.6418562    0.0335260   -3.1673481  
H    1.4178717    0.0310972   -2.9571209  
H   -2.8160166   -0.0041111    0.5845966  
H   -5.1938818    0.0230867   -2.0274384  
H   -3.6464675    0.0482293   -4.6127343  
H    2.1062467    0.0052819   -0.3505407  
C    2.5285572    2.1210227    2.9438989  
C    1.9331703    1.6216660    4.0790748  
C    0.8903039    0.7472258    3.6520102  
C    0.8972198    0.7527806    2.2336141  
N    1.9028376    1.5986179    1.8362361  
C    0.0000000    0.0000000    1.4700000  
C   -0.9207814   -0.7726952    2.1506477  
O   -1.8198395   -1.5274828    1.4542253  
C   -0.9436862   -0.7911793    3.5655508  
O   -1.9197945   -1.6098497    4.0950179  
C   -0.0590329   -0.0485852    4.3195194  
H    2.2150357    1.8593692    5.0905303  
H    2.1533708    1.7953814    0.8841339  
H   -2.3621246   -1.9821033    2.1118817  
H   -1.8668290   -1.5649508    5.0545920  
H   -0.1007624   -0.0827977    5.4019087  
H    3.3491200    2.8096064    2.8367138  
