60

C    4.0556880   -2.1233556   -5.8214139  
C    2.8111164   -1.6614427   -6.1821695  
C    2.9992130   -0.7748871   -7.2836407  
C    4.3912620   -0.7352435   -7.5529996  
N    5.0036851   -1.5637291   -6.6457135  
C    4.9414220    0.0401164   -8.5781472  
C    4.0704199    0.7888652   -9.3455514  
O    4.5542134    1.5635280  -10.3598756  
C    2.6783486    0.7627998   -9.0920247  
O    1.9434047    1.5627760   -9.9424590  
C    2.1349317   -0.0016716   -8.0806843  
H    1.8820834   -1.9295492   -5.7088731  
H    5.9900245   -1.7452293   -6.5991048  
H    6.0015021    0.0747838   -8.7884597  
H    3.7895725    1.9963421  -10.7614487  
H    1.0144609    1.4877655   -9.7036284  
H    4.3423067   -2.8066220   -5.0404173  
C   -0.2963294   -0.0005341   -4.3948471  
C    0.7278651   -0.0010062   -5.2865309  
C    0.1384644   -0.0010223   -6.6046515  
C   -1.3235472   -0.0004880   -6.4063792  
N   -1.5211839   -0.0006101   -5.0448251  
C   -2.2357329    0.0000549   -7.4111788  
C   -1.7448089   -0.0001089   -8.7792175  
O   -2.4864203    0.0002821   -9.7530304  
C   -0.2003571   -0.0009250   -9.0126110  
O    0.2247524   -0.0013763  -10.1600176  
C    0.6832434   -0.0011819   -7.8493819  
H    1.7765638   -0.0014911   -5.0481103  
H   -3.3039063    0.0005715   -7.2440972  
H   -2.4171880    0.0012260   -4.5929174  
C    3.1301143   -0.0010313   -1.7028257  
C    2.5367765   -0.0002767   -0.4864669  
C    1.1089900    0.0001027   -0.7656184  
C    1.0177864   -0.0004150   -2.2415133  
N    2.1993571   -0.0011613   -2.7963824  
C   -0.2459220   -0.0002879   -2.9257116  
C   -1.3675327   -0.0000606   -2.1698519  
O   -2.6129319    0.0000866   -2.6748482  
C   -1.3083588    0.0000910   -0.6783229  
O   -2.3693264    0.0004206   -0.0541685  
C    0.0000000    0.0000000    0.0000000  
H    3.0096014   -0.0001008    0.4807517  
H   -3.1967445    0.0002093   -1.8949025  
H    4.1849272   -0.0015113   -1.9271980  
C    2.5128556    2.1077716    2.9199648  
C    1.9592212    1.6432552    4.0696553  
C    0.8915788    0.7479214    3.6910360  
C    0.8684491    0.7287414    2.2159470  
N    1.8754542    1.5738793    1.8102719  
C    0.0000000    0.0000000    1.4700000  
C   -0.9772830   -0.8200135    2.1664417  
O   -1.8021297   -1.5120829    1.5842315  
C   -0.9711318   -0.8147624    3.7284083  
O   -1.7894187   -1.5009653    4.3257297  
C    0.0140216    0.0115358    4.4216297  
H    2.2638494    1.8988021    5.0689105  
H    0.0117648    0.0094386    5.5031631  
H    3.3327358    2.7953732    2.7900019  
H    2.1123206    1.7707734    0.8551938  
