66

C    6.4024574   -0.7153170    2.8138690  
C    6.4165672   -0.4672186    4.1669083  
C    7.4882796    0.4414892    4.4124318  
C    8.0972044    0.7148165    3.1608607  
N    7.4146752   -0.0050959    2.2119147  
C    9.1909482    1.5748780    3.0237246  
C    9.6786850    2.1700925    4.1708999  
O   10.7448397    3.0188682    4.0940432  
C    9.0848963    1.9096292    5.4288307  
O    9.6852238    2.5778859    6.4759141  
C    8.0060367    1.0610580    5.5649014  
H    5.7385919   -0.8901273    4.8883589  
H    9.6596467    1.7872334    2.0727100  
H   10.9208031    3.3185402    4.9954303  
H    9.2242859    2.3470656    7.2882340  
H    7.5723858    0.8807314    6.5415837  
H    5.7513445   -1.3438101    2.2307672  
C    4.7630507    0.0004755   -1.3275395  
C    5.7496390    0.0026233   -2.2862399  
C    6.9990004    0.0020557   -1.5979839  
C    6.7092700   -0.0007750   -0.2094690  
N    5.3425445    0.0002798   -0.0803284  
C    7.7059377   -0.0023575    0.7710613  
C    9.0190063   -0.0013654    0.3420783  
O   10.0316324   -0.0031790    1.2572829  
C    9.3281965    0.0018282   -1.0389389  
O   10.6818190    0.0028694   -1.3054853  
C    8.3454711    0.0036637   -2.0068098  
H    5.5886421    0.0054878   -3.3506952  
H    4.8418146   -0.0117445    0.7897904  
H   10.8555487   -0.0017710    0.7528769  
H   10.8038890    0.0050186   -2.2597903  
H    8.6128211    0.0062847   -3.0570458  
C    3.3003548    0.0005276   -1.4738982  
C    2.5232817    0.0003497   -2.6090743  
C    1.1623204   -0.0001319   -2.1820101  
C    1.1711886    0.0000583   -0.7636140  
N    2.4852302   -0.0014919   -0.3662356  
C    0.0000000    0.0000000    0.0000000  
C   -1.2020379    0.0000520   -0.6806479  
O   -2.3759249    0.0003495    0.0157742  
C   -1.2314652   -0.0005112   -2.0955511  
O   -2.5054384   -0.0008036   -2.6250184  
C   -0.0764510   -0.0007271   -2.8495195  
H    2.8919962   -0.0005619   -3.6205297  
H    2.8036267    0.0088181    0.5858667  
H   -3.0835636    0.0000348   -0.6418823  
H   -2.4360038   -0.0011526   -3.5845925  
H   -0.1304090   -0.0013420   -3.9319089  
C    0.8576279    0.7185626    2.2703808  
C    0.0000000    0.0000000    1.4700000  
C   -0.8668858   -0.7285659    2.3373528  
C   -0.4876752   -0.4117774    3.6669281  
N    0.5635254    0.4678311    3.5902241  
C   -1.1297612   -0.9515493    4.7854808  
C   -2.1738724   -1.8268314    4.5576857  
O   -2.8357962   -2.3827064    5.6140350  
C   -2.5667212   -2.1555554    3.2384331  
O   -3.6226318   -3.0413663    3.1773122  
C   -1.9335634   -1.6236449    2.1344818  
H    1.0363952    0.8769718    4.3757045  
H   -0.8454472   -0.7142436    5.8013813  
H   -3.5178062   -2.9546422    5.2385129  
H   -3.8247440   -3.2102924    2.2519915  
H   -2.2566033   -1.8942483    1.1360343  
H    1.6567807    1.3889844    2.0042067  
