62

C    4.7369761   -4.2878322   -8.9311172  
C    3.8085357   -3.4836781   -8.3116000  
C    4.0235759   -3.6054075   -6.9067729  
C    5.1057209   -4.5047630   -6.7277513  
N    5.5140847   -4.9017171   -7.9768646  
C    5.5929681   -4.8601677   -5.4663768  
C    4.9767652   -4.2971921   -4.3656815  
O    5.4127995   -4.6094638   -3.1105424  
C    3.8953787   -3.3980815   -4.5238614  
O    3.3883801   -2.9232550   -3.3318736  
C    3.4139983   -3.0472242   -5.7679268  
H    3.0667355   -2.8840527   -8.8107745  
H    6.2723184   -5.5318597   -8.1665526  
H    6.4172867   -5.5451496   -5.3231996  
H    4.8539279   -4.1155253   -2.4965776  
H    2.6622543   -2.3232597   -3.5277082  
H    4.9054173   -4.4731779   -9.9781290  
C    2.2882811   -2.1097764   -5.8897976  
C    1.6780079   -1.6459954   -7.0107565  
C    0.6303811   -0.7506080   -6.5799507  
C    0.6807202   -0.7305947   -5.1055499  
N    1.7068256   -1.5753508   -4.7500440  
C   -0.1496415   -0.0015615   -4.3176961  
C   -1.1605343    0.8179097   -4.9650739  
O   -1.9554939    1.5101850   -4.3429042  
C   -1.2321591    0.8117736   -6.5254061  
O   -2.0792941    1.4975145   -7.0816282  
C   -0.2825949   -0.0147693   -7.2663561  
H    1.9325518   -1.9020632   -8.0237969  
H   -0.3386982   -0.0132857   -8.3464368  
H    1.9909862   -1.7716675   -3.8078338  
C    3.3003543    0.0005276   -1.4738987  
C    2.5232814    0.0003497   -2.6090747  
C    1.1623200   -0.0001320   -2.1820103  
C    1.1711883    0.0000582   -0.7636140  
N    2.4852300   -0.0014919   -0.3662360  
C    0.0000000    0.0000000    0.0000000  
C   -1.2020384    0.0000519   -0.6806477  
O   -2.3759249    0.0003493    0.0157743  
C   -1.2314656   -0.0005115   -2.0955510  
O   -2.5054392   -0.0008039   -2.6250180  
C   -0.0764516   -0.0007274   -2.8495195  
H    2.8919955   -0.0005620   -3.6205304  
H    2.8036267    0.0088183    0.5858662  
H   -3.0835638    0.0000347   -0.6418818  
H   -2.4360047   -0.0011529   -3.5845921  
H    4.3715549    0.0004895   -1.3667136  
C    0.0000000    0.0000000    1.4700000  
C    1.0662921    0.0000102    2.3034270  
C    0.4961870   -0.0000064    3.6418889  
C   -0.9663858    0.0000850    3.4240247  
N   -1.2632773    0.0000084    2.1528658  
C   -1.8985362    0.0000517    4.5177257  
C   -1.3925775   -0.0004564    5.7720543  
O   -2.1456383   -0.0005410    6.8851312  
C    0.0786232   -0.0009323    6.0245000  
O    0.4683759   -0.0012588    7.1921102  
C    1.0143166   -0.0008442    4.8859032  
H    2.1107198   -0.0000632    2.0421868  
H   -2.9622183    0.0003270    4.3293377  
H   -1.5042274   -0.0009692    7.6184419  
H    2.0724152   -0.0013148    5.1109744  
