60

C    3.3907652   -5.4850261   -7.9006235  
C    2.7133957   -4.5241676   -7.1862087  
C    2.8561166   -3.2971587   -7.8994262  
C    3.6370074   -3.5734378   -9.0508629  
N    3.9464166   -4.9105689   -9.0198206  
C    3.9774766   -2.5923588   -9.9870000  
C    3.5210767   -1.3090616   -9.7567301  
O    3.8240957   -0.3127804  -10.6391237  
C    2.7410190   -1.0136142   -8.6134734  
O    2.3631917    0.3103283   -8.5253455  
C    2.4049833   -1.9809185   -7.6893901  
H    2.1827252   -4.6873068   -6.2638384  
H    4.4833908   -5.3982675   -9.7139308  
H    4.5724395   -2.7964522  -10.8665273  
H    3.4143137    0.4912665  -10.2943746  
H    1.8402228    0.4248101   -7.7259705  
H    3.5227089   -6.5343858   -7.6996419  
C    1.7704312   -2.0997831   -5.2515186  
C    1.5928585   -1.6333167   -6.5144327  
C    0.4607457   -0.7379007   -6.4771951  
C   -0.0100421   -0.7207976   -5.0790331  
N    0.8257127   -1.5670939   -4.3875226  
C   -1.0641734    0.0073898   -4.6315339  
C   -1.7831600    0.8289565   -5.5910244  
O   -2.7459474    1.5206789   -5.2862920  
C   -1.3021140    0.8259151   -7.0770897  
O   -1.8998117    1.5134385   -7.8939923  
C   -0.1528625    0.0000284   -7.4390071  
H    0.1740159    0.0036596   -8.4699583  
H    2.5118282   -2.7880436   -4.8793394  
H    0.7607705   -1.7654786   -3.4059561  
C    1.1319248    0.0015675   -0.8009270  
C    0.7969916    0.0034959   -2.1169404  
C   -0.6453336    0.0035703   -2.1842672  
C   -1.1266831    0.0015415   -0.7896027  
N    0.0000000    0.0000000    0.0000000  
C   -2.4346129    0.0013924   -0.4276297  
C   -3.4350110    0.0031352   -1.4820184  
O   -4.6384610    0.0030897   -1.2583919  
C   -2.9478958    0.0050460   -2.9661075  
O   -3.7809377    0.0062160   -3.8623775  
C   -1.5113821    0.0053068   -3.2312125  
H    1.4821240    0.0045436   -2.9459192  
H   -2.7664565    0.0000185    0.6013447  
H    2.1104318    0.0009428   -0.3488058  
C    0.0000000    0.0000000    1.4700000  
C    1.0662921    0.0000102    2.3034270  
C    0.4961870   -0.0000064    3.6418889  
C   -0.9663858    0.0000850    3.4240247  
N   -1.2632773    0.0000084    2.1528658  
C   -1.8985362    0.0000517    4.5177257  
C   -1.3925775   -0.0004564    5.7720543  
O   -2.1456383   -0.0005410    6.8851312  
C    0.0786232   -0.0009323    6.0245000  
O    0.4683759   -0.0012588    7.1921102  
C    1.0143166   -0.0008442    4.8859032  
H    2.1107198   -0.0000632    2.0421868  
H   -2.9622183    0.0003270    4.3293377  
H   -1.5042274   -0.0009692    7.6184419  
H    2.0724152   -0.0013148    5.1109744  
