62

C    0.6764065   -0.0038113   -7.8587883  
C   -0.4091781   -0.0000279   -7.0138272  
C   -1.5757062    0.0007476   -7.8346871  
C   -1.1357517   -0.0029872   -9.1831498  
N    0.2368971   -0.0037393   -9.1619304  
C   -2.0191176   -0.0036633  -10.2668716  
C   -3.3712474   -0.0008188   -9.9841774  
O   -4.2776253   -0.0016805  -11.0047135  
C   -3.8297219    0.0033008   -8.6452970  
O   -5.2043846    0.0061848   -8.5285033  
C   -2.9588291    0.0042434   -7.5756854  
H   -0.3656460    0.0030370   -5.9381466  
H    0.8298342   -0.0167406   -9.9720159  
H   -1.6901639   -0.0063588  -11.2969125  
H   -5.1517949    0.0009799  -10.5935124  
H   -5.4301642    0.0088567   -7.5932921  
H   -3.3395151    0.0076103   -6.5610201  
C    2.8699641   -0.0020527   -4.0185824  
C    4.1418710   -0.0047255   -4.5427132  
C    4.0070335   -0.0066637   -5.9627181  
C    2.6177780   -0.0047500   -6.2488846  
N    1.9559319   -0.0039174   -5.0461476  
C    2.1142956   -0.0055842   -7.5532205  
C    3.0299396   -0.0080944   -8.5875167  
O    2.5927428   -0.0086578   -9.8805252  
C    4.4200519   -0.0104068   -8.3221868  
O    5.2027699   -0.0131834   -9.4582708  
C    4.9174607   -0.0098587   -7.0356750  
H    5.0545873   -0.0063227   -3.9718019  
H    0.9584584    0.0080023   -4.9326303  
H    3.3831279   -0.0107907  -10.4360001  
H    6.1269496   -0.0145891   -9.1908870  
H    5.9874216   -0.0118572   -6.8634581  
C    3.2573673   -0.0002921   -1.5109381  
C    2.5379469   -0.0001710   -0.3591962  
C    1.1435042    0.0000332   -0.7338498  
C    1.1092607   -0.0000083   -2.2088474  
N    2.4227562    0.0001908   -2.6182610  
C   -0.0265532   -0.0002523   -2.9515663  
C   -1.3003033   -0.0002639   -2.2514979  
O   -2.3786784   -0.0004132   -2.8306425  
C   -1.2877726    0.0000312   -0.6895609  
O   -2.3539956    0.0003308   -0.0892035  
C    0.0000000    0.0000000    0.0000000  
H    2.9384091   -0.0000368    0.6389240  
H   -0.0296292   -0.0004086   -4.0327231  
H    4.3270395   -0.0004765   -1.6439444  
C    0.8400945    0.7047457    2.2710304  
C    0.0000000    0.0000000    1.4700000  
C   -0.8844236   -0.7423113    2.3369512  
C   -0.4878984   -0.4098547    3.7186280  
N    0.5629682    0.4714286    3.6095011  
C   -1.0836927   -0.9095027    4.8308716  
C   -2.1891196   -1.8367527    4.6554461  
O   -2.7906899   -2.3413415    5.5944904  
C   -2.6257283   -2.2031529    3.2011665  
O   -3.5549479   -2.9829990    3.0410059  
C   -1.9068976   -1.5999348    2.0816745  
H   -0.7774656   -0.6525820    5.8354244  
H   -2.2155208   -1.8586617    1.0779135  
H    1.6384792    1.3747609    1.9961646  
H    1.0518368    0.8833920    4.3830260  
