64

C   -0.1387076    0.0017018   -4.3179686  
C    0.8680296    0.0011951   -5.2554906  
C    0.2429724    0.0018229   -6.5376383  
C   -1.1582723    0.0029974   -6.3175529  
N   -1.3554486    0.0009410   -4.9589754  
C   -2.0878498    0.0041701   -7.3619061  
C   -1.5938800    0.0044639   -8.6519332  
O   -2.4574174    0.0059472   -9.7089646  
C   -0.1991523    0.0029311   -8.8918277  
O    0.1346067    0.0030288  -10.2304648  
C    0.7184772    0.0015004   -7.8620321  
H    1.9231280   -0.0006420   -5.0415805  
H   -2.2494816    0.0117256   -4.5022806  
H   -3.1570786    0.0049246   -7.2008123  
H   -1.9125260    0.0055956  -10.5066853  
H    1.0938159    0.0019687  -10.3047652  
H    1.7807477    0.0001625   -8.0766449  
C    3.3041273    0.0001177   -1.5420426  
C    2.5845371   -0.0004780   -0.3695849  
C    1.2040008   -0.0000008   -0.7283588  
C    1.1422377    0.0006037   -2.1454371  
N    2.4348643    0.0026111   -2.6077461  
C   -0.0655176    0.0008798   -2.8497919  
C   -1.2321767    0.0002324   -2.1101405  
O   -2.4392813    0.0001147   -2.7472523  
C   -1.1911212   -0.0000007   -0.6955267  
O   -2.4371528   -0.0002320   -0.1032865  
C    0.0000000    0.0000000    0.0000000  
H    3.0031533   -0.0000661    0.6222586  
H    2.7054634   -0.0071098   -3.5745257  
H   -3.1132980   -0.0000650   -2.0551791  
H   -2.3200288   -0.0004072    0.8516407  
C    5.7183465    0.0006288   -0.7610753  
C    6.9697740    0.0034041   -1.2883291  
C    6.8214694    0.0056204   -2.7245869  
C    5.3706574    0.0039258   -2.9927877  
N    4.7577221    0.0005130   -1.7610455  
C    4.8178661    0.0056054   -4.2321921  
C    5.7114464    0.0091048   -5.3785065  
O    5.3110237    0.0107715   -6.5352087  
C    7.2515439    0.0106971   -5.1179274  
O    8.0137041    0.0133346   -6.0751974  
C    7.7277050    0.0089138   -3.7369420  
H    7.8915742    0.0036656   -0.7343448  
H    3.7509368    0.0044437   -4.4070361  
H    8.7954988    0.0102386   -3.5650746  
H    5.4170511   -0.0015584    0.2738671  
C    0.8676693    0.7151171    2.2619005  
C    0.5875920    0.4624972    3.5848544  
C   -0.5048400   -0.4542819    3.6114698  
C   -0.8517165   -0.7276451    2.2635546  
N    0.0000000    0.0000000    1.4700000  
C   -1.8902865   -1.5946756    1.9108239  
C   -2.5912627   -2.1969500    2.9375057  
O   -3.6148162   -3.0527051    2.6493466  
C   -2.2603868   -1.9365747    4.2886322  
O   -3.0513550   -2.6123276    5.1947621  
C   -1.2361111   -1.0811317    4.6373480  
H    1.1060808    0.8876438    4.4271209  
H   -2.1597133   -1.8070987    0.8854031  
H   -3.9636755   -3.3565188    3.4974381  
H   -2.7621927   -2.3810384    6.0827341  
H   -1.0058879   -0.9010589    5.6809233  
H    1.6167816    1.3499334    1.8205408  
