62

C    6.6020620   -0.0045256   -5.8622217  
C    5.2941329   -0.0035130   -6.2885883  
C    5.3211100   -0.0043440   -7.7147268  
C    6.6847235   -0.0061584   -8.1052147  
N    7.4357005   -0.0042709   -6.9560207  
C    7.0880421   -0.0076847   -9.4439158  
C    6.0967429   -0.0076808  -10.4059457  
O    6.4348240   -0.0094874  -11.7283353  
C    4.7306989   -0.0055099  -10.0361693  
O    3.8642393   -0.0053787  -11.1097591  
C    4.3320854   -0.0037301   -8.7157040  
H    4.4272429   -0.0012166   -5.6502395  
H    8.4389117   -0.0154825   -6.9183004  
H    8.1256743   -0.0089270   -9.7480872  
H    5.6046638   -0.0088447  -12.2223985  
H    2.9629466   -0.0038854  -10.7731985  
H    3.2782269   -0.0019044   -8.4630051  
C    4.5679461   -0.0016854   -2.0086701  
C    5.6049852   -0.0016933   -1.1391134  
C    6.7955419   -0.0024718   -1.9752198  
C    6.2781452   -0.0029783   -3.3604579  
N    4.9730333   -0.0024399   -3.3863781  
C    7.1539712   -0.0037582   -4.4997625  
C    8.4861197   -0.0036311   -4.2658492  
O    9.4181585   -0.0043056   -5.2340147  
C    9.0391356   -0.0027525   -2.8793670  
O   10.2622856   -0.0028092   -2.7410739  
C    8.1201340   -0.0020063   -1.7272560  
H    5.5667630   -0.0011378   -0.0631886  
H   10.2688725   -0.0039792   -4.7592114  
H    8.5604255   -0.0012654   -0.7391402  
C    3.1301149   -0.0010311   -1.7028252  
C    2.5367768   -0.0002767   -0.4864665  
C    1.1089904    0.0001028   -0.7656183  
C    1.0177872   -0.0004148   -2.2415132  
N    2.1993578   -0.0011611   -2.7963820  
C   -0.2459209   -0.0002877   -2.9257118  
C   -1.3675319   -0.0000605   -2.1698524  
O   -2.6129313    0.0000867   -2.6748490  
C   -1.3083584    0.0000910   -0.6783232  
O   -2.3693261    0.0004206   -0.0541692  
C    0.0000000    0.0000000    0.0000000  
H    3.0096017   -0.0001007    0.4807525  
H   -0.2829630   -0.0004687   -4.0053125  
H   -3.1967441    0.0002094   -1.8949034  
C    2.5285572    2.1210227    2.9438989  
C    1.9331703    1.6216660    4.0790748  
C    0.8903039    0.7472258    3.6520102  
C    0.8972198    0.7527806    2.2336141  
N    1.9028376    1.5986179    1.8362361  
C    0.0000000    0.0000000    1.4700000  
C   -0.9207814   -0.7726952    2.1506477  
O   -1.8198395   -1.5274828    1.4542253  
C   -0.9436862   -0.7911793    3.5655508  
O   -1.9197945   -1.6098497    4.0950179  
C   -0.0590329   -0.0485852    4.3195194  
H    2.2150357    1.8593692    5.0905303  
H    2.1533708    1.7953814    0.8841339  
H   -2.3621246   -1.9821033    2.1118817  
H   -1.8668290   -1.5649508    5.0545920  
H   -0.1007624   -0.0827977    5.4019087  
H    3.3491200    2.8096064    2.8367138  
