66

C    3.8878171   -0.7221148   -4.5427236  
C    3.9719337   -0.4862747   -5.8954138  
C    2.9171614    0.4147688   -6.2273415  
C    2.2168612    0.6962704   -5.0263989  
N    2.8310664   -0.0116219   -4.0232752  
C    1.1122536    1.5520021   -4.9778752  
C    0.7074032    2.1344024   -6.1632379  
O   -0.3652170    2.9784456   -6.1726998  
C    1.3930197    1.8656306   -7.3717527  
O    0.8682192    2.5214017   -8.4662354  
C    2.4826540    1.0213229   -7.4204129  
H    4.7028569   -0.9122317   -6.5612259  
H    0.5741181    1.7705381   -4.0658152  
H   -0.4758800    3.2691039   -7.0873239  
H    1.3885192    2.2856102   -9.2403773  
H    4.4971337   -1.3420430   -3.9076007  
C    3.3041274    0.0001177   -1.5420430  
C    2.5845373   -0.0004778   -0.3695855  
C    1.2040006   -0.0000008   -0.7283592  
C    1.1422375    0.0006035   -2.1454376  
N    2.4348638    0.0026109   -2.6077464  
C   -0.0655181    0.0008796   -2.8497921  
C   -1.2321767    0.0002321   -2.1101403  
O   -2.4392814    0.0001145   -2.7472524  
C   -1.1911210   -0.0000008   -0.6955263  
O   -2.4371527   -0.0002321   -0.1032858  
C    0.0000000    0.0000000    0.0000000  
H    3.0031536   -0.0000661    0.6222578  
H   -0.1193548    0.0014841   -3.9297472  
H   -3.1132988   -0.0000651   -2.0551785  
H   -2.3200279   -0.0004072    0.8516404  
H    4.3686625    0.0004071   -1.7024291  
C    3.6593097   -0.4505773   -9.1025036  
C    4.2492974   -0.3126822  -10.3375602  
C    4.1170621    1.0574534  -10.7115157  
C    3.4323379    1.7127020   -9.6561819  
N    3.1675459    0.7677847   -8.6961645  
C    3.1277264    3.0769612   -9.6844033  
C    3.5217815    3.7928541  -10.7981340  
O    3.2500489    5.1281076  -10.8773429  
C    4.2056158    3.1568460  -11.8614692  
O    4.5303466    4.0051943  -12.8998330  
C    4.5062160    1.8109506  -11.8344245  
H    4.7164327   -1.1026943  -10.9002852  
H    2.6059772    3.5822680   -8.8833752  
H    3.6057163    5.4294012  -11.7235039  
H    4.9892683    3.4969738  -13.5756337  
H    5.0308985    1.3514214  -12.6638940  
H    3.5491127   -1.3219120   -8.4799344  
C    2.5285572    2.1210227    2.9438989  
C    1.9331703    1.6216660    4.0790748  
C    0.8903039    0.7472258    3.6520102  
C    0.8972198    0.7527806    2.2336141  
N    1.9028376    1.5986179    1.8362361  
C    0.0000000    0.0000000    1.4700000  
C   -0.9207814   -0.7726952    2.1506477  
O   -1.8198395   -1.5274828    1.4542253  
C   -0.9436862   -0.7911793    3.5655508  
O   -1.9197945   -1.6098497    4.0950179  
C   -0.0590329   -0.0485852    4.3195194  
H    2.2150357    1.8593692    5.0905303  
H    2.1533708    1.7953814    0.8841339  
H   -2.3621246   -1.9821033    2.1118817  
H   -1.8668290   -1.5649508    5.0545920  
H   -0.1007624   -0.0827977    5.4019087  
H    3.3491200    2.8096064    2.8367138  
