62

C    4.6584895    0.5321636   -8.4758816  
C    5.7379127   -0.3180474   -8.4091414  
C    6.3365874   -0.3332799   -9.7037292  
C    5.5727083    0.5342802  -10.5257717  
N    4.5604295    1.0415999   -9.7495404  
C    5.8762674    0.7631759  -11.8712263  
C    6.9710785    0.1045071  -12.3963197  
O    7.3124224    0.2921235  -13.7044854  
C    7.7453676   -0.7653681  -11.5921989  
O    8.8028521   -1.3465998  -12.2609608  
C    7.4463227   -0.9918622  -10.2648721  
H    6.0541824   -0.8613798   -7.5352099  
H    3.8637071    1.6949968  -10.0587839  
H    5.2979592    1.4230699  -12.5031303  
H    8.0941634   -0.2527161  -13.8635322  
H    9.2736445   -1.9184214  -11.6469744  
H    8.0576570   -1.6638162   -9.6739185  
C    4.3834955   -0.6859721   -4.3011939  
C    3.2973506   -0.0000934   -3.8752374  
C    2.8440570    0.7452246   -5.0395081  
C    3.7976373    0.3812809   -6.1094679  
N    4.7022574   -0.4574405   -5.6826204  
C    3.6909715    0.9175298   -7.4384318  
C    2.6775113    1.7779345   -7.6873018  
O    2.4582894    2.3541659   -8.8814289  
C    1.6987825    2.1644850   -6.6286091  
O    0.8014167    2.9528431   -6.9260084  
C    1.8294969    1.6008466   -5.2731937  
H    1.6702325    2.9110075   -8.7470884  
H    1.1002947    1.9058791   -4.5346480  
H    5.0085215   -1.3581664   -3.7350923  
C    3.3321174    0.0004714   -1.3379332  
C    2.6974186    0.0000115   -2.5332308  
C    1.2800441   -0.0002119   -2.2052838  
C    1.2395035    0.0000643   -0.7271293  
N    2.4394063    0.0005458   -0.2131034  
C    0.0000000    0.0000000    0.0000000  
C   -1.1468701    0.0000634   -0.7169542  
O   -2.3742201    0.0000072   -0.1695492  
C   -1.1388767    0.0001606   -2.2096354  
O   -2.2206229    0.0000903   -2.7970413  
C    0.1454526    0.0001815   -2.9324239  
H   -2.9844344    0.0001023   -0.9290168  
H    0.1083580    0.0003680   -4.0135594  
H    4.3940040    0.0007617   -1.1498630  
C    0.0000000    0.0000000    1.4700000  
C    1.0521667    0.0011902    2.3562342  
C    0.4917218    0.0011957    3.6679131  
C   -0.9187428   -0.0003148    3.5178682  
N   -1.1833171    0.0009411    2.1707914  
C   -1.7951701   -0.0010350    4.6072090  
C   -1.2375837   -0.0005224    5.8710424  
O   -2.0474215   -0.0015360    6.9697579  
C    0.1673580    0.0013566    6.0411963  
O    0.5673524    0.0020687    7.3615553  
C    1.0325770    0.0023412    4.9669890  
H    2.0953057    0.0030649    2.0900562  
H   -2.0989778   -0.0102372    1.7591824  
H   -2.8710934   -0.0020419    4.4995513  
H   -1.4634884   -0.0006497    7.7393593  
H    1.5290710    0.0033153    7.3880045  
H    2.1042148    0.0039609    5.1284455  
