64

C    0.6936364   -0.7066092   -5.1527423  
C    0.3462075   -0.4553039   -6.4598788  
C   -0.7528349    0.4534785   -6.4312305  
C   -1.0341488    0.7235441   -5.0674660  
N   -0.1387078    0.0017020   -4.3179686  
C   -2.0601483    1.5827608   -4.6626688  
C   -2.8157353    2.1804681   -5.6526245  
O   -3.8298699    3.0285554   -5.3130769  
C   -2.5506562    1.9232747   -7.0187873  
O   -3.3906535    2.5937332   -7.8837924  
C   -1.5388172    1.0755385   -7.4188523  
H    0.8251967   -0.8761773   -7.3273058  
H   -2.2797241    1.7926347   -3.6249113  
H   -4.2227235    3.3302846   -6.1424690  
H   -3.1443863    2.3650610   -8.7852723  
H    1.4683925   -1.3361781   -4.7498095  
C    3.3041276    0.0001172   -1.5420425  
C    2.5845373   -0.0004780   -0.3695850  
C    1.2040005   -0.0000006   -0.7283594  
C    1.1422376    0.0006036   -2.1454376  
N    2.4348643    0.0026109   -2.6077465  
C   -0.0655178    0.0008799   -2.8497917  
C   -1.2321765    0.0002326   -2.1101405  
O   -2.4392812    0.0001152   -2.7472524  
C   -1.1911209   -0.0000006   -0.6955270  
O   -2.4371527   -0.0002315   -0.1032863  
C    0.0000000    0.0000000    0.0000000  
H    3.0031535   -0.0000663    0.6222585  
H    2.7054635   -0.0071100   -3.5745262  
H   -3.1132985   -0.0000644   -2.0551792  
H   -2.3200282   -0.0004068    0.8516404  
H    4.3686626    0.0004069   -1.7024289  
C   -0.9752704   -0.3788541   -9.4122521  
C   -1.2956341    0.8343652   -8.8483966  
C   -1.3407013    1.7873805   -9.9087410  
C   -1.0370475    1.0915866  -11.1069028  
N   -0.8186320   -0.2210517  -10.7694225  
C   -0.9915757    1.7194584  -12.3553012  
C   -1.2577833    3.0743538  -12.3949238  
O   -1.2272795    3.7370574  -13.5877810  
C   -1.5623939    3.7860506  -11.2102233  
O   -1.8032053    5.1289813  -11.4148985  
C   -1.6071642    3.1673398   -9.9782660  
H   -0.5933039   -0.9564265  -11.4147383  
H   -0.7606272    1.1948197  -13.2721544  
H   -1.4385424    4.6594255  -13.3931800  
H   -2.0008397    5.5354405  -10.5655840  
H   -1.8431703    3.7386240   -9.0880897  
H   -0.8447058   -1.3439809   -8.9535124  
C    2.3971438    2.0127888    3.1728260  
C    1.9431056    1.6308205    1.9564670  
C    0.8496017    0.7127664    2.2356185  
C    0.7794028    0.6545384    3.7115134  
N    1.6840587    1.4146091    4.2663826  
C   -0.1885723   -0.1578550    4.3957118  
C   -1.0476298   -0.8789867    3.6398520  
O   -2.0015663   -1.6796266    4.1448486  
C   -1.0022026   -0.8410666    2.1483229  
O   -1.8147390   -1.5232959    1.5241687  
C    0.0000000    0.0000000    1.4700000  
H    2.3054237    1.9346118    0.9892483  
H   -0.2170646   -0.1815267    5.4753125  
H   -2.4487139   -2.0549881    3.3649027  
H    3.2048689    2.6911772    3.3971983  
