62

C   -5.7310064    0.7133095    0.7235998  
C   -6.0449608    0.4634853    2.0394604  
C   -7.1458317   -0.4435335    2.0398822  
C   -7.4627084   -0.7140998    0.6840393  
N   -6.5857682    0.0057633   -0.0888713  
C   -8.5001965   -1.5719356    0.3065148  
C   -9.2309196   -2.1677224    1.3160993  
O  -10.2548441   -3.0144021    1.0034880  
C   -8.9302313   -1.9100000    2.6747689  
O   -9.7486795   -2.5784885    3.5616780  
C   -7.9070393   -1.0636253    3.0479367  
H   -5.5430536    0.8841902    2.8939132  
H   -8.7468394   -1.7821818   -0.7250692  
H  -10.6266277   -3.3149118    1.8429733  
H   -9.4788442   -2.3495832    4.4563263  
H   -7.7003102   -0.8853755    4.0967301  
H   -4.9659085    1.3413384    0.3003236  
C   -3.2578655    0.0024039   -2.9908504  
C   -4.0046937    0.0033122   -1.8566891  
C   -5.3897514    0.0044620   -2.2646697  
C   -5.3886199    0.0041178   -3.7400641  
N   -4.0656859    0.0032563   -4.1178667  
C   -6.5062991    0.0045469   -4.5098026  
C   -7.7964683    0.0056310   -3.8404768  
O   -8.8606469    0.0061488   -4.4453109  
C   -7.8213912    0.0062644   -2.2786881  
O   -8.9017017    0.0074845   -1.7040685  
C   -6.5505227    0.0054362   -1.5584488  
H   -3.6282784    0.0033729   -0.8492543  
H   -6.4834513    0.0041523   -5.5907229  
H   -3.7375608    0.0012868   -5.0662218  
C    0.0000000    0.0000000    0.0000000  
C    1.0521667   -0.0011902   -0.8862342  
C    0.4917216   -0.0011957   -2.1979129  
C   -0.9187429    0.0003148   -2.0478680  
N   -1.1833171   -0.0009412   -0.7007912  
C   -1.7951702    0.0010350   -3.1372088  
C   -1.2375841    0.0005225   -4.4010424  
O   -2.0474217    0.0015360   -5.4997576  
C    0.1673577   -0.0013567   -4.5711964  
O    0.5673522   -0.0020688   -5.8915554  
C    1.0325769   -0.0023413   -3.4969890  
H    2.0953057   -0.0030649   -0.6200562  
H   -2.0989779    0.0102372   -0.2891821  
H   -1.4634887    0.0006498   -6.2693588  
H    1.5290708   -0.0033153   -5.9180049  
H    2.1042148   -0.0039610   -3.6584453  
C    1.0672568    0.0000697    2.3021913  
C    0.0000000    0.0000000    1.4700000  
C   -1.1601224    0.0000736    2.3478473  
C   -0.5938729    0.0000769    3.7138435  
N    0.7113367    0.0001554    3.6934124  
C   -1.4286986    0.0001879    4.8835240  
C   -2.7683114    0.0006799    4.6970523  
O   -3.6653903    0.0008304    5.6976972  
C   -3.3702025    0.0010610    3.3310774  
O   -4.5974910    0.0013779    3.2362962  
C   -2.4926826    0.0008943    2.1470656  
H   -0.9878360   -0.0000190    5.8697035  
H   -4.5324246    0.0012261    5.2533954  
H   -2.9677772    0.0012974    1.1752040  
H    2.1134392    0.0000545    2.0405121  
