62

C    7.1003450    0.0002878   -6.1188200  
C    7.6402609    0.0002062   -4.8535308  
C    9.0584803   -0.0001511   -5.0060220  
C    9.3273384    0.0000123   -6.3987315  
N    8.1164617   -0.0016730   -7.0455632  
C   10.6253111    0.0000535   -6.9184021  
C   11.6709194    0.0002348   -6.0156945  
O   12.9583894    0.0006335   -6.4689440  
C   11.4229061   -0.0002995   -4.6223871  
O   12.5686423   -0.0004585   -3.8538613  
C   10.1426832   -0.0006138   -4.1090115  
H    7.0807507   -0.0007226   -3.9337807  
H    7.9905297    0.0085887   -8.0415636  
H   10.8369027    0.0000337   -7.9787943  
H   13.5236560    0.0003996   -5.6855292  
H   12.3127784   -0.0007966   -2.9264254  
H    9.9837929   -0.0012035   -3.0369893  
C    3.2973507   -0.0000930   -3.8752373  
C    4.6090968    0.0000006   -4.2265165  
C    4.6584754   -0.0001364   -5.6695681  
C    3.2579291   -0.0002895   -6.1335296  
N    2.4824026   -0.0006539   -4.9971104  
C    2.8797130   -0.0000494   -7.4368552  
C    3.9215758    0.0001630   -8.4502927  
O    3.6829953    0.0003254   -9.6508675  
C    5.4116114    0.0000758   -7.9816782  
O    6.2974493   -0.0000536   -8.8258056  
C    5.6945670    0.0000911   -6.5485738  
H    5.4465356   -0.0000337   -3.5517502  
H    1.8466888   -0.0000377   -7.7558720  
H    1.4789639    0.0007241   -4.9846265  
C    3.3321175    0.0004715   -1.3379331  
C    2.6974186    0.0000117   -2.5332308  
C    1.2800441   -0.0002117   -2.2052838  
C    1.2395036    0.0000644   -0.7271292  
N    2.4394065    0.0005460   -0.2131033  
C    0.0000000    0.0000000    0.0000000  
C   -1.1468701    0.0000635   -0.7169542  
O   -2.3742199    0.0000073   -0.1695491  
C   -1.1388766    0.0001607   -2.2096354  
O   -2.2206227    0.0000905   -2.7970412  
C    0.1454526    0.0001817   -2.9324239  
H   -2.9844344    0.0001026   -0.9290168  
H    0.1083579    0.0003683   -4.0135594  
H    4.3940038    0.0007619   -1.1498630  
C    0.8676693    0.7151171    2.2619005  
C    0.5875920    0.4624972    3.5848544  
C   -0.5048400   -0.4542819    3.6114698  
C   -0.8517165   -0.7276451    2.2635546  
N    0.0000000    0.0000000    1.4700000  
C   -1.8902865   -1.5946756    1.9108239  
C   -2.5912627   -2.1969500    2.9375057  
O   -3.6148162   -3.0527051    2.6493466  
C   -2.2603868   -1.9365747    4.2886322  
O   -3.0513550   -2.6123276    5.1947621  
C   -1.2361111   -1.0811317    4.6373480  
H    1.1060808    0.8876438    4.4271209  
H   -2.1597133   -1.8070987    0.8854031  
H   -3.9636755   -3.3565188    3.4974381  
H   -2.7621927   -2.3810384    6.0827341  
H   -1.0058879   -0.9010589    5.6809233  
H    1.6167816    1.3499334    1.8205408  
