66

C    4.6027284   -2.0944968   -2.9150973  
C    3.4411565   -1.6373420   -2.3369735  
C    2.8377886   -0.7405118   -3.2676953  
C    3.6836207   -0.6899843   -4.4052108  
N    4.7469282   -1.5221609   -4.1572675  
C    3.3988813    0.0972714   -5.5250056  
C    2.2389987    0.8469468   -5.4960815  
O    1.9125736    1.6330028   -6.5631221  
C    1.3824833    0.8101280   -4.3700960  
O    0.2670645    1.6125636   -4.4937160  
C    1.6628945    0.0339172   -3.2649299  
H    3.0744456   -1.9151390   -1.3636567  
H    4.0395082    0.1402698   -6.3950344  
H    1.0776865    2.0643813   -6.3391998  
H   -0.2575671    1.5298016   -3.6915214  
H    5.3404960   -2.7824368   -2.5390701  
C    6.9909494   -5.2431972   -5.2098433  
C    6.1112510   -4.3425063   -4.6554503  
C    6.3971300   -3.0707861   -5.2347613  
C    7.4698941   -3.2590369   -6.1434241  
N    7.8075276   -4.5890509   -6.1023915  
C    8.0152226   -2.2148611   -6.8964854  
C    7.4674271   -0.9578040   -6.7294365  
O    7.9616360    0.0974399   -7.4402317  
C    6.3969840   -0.7498994   -5.8273582  
O    5.9617651    0.5581529   -5.7732521  
C    5.8586846   -1.7794897   -5.0839183  
H    5.3570779   -4.5734401   -3.9227248  
H    8.5295517   -5.0216711   -6.6496587  
H    8.8329392   -2.3517589   -7.5906039  
H    7.4450528    0.8700655   -7.1766867  
H    5.2382357    0.6120703   -5.1414286  
H    7.1014675   -6.3002063   -5.0381506  
C    1.1243410    0.0100105   -0.7919003  
C    0.7474072    0.0234665   -2.1148542  
C   -0.6787384    0.0234379   -2.1414698  
C   -1.1201748    0.0098411   -0.7935547  
N    0.0000000    0.0000000    0.0000000  
C   -2.4730818    0.0063307   -0.4408240  
C   -3.3971962    0.0170429   -1.4675058  
O   -4.7313520    0.0145490   -1.1793468  
C   -2.9763654    0.0303020   -2.8186325  
O   -4.0166484    0.0394464   -3.7247625  
C   -1.6418567    0.0334992   -3.1673480  
H   -2.8160166   -0.0041569    0.5845966  
H   -5.1938823    0.0230023   -2.0274386  
H   -3.6464680    0.0481700   -4.6127343  
H   -1.3497475    0.0435647   -4.2109234  
H    2.1062466    0.0053162   -0.3505405  
C    0.8676693    0.7151171    2.2619005  
C    0.5875920    0.4624972    3.5848544  
C   -0.5048400   -0.4542819    3.6114698  
C   -0.8517165   -0.7276451    2.2635546  
N    0.0000000    0.0000000    1.4700000  
C   -1.8902865   -1.5946756    1.9108239  
C   -2.5912627   -2.1969500    2.9375057  
O   -3.6148162   -3.0527051    2.6493466  
C   -2.2603868   -1.9365747    4.2886322  
O   -3.0513550   -2.6123276    5.1947621  
C   -1.2361111   -1.0811317    4.6373480  
H    1.1060808    0.8876438    4.4271209  
H   -2.1597133   -1.8070987    0.8854031  
H   -3.9636755   -3.3565188    3.4974381  
H   -2.7621927   -2.3810384    6.0827341  
H   -1.0058879   -0.9010589    5.6809233  
H    1.6167816    1.3499334    1.8205408  
