62

C    9.1246828    0.0025453   -0.7091159  
C   10.1339735    0.0043432   -1.6438866  
C   11.3664741    0.0047367   -0.9258732  
C   11.0435340    0.0028259    0.4552976  
N    9.6741058    0.0034805    0.5516311  
C   12.0164061    0.0023289    1.4594435  
C   13.3393835    0.0034804    1.0620662  
O   14.3297747    0.0027097    2.0012882  
C   13.6815961    0.0057664   -0.3111426  
O   15.0412196    0.0071019   -0.5451576  
C   12.7223588    0.0065312   -1.3022986  
H    9.9985437    0.0063634   -2.7118982  
H    9.1526619   -0.0080831    1.4095025  
H   11.7768109    0.0010193    2.5138604  
H   15.1655481    0.0040440    1.5167811  
H   15.1861363    0.0085912   -1.4962626  
H   13.0148125    0.0084740   -2.3458241  
C    6.6317365    0.0027575   -4.3241616  
C    5.4016570    0.0020952   -3.7488541  
C    5.6054515    0.0015082   -2.3194126  
C    7.0655605    0.0019147   -2.1075800  
N    7.6303538    0.0022711   -3.3621311  
C    7.6659168    0.0019587   -0.8905030  
C    6.8173813    0.0013543    0.2895487  
O    7.2622824    0.0012813    1.4298837  
C    5.2683493    0.0006643    0.0887880  
O    4.5438183   -0.0001546    1.0748485  
C    4.7390840    0.0009613   -1.2727298  
H    4.4591015    0.0018434   -4.2667371  
H    6.8927419    0.0033432   -5.3699943  
H    8.6161382    0.0041517   -3.5499387  
C    3.2798077    0.0005856   -1.4499661  
C    2.5571132    0.0005565   -2.5996564  
C    1.1637425    0.0001547   -2.2210366  
C    1.1336959   -0.0000200   -0.7459475  
N    2.4483509   -0.0001429   -0.3402730  
C    0.0000000    0.0000000    0.0000000  
C   -1.2757370   -0.0000187   -0.6964411  
O   -2.3524597   -0.0000640   -0.1142306  
C   -1.2676502   -0.0000874   -2.2584078  
O   -2.3355774   -0.0004102   -2.8557287  
C    0.0181551    0.0001758   -2.9516297  
H    2.9547342    0.0006074   -3.5989118  
H    0.0150776    0.0003317   -4.0331632  
H    2.7563626    0.0012823    0.6148051  
C    2.5311839    2.1237619    3.0120429  
C    1.9795631    1.6616747    1.8395852  
C    0.9223175    0.7739173    2.1983588  
C    0.8753926    0.7337535    3.6154372  
N    1.8668922    1.5631002    4.0777464  
C   -0.0496243   -0.0427881    4.3197917  
C   -0.9437528   -0.7922060    3.5801400  
O   -1.8685244   -1.5680278    4.2172520  
C   -0.9124520   -0.7656372    2.1655264  
O   -1.8671164   -1.5663939    1.5732860  
C    0.0000000    0.0000000    1.4700000  
H    2.3005065    1.9304404    0.8477417  
H    2.0679347    1.7444845    5.0445261  
H   -0.0904770   -0.0778569    5.3997470  
H   -2.3849669   -2.0011402    3.5251786  
H   -1.7775064   -1.4909735    0.6183591  
H    3.3468514    2.8078103    3.1724291  
