62

C    2.5599431    0.0010153   -8.0291811  
C    3.5718899    0.0005235   -7.0972852  
C    4.8023421    0.0000659   -7.8188021  
C    4.4754742    0.0005935   -9.1990489  
N    3.1057771   -0.0007876   -9.2914853  
C    5.4454848    0.0006498  -10.2059601  
C    6.7695871    0.0004717   -9.8123475  
O    7.7573018    0.0008678  -10.7543845  
C    7.1157056   -0.0004292   -8.4401168  
O    8.4759912   -0.0009200   -8.2099704  
C    6.1592936   -0.0007585   -7.4462353  
H    3.4395007   -0.0006074   -6.0288917  
H    2.5818890    0.0097668  -10.1478794  
H    5.2028902    0.0009067  -11.2596918  
H    8.5944503    0.0003566  -10.2722567  
H    8.6236130   -0.0014930   -7.2592805  
H    6.4547159   -0.0016336   -6.4035450  
C    0.0139742    0.0003878   -4.4216236  
C    1.0657034    0.0004478   -5.2806583  
C    0.5180456    0.0007114   -6.6166624  
C   -0.9494782    0.0008301   -6.4644642  
N   -1.1898343    0.0002247   -5.1097987  
C   -1.8296145    0.0014749   -7.4974525  
C   -1.2959120    0.0018669   -8.8493753  
O   -2.0065325    0.0023909   -9.8460291  
C    0.2551159    0.0014976   -9.0340855  
O    0.7160980    0.0015159  -10.1675560  
C    1.1016988    0.0010813   -7.8436448  
H    2.1063859    0.0001392   -5.0093769  
H   -2.9025137    0.0016806   -7.3640447  
H   -2.0996068    0.0017004   -4.6862910  
C    3.2798085    0.0005856   -1.4499646  
C    2.5571146    0.0005565   -2.5996553  
C    1.1637435    0.0001548   -2.2210360  
C    1.1336964   -0.0000200   -0.7459470  
N    2.4483515   -0.0001429   -0.3402716  
C    0.0000000    0.0000000    0.0000000  
C   -1.2757368   -0.0000187   -0.6964415  
O   -2.3524594   -0.0000640   -0.1142314  
C   -1.2676495   -0.0000873   -2.2584081  
O   -2.3355761   -0.0004101   -2.8557295  
C    0.0181563    0.0001759   -2.9516296  
H    2.9547358    0.0006075   -3.5989104  
H    4.3498547    0.0008611   -1.3200019  
H    2.7563628    0.0012823    0.6148064  
C    2.5311839    2.1237619    3.0120429  
C    1.9795631    1.6616747    1.8395852  
C    0.9223175    0.7739173    2.1983588  
C    0.8753926    0.7337535    3.6154372  
N    1.8668922    1.5631002    4.0777464  
C   -0.0496243   -0.0427881    4.3197917  
C   -0.9437528   -0.7922060    3.5801400  
O   -1.8685244   -1.5680278    4.2172520  
C   -0.9124520   -0.7656372    2.1655264  
O   -1.8671164   -1.5663939    1.5732860  
C    0.0000000    0.0000000    1.4700000  
H    2.3005065    1.9304404    0.8477417  
H    2.0679347    1.7444845    5.0445261  
H   -0.0904770   -0.0778569    5.3997470  
H   -2.3849669   -2.0011402    3.5251786  
H   -1.7775064   -1.4909735    0.6183591  
H    3.3468514    2.8078103    3.1724291  
