64

C   -0.1387076    0.0017018   -4.3179686  
C    0.8680296    0.0011951   -5.2554906  
C    0.2429724    0.0018229   -6.5376383  
C   -1.1582723    0.0029974   -6.3175529  
N   -1.3554486    0.0009410   -4.9589754  
C   -2.0878498    0.0041701   -7.3619061  
C   -1.5938800    0.0044639   -8.6519332  
O   -2.4574174    0.0059472   -9.7089646  
C   -0.1991523    0.0029311   -8.8918277  
O    0.1346067    0.0030288  -10.2304648  
C    0.7184772    0.0015004   -7.8620321  
H    1.9231280   -0.0006420   -5.0415805  
H   -2.2494816    0.0117256   -4.5022806  
H   -3.1570786    0.0049246   -7.2008123  
H   -1.9125260    0.0055956  -10.5066853  
H    1.0938159    0.0019687  -10.3047652  
H    1.7807477    0.0001625   -8.0766449  
C    3.3041273    0.0001177   -1.5420426  
C    2.5845371   -0.0004780   -0.3695849  
C    1.2040008   -0.0000008   -0.7283588  
C    1.1422377    0.0006037   -2.1454371  
N    2.4348643    0.0026111   -2.6077461  
C   -0.0655176    0.0008798   -2.8497919  
C   -1.2321767    0.0002324   -2.1101405  
O   -2.4392813    0.0001147   -2.7472523  
C   -1.1911212   -0.0000007   -0.6955267  
O   -2.4371528   -0.0002320   -0.1032865  
C    0.0000000    0.0000000    0.0000000  
H    3.0031533   -0.0000661    0.6222586  
H    2.7054634   -0.0071098   -3.5745257  
H   -3.1132980   -0.0000650   -2.0551791  
H   -2.3200288   -0.0004072    0.8516407  
C    4.7577221    0.0005130   -1.7610455  
C    5.7407060   -0.0008416   -0.8308198  
C    6.9792953    0.0003734   -1.5939679  
C    6.5459659    0.0023748   -3.0077590  
N    5.2447616    0.0025463   -3.1119574  
C    7.4885871    0.0040732   -4.0924469  
C    8.8042961    0.0041744   -3.7790063  
O    9.7927589    0.0056659   -4.6894897  
C    9.2731070    0.0025541   -2.3618350  
O   10.4857527    0.0026212   -2.1503842  
C    8.2866186    0.0007836   -1.2669553  
H    5.6379822   -0.0023747    0.2408712  
H    7.1438324    0.0053119   -5.1161911  
H   10.6134443    0.0053478   -4.1644869  
H    8.6668152   -0.0002417   -0.2541970  
C    2.5285572    2.1210227    2.9438989  
C    1.9331703    1.6216660    4.0790748  
C    0.8903039    0.7472258    3.6520102  
C    0.8972198    0.7527806    2.2336141  
N    1.9028376    1.5986179    1.8362361  
C    0.0000000    0.0000000    1.4700000  
C   -0.9207814   -0.7726952    2.1506477  
O   -1.8198395   -1.5274828    1.4542253  
C   -0.9436862   -0.7911793    3.5655508  
O   -1.9197945   -1.6098497    4.0950179  
C   -0.0590329   -0.0485852    4.3195194  
H    2.2150357    1.8593692    5.0905303  
H    2.1533708    1.7953814    0.8841339  
H   -2.3621246   -1.9821033    2.1118817  
H   -1.8668290   -1.5649508    5.0545920  
H   -0.1007624   -0.0827977    5.4019087  
H    3.3491200    2.8096064    2.8367138  
