62

C    3.3846247    0.8279424   -8.6664648  
C    4.4737217    0.0252605   -8.9155378  
C    4.7765572    0.1532722  -10.3035240  
C    3.8305627    1.0552056  -10.8544655  
N    2.9990147    1.4443370   -9.8338178  
C    3.8282458    1.4172118  -12.2049219  
C    4.7987688    0.8587795  -13.0138820  
O    4.8424706    1.1780998  -14.3402068  
C    5.7510806   -0.0433789  -12.4828173  
O    6.6519769   -0.5136074  -13.4158834  
C    5.7537959   -0.4011669  -11.1507103  
H    4.9861197   -0.5791328   -8.1867378  
H    2.2355053    2.0903512   -9.9215698  
H    3.1099058    2.1039689  -12.6310143  
H    5.5843128    0.6858858  -14.7152553  
H    7.2593003   -1.1160346  -12.9756063  
H    6.4957528   -1.0947521  -10.7726663  
C    3.9370045   -0.7184852   -4.5079684  
C    4.0728225   -0.4678501   -5.8537776  
C    3.0408017    0.4490223   -6.2127737  
C    2.3004592    0.7244852   -5.0346648  
N    2.8699641   -0.0020530   -4.0185824  
C    1.2043126    1.5921815   -5.0158392  
C    0.8492529    2.1929747   -6.2079620  
O   -0.2129510    3.0492949   -6.2460635  
C    1.5753376    1.9304965   -7.3940158  
O    1.0979195    2.6049635   -8.4987830  
C    2.6566528    1.0743959   -7.4133824  
H    4.8227247   -0.8943458   -6.4977822  
H    0.6358237    1.8062026   -4.1212906  
H   -0.2870893    3.3518570   -7.1605164  
H    1.6433823    2.3722838   -9.2563672  
H    4.5159679   -1.3527194   -3.8587328  
C    3.2573670   -0.0002921   -1.5109382  
C    2.5379468   -0.0001711   -0.3591962  
C    1.1435043    0.0000330   -0.7338498  
C    1.1092608   -0.0000085   -2.2088474  
N    2.4227562    0.0001906   -2.6182610  
C   -0.0265533   -0.0002525   -2.9515663  
C   -1.3003033   -0.0002641   -2.2514979  
O   -2.3786785   -0.0004132   -2.8306425  
C   -1.2877724    0.0000310   -0.6895608  
O   -2.3539956    0.0003306   -0.0892035  
C    0.0000000    0.0000000    0.0000000  
H    2.9384091   -0.0000370    0.6389240  
H   -0.0296290   -0.0004088   -4.0327231  
H    4.3270394   -0.0004767   -1.6439445  
C    2.3971438    2.0127888    3.1728260  
C    1.9431056    1.6308205    1.9564670  
C    0.8496017    0.7127664    2.2356185  
C    0.7794028    0.6545384    3.7115134  
N    1.6840587    1.4146091    4.2663826  
C   -0.1885723   -0.1578550    4.3957118  
C   -1.0476298   -0.8789867    3.6398520  
O   -2.0015663   -1.6796266    4.1448486  
C   -1.0022026   -0.8410666    2.1483229  
O   -1.8147390   -1.5232959    1.5241687  
C    0.0000000    0.0000000    1.4700000  
H    2.3054237    1.9346118    0.9892483  
H   -0.2170646   -0.1815267    5.4753125  
H   -2.4487139   -2.0549881    3.3649027  
H    3.2048689    2.6911772    3.3971983  
