64

C    2.0444509   -3.0534538   -9.0321016  
C    1.7254294   -1.8302071   -8.4895518  
C    1.6844896   -0.8952110   -9.5659831  
C    1.9891620   -1.6118245  -10.7515492  
N    2.2041879   -2.9189929  -10.3914227  
C    2.0384768   -1.0052944  -12.0103097  
C    1.7751364    0.3492702  -12.0734382  
O    1.8094415    0.9915983  -13.2772867  
C    1.4695672    1.0815579  -10.9016030  
O    1.2319364    2.4213102  -11.1295039  
C    1.4210063    0.4839077   -9.6594345  
H    2.4293231   -3.6656531  -11.0237153  
H    2.2702204   -1.5458626  -12.9176586  
H    1.5996773    1.9175570  -13.0987829  
H    1.0334016    2.8425044  -10.2876119  
H    1.1843555    1.0706726   -8.7795587  
H    2.1720928   -4.0109284   -8.5568030  
C    2.1801847   -2.1249309   -6.0224128  
C    1.6691587   -1.6625654   -4.8318093  
C    0.6003590   -0.7747106   -5.1542714  
C    0.5048749   -0.7347773   -6.5689139  
N    1.4798198   -1.5643489   -7.0648071  
C   -0.4436398    0.0417840   -7.2412688  
C   -1.3117723    0.7914587   -6.4715206  
O   -2.2577360    1.5673113   -7.0766812  
C   -1.2319854    0.7651224   -5.0588080  
O   -2.1656654    1.5661200   -4.4343180  
C   -0.2963293   -0.0005341   -4.3948471  
H    2.0238860   -1.9312126   -3.8515082  
H   -0.5214961    0.0766779   -8.3191935  
H   -2.7500812    2.0006167   -6.3673799  
H   -2.0433739    1.4908464   -3.4830124  
H    2.9897743   -2.8091274   -6.2105564  
C    3.1301146   -0.0010313   -1.7028256  
C    2.5367765   -0.0002766   -0.4864669  
C    1.1089901    0.0001027   -0.7656184  
C    1.0177865   -0.0004150   -2.2415133  
N    2.1993571   -0.0011612   -2.7963824  
C   -0.2459219   -0.0002879   -2.9257116  
C   -1.3675326   -0.0000606   -2.1698520  
O   -2.6129318    0.0000865   -2.6748483  
C   -1.3083588    0.0000910   -0.6783229  
O   -2.3693264    0.0004206   -0.0541685  
C    0.0000000    0.0000000    0.0000000  
H    3.0096016   -0.0001007    0.4807518  
H   -3.1967444    0.0002093   -1.8949026  
H    4.1849275   -0.0015114   -1.9271979  
C    2.5311839    2.1237619    3.0120429  
C    1.9795631    1.6616747    1.8395852  
C    0.9223175    0.7739173    2.1983588  
C    0.8753926    0.7337535    3.6154372  
N    1.8668922    1.5631002    4.0777464  
C   -0.0496243   -0.0427881    4.3197917  
C   -0.9437528   -0.7922060    3.5801400  
O   -1.8685244   -1.5680278    4.2172520  
C   -0.9124520   -0.7656372    2.1655264  
O   -1.8671164   -1.5663939    1.5732860  
C    0.0000000    0.0000000    1.4700000  
H    2.3005065    1.9304404    0.8477417  
H    2.0679347    1.7444845    5.0445261  
H   -0.0904770   -0.0778569    5.3997470  
H   -2.3849669   -2.0011402    3.5251786  
H   -1.7775064   -1.4909735    0.6183591  
H    3.3468514    2.8078103    3.1724291  
