62

C   -6.7169761    0.0042443   -0.1803356  
C   -5.7683179    0.0034301    0.8159145  
C   -6.4691959    0.0039722    2.0582394  
C   -7.8547068    0.0048397    1.7544561  
N   -7.9699906    0.0069343    0.3864936  
C   -8.8452849    0.0052451    2.7411395  
C   -8.4296267    0.0044590    4.0584874  
O   -9.3550451    0.0044579    5.0617878  
C   -7.0518094    0.0039632    4.3816520  
O   -6.7989895    0.0036205    5.7379062  
C   -6.0740298    0.0038363    3.4087831  
H   -4.7022825    0.0036585    0.6657109  
H   -8.8350200   -0.0026067   -0.1230312  
H   -9.9029195    0.0060500    2.5161667  
H   -8.8590112    0.0041491    5.8907723  
H   -5.8459671    0.0032682    5.8696390  
H   -5.0265534    0.0036351    3.6867604  
C   -3.2578655    0.0024039   -2.9908504  
C   -3.9809868    0.0031287   -1.8468771  
C   -5.3695593    0.0043912   -2.2808874  
C   -5.2983972    0.0043640   -3.7578841  
N   -4.0631144    0.0031209   -4.1798622  
C   -6.4794715    0.0054028   -4.5765105  
C   -7.6771925    0.0060335   -3.9481800  
O   -8.8597151    0.0070289   -4.5866767  
C   -7.7819058    0.0057080   -2.4591548  
O   -8.9049089    0.0064461   -1.9550871  
C   -6.5558061    0.0046820   -1.6414735  
H   -3.6170577    0.0027518   -0.8336493  
H   -6.3979234    0.0055640   -5.6536639  
H   -9.5255220    0.0072465   -3.8754418  
C    0.0000000    0.0000000    0.0000000  
C    1.0521667   -0.0011902   -0.8862342  
C    0.4917216   -0.0011957   -2.1979129  
C   -0.9187429    0.0003148   -2.0478680  
N   -1.1833171   -0.0009412   -0.7007912  
C   -1.7951702    0.0010350   -3.1372088  
C   -1.2375841    0.0005225   -4.4010424  
O   -2.0474217    0.0015360   -5.4997576  
C    0.1673577   -0.0013567   -4.5711964  
O    0.5673522   -0.0020688   -5.8915554  
C    1.0325769   -0.0023413   -3.4969890  
H    2.0953057   -0.0030649   -0.6200562  
H   -2.0989779    0.0102372   -0.2891821  
H   -1.4634887    0.0006498   -6.2693588  
H    1.5290708   -0.0033153   -5.9180049  
H    2.1042148   -0.0039610   -3.6584453  
C    1.0965515   -0.0001358    2.2710304  
C    0.0000000    0.0000000    1.4700000  
C   -1.1546562   -0.0001469    2.3369512  
C   -0.6372014   -0.0003519    3.7186280  
N    0.7342871   -0.0007337    3.6095011  
C   -1.4147739   -0.0001353    4.8308716  
C   -2.8576048    0.0001048    4.6554461  
O   -3.6427778    0.0002493    5.5944904  
C   -3.4275839    0.0000726    3.2011665  
O   -4.6406829   -0.0000333    3.0410059  
C   -2.4891866    0.0001091    2.0816745  
H   -1.0150448   -0.0001615    5.8354244  
H   -2.8919121    0.0002919    1.0779135  
H    2.1388271   -0.0000662    1.9961646  
H    1.3735872    0.0006099    4.3830260  
