62

C   -6.6832335    0.0062437    0.0122456  
C   -5.6569081    0.0080768    0.9282803  
C   -6.2547291    0.0099675    2.2233503  
C   -7.6603121    0.0088915    2.0329286  
N   -7.8861560    0.0085817    0.6788200  
C   -8.5676114    0.0099181    3.0966940  
C   -8.0464897    0.0117632    4.3759930  
O   -8.8874962    0.0124788    5.4510380  
C   -6.6470030    0.0132354    4.5863555  
O   -6.2850281    0.0154200    5.9176383  
C   -5.7513413    0.0124970    3.5373970  
H   -4.6065657    0.0091592    0.6921178  
H   -8.7896441   -0.0027070    0.2411414  
H   -9.6400063    0.0092511    2.9582341  
H   -8.3258669    0.0140688    6.2370641  
H   -5.3244630    0.0162757    5.9716496  
H   -4.6847726    0.0138458    3.7295098  
C   -3.2941076    0.0012874   -2.9038237  
C   -4.0470170    0.0024417   -1.7524795  
C   -5.4166997    0.0030192   -2.1506875  
C   -5.4378091    0.0018785   -3.5689539  
N   -4.1324579    0.0027949   -3.9940138  
C   -6.6248728    0.0017547   -4.3076465  
C   -7.8122586    0.0024944   -3.6017482  
O   -9.0006014    0.0020604   -4.2732064  
C   -7.8117774    0.0040116   -2.1865396  
O   -9.0742766    0.0050150   -1.6302683  
C   -6.6410879    0.0044079   -1.4571491  
H   -3.6570098    0.0039261   -0.7490428  
H   -3.8342563   -0.0082406   -4.9526250  
H   -6.6477244    0.0010318   -5.3887014  
H   -9.6941832    0.0030130   -3.6007429  
H   -8.9845788    0.0059858   -0.6723763  
C    0.0000000    0.0000000    0.0000000  
C    1.0541688   -0.0001722   -0.8560393  
C    0.5103135   -0.0000454   -2.1935957  
C   -0.9576374    0.0002459   -2.0455730  
N   -1.2018460   -0.0001391   -0.6915968  
C   -1.8348314    0.0008317   -3.0810607  
C   -1.2972851    0.0009737   -4.4314604  
O   -2.0050676    0.0014265   -5.4301315  
C    0.2542619    0.0004184   -4.6117571  
O    0.7184666    0.0002257   -5.7439121  
C    1.0974550    0.0000874   -3.4189130  
H    2.0940752   -0.0005483   -0.5817984  
H    2.1707276   -0.0000911   -3.5523671  
H   -2.1128194    0.0014912   -0.2706789  
C    0.0000000    0.0000000    1.4700000  
C    1.0541688    0.0001722    2.3260392  
C    0.5103138    0.0000454    3.6635956  
C   -0.9576371   -0.0002459    3.5155732  
N   -1.2018458    0.0001392    2.1615969  
C   -1.8348311   -0.0008317    4.5510609  
C   -1.2972847   -0.0009736    5.9014604  
O   -2.0050672   -0.0014265    6.9001319  
C    0.2542623   -0.0004184    6.0817573  
O    0.7184670   -0.0002256    7.2139121  
C    1.0974552   -0.0000873    4.8889129  
H    2.0940752    0.0005483    2.0517982  
H   -2.9081052   -0.0011668    4.4207061  
H    2.1707277    0.0000911    5.0223670  
H   -2.1128194   -0.0014912    1.7406791  
