66

C    5.9329386   -2.1252339   -4.5701444  
C    5.0131317   -1.6623126   -3.6579347  
C    4.1427217   -0.7751635   -4.3579009  
C    4.5839726   -0.7362133   -5.7053827  
N    5.6738273   -1.5656657   -5.7994102  
C    3.9561498    0.0394659   -6.6846422  
C    2.8627879    0.7892526   -6.2966248  
O    2.2121665    1.5642685   -7.2126250  
C    2.4077027    0.7638903   -4.9568224  
O    1.3079544    1.5648734   -4.7280803  
C    3.0267438   -0.0008951   -3.9901699  
H    4.9749619   -1.9301461   -2.6159169  
H    6.1938208   -1.7478107   -6.6387023  
H    4.2876439    0.0736084   -7.7133057  
H    1.4899369    1.9978186   -6.7396717  
H    1.0650888    1.4902880   -3.8001488  
C    7.4631945   -4.3558970   -1.0103526  
C    6.7355828   -3.5424004   -1.8477732  
C    7.3302736   -3.6374556   -3.1407961  
C    8.4260155   -4.5313568   -3.0302642  
N    8.4796152   -4.9476068   -1.7231756  
C    9.2440749   -4.8627037   -4.1145957  
C    8.9504602   -4.2813033   -5.3327673  
O    9.7168338   -4.5702938   -6.4246310  
C    7.8616332   -3.3866961   -5.4629634  
O    7.6991614   -2.8910102   -6.7401639  
C    7.0543389   -3.0591483   -4.3936108  
H    5.8819485   -2.9521325   -1.5616177  
H    9.1484020   -5.5952397   -1.3473091  
H   10.0807991   -5.5431865   -4.0368773  
H    9.3453521   -4.0660494   -7.1601604  
H    6.9433731   -2.2957059   -6.7415174  
H    7.3384210   -4.5597530    0.0393300  
C    3.3003547    0.0005277   -1.4738986  
C    2.5232816    0.0003497   -2.6090746  
C    1.1623203   -0.0001319   -2.1820102  
C    1.1711884    0.0000584   -0.7636141  
N    2.4852301   -0.0014919   -0.3662359  
C    0.0000000    0.0000000    0.0000000  
C   -1.2020383    0.0000520   -0.6806479  
O   -2.3759248    0.0003493    0.0157745  
C   -1.2314655   -0.0005115   -2.0955511  
O   -2.5054388   -0.0008040   -2.6250184  
C   -0.0764513   -0.0007274   -2.8495195  
H    2.8036266    0.0088183    0.5858662  
H   -3.0835639    0.0000346   -0.6418822  
H   -2.4360043   -0.0011529   -3.5845924  
H   -0.1304091   -0.0013423   -3.9319089  
H    4.3715553    0.0004897   -1.3667133  
C    2.5285572    2.1210227    2.9438989  
C    1.9331703    1.6216660    4.0790748  
C    0.8903039    0.7472258    3.6520102  
C    0.8972198    0.7527806    2.2336141  
N    1.9028376    1.5986179    1.8362361  
C    0.0000000    0.0000000    1.4700000  
C   -0.9207814   -0.7726952    2.1506477  
O   -1.8198395   -1.5274828    1.4542253  
C   -0.9436862   -0.7911793    3.5655508  
O   -1.9197945   -1.6098497    4.0950179  
C   -0.0590329   -0.0485852    4.3195194  
H    2.2150357    1.8593692    5.0905303  
H    2.1533708    1.7953814    0.8841339  
H   -2.3621246   -1.9821033    2.1118817  
H   -1.8668290   -1.5649508    5.0545920  
H   -0.1007624   -0.0827977    5.4019087  
H    3.3491200    2.8096064    2.8367138  
