62

C    3.2447015   -2.9396840   -6.4964023  
C    4.1168074   -3.6379187   -5.6936780  
C    4.9679392   -4.3885798   -6.5577863  
C    4.5646398   -4.1055977   -7.8878980  
N    3.5148687   -3.2239990   -7.8145543  
C    5.1864266   -4.6738467   -9.0038116  
C    6.2346289   -5.5433726   -8.7727862  
O    6.8773803   -6.1261433   -9.8264773  
C    6.6513788   -5.8385526   -7.4529364  
O    7.7083590   -6.7228475   -7.3884498  
C    6.0382563   -5.2785376   -6.3515785  
H    4.1363232   -3.6105334   -4.6176378  
H    3.0277753   -2.8348260   -8.6014879  
H    4.8837074   -4.4623725  -10.0200998  
H    7.5661729   -6.6885519   -9.4489516  
H    7.9272387   -6.8682442   -6.4629469  
H    6.3793831   -5.5237541   -5.3525896  
C    2.1601074   -2.0149550   -6.1366351  
C    1.7671251   -1.6323651   -4.8993926  
C    0.6609148   -0.7146343   -5.1242671  
C    0.5173097   -0.6572546   -6.5948688  
N    1.3933529   -1.4175035   -7.1936662  
C   -0.4836753    0.1546046   -7.2304781  
C   -1.3041631    0.8760356   -6.4331879  
O   -2.2822030    1.6762454   -6.8905103  
C   -1.1845240    0.8389688   -4.9457495  
O   -1.9650988    1.5214299   -4.2822957  
C   -0.1496415   -0.0015615   -4.3176961  
H    2.1772049   -1.9355528   -3.9512431  
H   -0.5658887    0.1776593   -8.3073340  
H   -2.6900306    2.0519822   -6.0894787  
C    3.3003543    0.0005276   -1.4738987  
C    2.5232814    0.0003497   -2.6090747  
C    1.1623200   -0.0001320   -2.1820103  
C    1.1711883    0.0000582   -0.7636140  
N    2.4852300   -0.0014919   -0.3662360  
C    0.0000000    0.0000000    0.0000000  
C   -1.2020384    0.0000519   -0.6806477  
O   -2.3759249    0.0003493    0.0157743  
C   -1.2314656   -0.0005115   -2.0955510  
O   -2.5054392   -0.0008039   -2.6250180  
C   -0.0764516   -0.0007274   -2.8495195  
H    2.8919955   -0.0005620   -3.6205304  
H    2.8036267    0.0088183    0.5858662  
H   -3.0835638    0.0000347   -0.6418818  
H   -2.4360047   -0.0011529   -3.5845921  
H    4.3715549    0.0004895   -1.3667136  
C    2.4951002    2.0940188    2.9809380  
C    1.9440701    1.6314916    1.8291961  
C    0.8759964    0.7350050    2.2038498  
C    0.8497377    0.7130254    3.6788474  
N    1.8560616    1.5571714    4.0882609  
C   -0.0205033   -0.0168748    4.4215661  
C   -0.9962600   -0.8356168    3.7214979  
O   -1.8224391   -1.5286685    4.3006425  
C   -0.9864710   -0.8277881    2.1595606  
O   -1.8030528   -1.5133726    1.5592035  
C    0.0000000    0.0000000    1.4700000  
H    2.2509283    1.8888011    0.8310761  
H   -0.0229599   -0.0187323    5.5027230  
H    3.3143982    2.7817323    3.1139444  
H    2.0889452    1.7545833    5.0442112  
