60

C    5.5836005   -0.0003155   -1.0808165  
C    4.5679461   -0.0016852   -2.0086700  
C    5.1807163   -0.0020959   -3.2967355  
C    6.5840017   -0.0012106   -3.0900577  
N    6.7941554    0.0018109   -1.7334282  
C    7.5035526   -0.0016219   -4.1432504  
C    6.9972724   -0.0032584   -5.4284959  
O    7.8506655   -0.0040785   -6.4937341  
C    5.6003141   -0.0037866   -5.6550441  
O    5.2537722   -0.0050289   -6.9904278  
C    4.6925710   -0.0031080   -4.6165223  
H    7.6925277   -0.0074985   -1.2852979  
H    8.5742727   -0.0008079   -3.9923869  
H    7.2981730   -0.0048901   -7.2862088  
H    4.2938960   -0.0053403   -7.0555537  
H    3.6282969   -0.0033561   -4.8209686  
H    5.5402817    0.0007588   -0.0051399  
C    3.1301152   -0.0010311   -1.7028251  
C    2.5367770   -0.0002766   -0.4864665  
C    1.1089905    0.0001028   -0.7656183  
C    1.0177873   -0.0004148   -2.2415130  
N    2.1993580   -0.0011610   -2.7963820  
C   -0.2459208   -0.0002877   -2.9257119  
C   -1.3675318   -0.0000605   -2.1698523  
O   -2.6129310    0.0000866   -2.6748492  
C   -1.3083584    0.0000911   -0.6783232  
O   -2.3693259    0.0004206   -0.0541692  
C    0.0000000    0.0000000    0.0000000  
H    3.0096019   -0.0001007    0.4807529  
H   -3.1967440    0.0002093   -1.8949035  
C    2.1650280   -2.1089222   -5.9297634  
C    1.5723618   -1.6445161   -7.0598735  
C    0.5184584   -0.7489600   -6.6450207  
C    0.5459270   -0.7295295   -5.1700093  
N    1.5661299   -1.5747492   -4.7989581  
C   -0.2963281   -0.0005339   -4.3948471  
C   -1.2968006    0.8195084   -5.0575089  
O   -2.1010989    1.5117980   -4.4474761  
C   -1.3442148    0.8139947   -6.6187672  
O   -2.1824049    1.5002194   -7.1877962  
C   -0.3835299   -0.0125662   -7.3452202  
H    1.8425093   -1.9002756   -8.0689433  
H   -0.4228717   -0.0106498   -8.4260400  
H    2.9887842   -2.7966240   -5.8278725  
H    1.8355792   -1.7715186   -3.8525303  
C    0.8681109    0.7263879    2.2709268  
C    0.6127770    0.5096195    3.5869401  
C   -0.4920590   -0.4175482    3.6542670  
C   -0.8620974   -0.7254003    2.2596025  
N    0.0000000    0.0000000    1.4700000  
C   -1.8641242   -1.5660088    1.8976294  
C   -2.6293522   -2.2103885    2.9520183  
O   -3.5512764   -2.9839180    2.7283916  
C   -2.2549728   -1.8987399    4.4361073  
O   -2.8923672   -2.4351063    5.3323774  
C   -1.1543735   -0.9755647    4.7012123  
H    1.1382914    0.9492124    4.4159191  
H   -2.1192137   -1.7782617    0.8686553  
H   -0.9013378   -0.7652422    5.7314848  
H    1.6172880    1.3558399    1.8188057  
