62

C    5.9558685   -1.0439574   -2.7176836  
C    6.1234405   -1.9288976   -1.6778430  
C    7.5248769   -2.1628287   -1.5519421  
C    8.1677174   -1.3867417   -2.5501262  
N    7.1859102   -0.7211904   -3.2412941  
C    9.5554720   -1.3719412   -2.7195635  
C   10.3080106   -2.1546231   -1.8655902  
O   11.6673567   -2.1770885   -1.9867955  
C    9.6849584   -2.9361356   -0.8636624  
O   10.5705493   -3.6613466   -0.0935048  
C    8.3159382   -2.9514319   -0.6961080  
H    5.3327641   -2.3544264   -1.0839159  
H    7.3413640   -0.0854017   -4.0026009  
H   10.0515117   -0.7827281   -3.4784933  
H   11.9924729   -2.7781378   -1.3039308  
H   10.0688194   -4.1607100    0.5580372  
H    7.8671503   -3.5601972    0.0800829  
C    3.4490003   -0.7155693   -2.8370986  
C    4.7273316   -0.4631134   -3.2782353  
C    4.6191179    0.4538718   -4.3654463  
C    3.2387525    0.7275240   -4.5433021  
N    2.5562217   -0.0001543   -3.6003001  
C    2.7607280    1.5948130   -5.5302629  
C    3.6931813    2.1970532   -6.3524643  
O    3.2810853    3.0530531   -7.3324923  
C    5.0747610    1.9363916   -6.1908806  
O    5.8764929    2.6121474   -7.0874985  
C    5.5470398    1.0806936   -5.2176078  
H    1.7099382    1.8074569   -5.6710647  
H    4.0797064    3.3567939   -7.7832821  
H    6.7933165    2.3806561   -6.9101549  
H    6.6110142    0.9004042   -5.1179441  
H    3.1033295   -1.3504570   -2.0393591  
C    0.0000000    0.0000000    0.0000000  
C    1.0541688   -0.0001719   -0.8560391  
C    0.5103141   -0.0000449   -2.1935955  
C   -0.9576367    0.0002461   -2.0455733  
N   -1.2018459   -0.0001392   -0.6915970  
C   -1.8348306    0.0008319   -3.0810611  
C   -1.2972842    0.0009739   -4.4314605  
O   -2.0050664    0.0014267   -5.4301321  
C    0.2542628    0.0004190   -4.6117571  
O    0.7184677    0.0002263   -5.7439119  
C    1.0974556    0.0000880   -3.4189127  
H    2.0940752   -0.0005479   -0.5817978  
H   -2.9081050    0.0011669   -2.9507065  
H   -2.1128195    0.0014911   -0.2706793  
C    1.1319247   -0.0015655    2.2709268  
C    0.7969915   -0.0034943    3.5869401  
C   -0.6453339   -0.0035710    3.6542670  
C   -1.1266833   -0.0015433    2.2596025  
N    0.0000000    0.0000000    1.4700000  
C   -2.4346130   -0.0013964    1.8976294  
C   -3.4350110   -0.0031408    2.9520183  
O   -4.6384611   -0.0030974    2.7283916  
C   -2.9478959   -0.0050506    4.4361073  
O   -3.7809380   -0.0062218    5.3323774  
C   -1.5113823   -0.0053090    4.7012123  
H    1.4821238   -0.0045407    4.4159191  
H   -2.7664565   -0.0000232    0.8686553  
H   -1.1823530   -0.0068408    5.7314848  
H    2.1104316   -0.0009391    1.8188057  
