62

C    6.6040902   -0.0023388   -2.0631269  
C    5.9305215   -0.0055282   -0.8636429  
C    6.9162121   -0.0076585    0.1673811  
C    8.1839592   -0.0053241   -0.4688074  
N    7.9582145   -0.0040670   -1.8229320  
C    9.3873321   -0.0062066    0.2430104  
C    9.3095012   -0.0091987    1.6221809  
O   10.4538269   -0.0098309    2.3661789  
C    8.0539905   -0.0119354    2.2752529  
O    8.1435647   -0.0151660    3.6519555  
C    6.8664310   -0.0113399    1.5736644  
H    4.8603802   -0.0073377   -0.7462235  
H    8.6707990    0.0082079   -2.5300766  
H   10.3567779   -0.0045835   -0.2359180  
H   10.1776289   -0.0123234    3.2919076  
H    7.2524961   -0.0168387    4.0147190  
H    5.9199045   -0.0136703    2.1014521  
C    2.4521485    0.0014838   -3.7217479  
C    3.5379007    0.0002979   -2.8769945  
C    4.7042704    0.0010662   -3.6980801  
C    4.2640505    0.0030226   -5.0464602  
N    2.8914059    0.0012766   -5.0249751  
C    5.1472046    0.0045345   -6.1303536  
C    6.4993915    0.0043697   -5.8479195  
O    7.4055700    0.0061549   -6.8686306  
C    6.9581315    0.0020553   -4.5091255  
O    8.3328179    0.0017727   -4.3925955  
C    6.0874477    0.0002897   -3.4393439  
H    3.4945818   -0.0020709   -1.8013036  
H    2.2982903    0.0126076   -5.8349547  
H    4.8180480    0.0058847   -7.1603320  
H    8.2798214    0.0053916   -6.4575986  
H    8.5587829    0.0001890   -3.4574265  
C    0.0000000    0.0000000    0.0000000  
C    1.0662924   -0.0000102   -0.8334267  
C    0.4961874    0.0000064   -2.1718888  
C   -0.9663853   -0.0000849   -1.9540250  
N   -1.2632772   -0.0000084   -0.6828660  
C   -1.8985357   -0.0000515   -3.0477261  
C   -1.3925767    0.0004566   -4.3020548  
O   -2.1456375    0.0005411   -5.4151316  
C    0.0786242    0.0009324   -4.5545000  
O    0.4683770    0.0012590   -5.7221099  
C    1.0143173    0.0008443   -3.4159029  
H    2.1107200    0.0000632   -0.5721862  
H   -2.9622180   -0.0003269   -2.8593382  
H   -1.5042262    0.0009694   -6.1484423  
C    3.1301144    0.0010313    3.1728260  
C    2.5367765    0.0002768    1.9564670  
C    1.1089900   -0.0001027    2.2356185  
C    1.0177864    0.0004150    3.7115134  
N    2.1993570    0.0011613    4.2663826  
C   -0.2459220    0.0002880    4.3957118  
C   -1.3675327    0.0000606    3.6398520  
O   -2.6129319   -0.0000866    4.1448486  
C   -1.3083589   -0.0000910    2.1483229  
O   -2.3693264   -0.0004206    1.5241687  
C    0.0000000    0.0000000    1.4700000  
H    3.0096015    0.0001008    0.9892483  
H   -0.2829642    0.0004689    5.4753125  
H   -3.1967446   -0.0002093    3.3649027  
H    4.1849273    0.0015113    3.3971983  
