60

C    5.2573300   -1.1343367   -7.1254692  
C    4.5938588   -0.0516111   -6.5963382  
C    4.9578628    1.0833678   -7.3798711  
C    5.8532149    0.6279503   -8.3813028  
N    6.0148785   -0.7227906   -8.1969626  
C    6.4164338    1.4797455   -9.3362993  
C    6.0692421    2.8155638   -9.2795057  
O    6.5899220    3.6909938  -10.1880913  
C    5.1778022    3.2891227   -8.2875921  
O    4.9313481    4.6444467   -8.3630929  
C    4.6220041    2.4494227   -7.3449797  
H    6.5864853   -1.3217191   -8.7648816  
H    7.0995717    1.1388952  -10.1020302  
H    6.2234563    4.5584486   -9.9724778  
H    4.3205942    4.8822192   -7.6587872  
H    3.9423698    2.8410568   -6.5971845  
H    5.2512297   -2.1673415   -6.8224472  
C    4.5533951   -2.1376040   -2.6578820  
C    4.9399045   -1.7283668   -3.8886195  
C    3.8940258   -0.8167856   -4.3264062  
C    2.9285541   -0.7919270   -3.2066609  
N    3.3097737   -1.5641892   -2.2257060  
C    1.7334695    0.0049281   -3.2500363  
C    1.5131091    0.7436790   -4.3613521  
O    0.4396992    1.5328950   -4.5373374  
C    2.4688038    0.7400642   -5.5079972  
O    2.2042974    1.4366798   -6.4877850  
C    3.6875675   -0.0856736   -5.4394565  
H    5.8254287   -2.0102063   -4.4322094  
H    0.5632906    1.9263769   -5.4199759  
H    5.0606861   -2.8208825   -1.9954926  
C    1.1319246    0.0015678   -0.8009268  
C    0.7969914    0.0034958   -2.1169401  
C   -0.6453340    0.0035696   -2.1842669  
C   -1.1266832    0.0015410   -0.7896025  
N    0.0000000    0.0000000    0.0000000  
C   -2.4346129    0.0013913   -0.4276292  
C   -3.4350111    0.0031335   -1.4820181  
O   -4.6384614    0.0030875   -1.2583914  
C   -2.9478961    0.0050442   -2.9661074  
O   -3.7809382    0.0062135   -3.8623773  
C   -1.5113825    0.0053055   -3.2312122  
H   -2.7664565    0.0000174    0.6013448  
H   -1.1823533    0.0068381   -4.2614848  
H    2.1104316    0.0009435   -0.3488059  
C    0.0000000    0.0000000    1.4700000  
C    1.0662921    0.0000102    2.3034270  
C    0.4961870   -0.0000064    3.6418889  
C   -0.9663858    0.0000850    3.4240247  
N   -1.2632773    0.0000084    2.1528658  
C   -1.8985362    0.0000517    4.5177257  
C   -1.3925775   -0.0004564    5.7720543  
O   -2.1456383   -0.0005410    6.8851312  
C    0.0786232   -0.0009323    6.0245000  
O    0.4683759   -0.0012588    7.1921102  
C    1.0143166   -0.0008442    4.8859032  
H    2.1107198   -0.0000632    2.0421868  
H   -2.9622183    0.0003270    4.3293377  
H   -1.5042274   -0.0009692    7.6184419  
H    2.0724152   -0.0013148    5.1109744  
