60

C    8.1075239    0.0023996   -0.9893323  
C    8.4062783    0.0025181    0.3535052  
C    9.8284134    0.0033370    0.4636478  
C   10.3480849    0.0039786   -0.8561504  
N    9.2763438    0.0014347   -1.7140446  
C   11.7193379    0.0051676   -1.1290091  
C   12.5816949    0.0060260   -0.0498811  
O   13.9304445    0.0075514   -0.2593718  
C   12.0824058    0.0050301    1.2743265  
O   13.0677964    0.0056544    2.2399072  
C   10.7297551    0.0035837    1.5442529  
H    7.6876077    0.0009643    1.1550681  
H    9.3351678    0.0117809   -2.7162488  
H   12.1217777    0.0055175   -2.1326247  
H   14.3424783    0.0076282    0.6144092  
H   12.6462146    0.0049355    3.1047030  
H   10.3769914    0.0026647    2.5689645  
C    5.5868521   -0.0000800   -1.0681557  
C    6.8043816    0.0011457   -1.6695669  
C    6.5701481    0.0006875   -3.0943372  
C    5.1058543   -0.0008879   -3.2749811  
N    4.5679461   -0.0016854   -2.0086701  
C    4.4796776   -0.0013316   -4.4789774  
C    5.3028527   -0.0004066   -5.6768576  
O    4.8337321   -0.0007719   -6.8074446  
C    6.8558133    0.0010131   -5.5091793  
O    7.5591499    0.0014937   -6.5104683  
C    7.4139943    0.0016564   -4.1592590  
H    3.4041775   -0.0023629   -4.5894721  
H    8.4901794    0.0028448   -4.0517870  
H    5.3482112   -0.0001627   -0.0169946  
C    3.1301149   -0.0010311   -1.7028252  
C    2.5367768   -0.0002767   -0.4864665  
C    1.1089904    0.0001028   -0.7656183  
C    1.0177872   -0.0004148   -2.2415132  
N    2.1993578   -0.0011611   -2.7963820  
C   -0.2459209   -0.0002877   -2.9257118  
C   -1.3675319   -0.0000605   -2.1698524  
O   -2.6129313    0.0000867   -2.6748490  
C   -1.3083584    0.0000910   -0.6783232  
O   -2.3693261    0.0004206   -0.0541692  
C    0.0000000    0.0000000    0.0000000  
H    3.0096017   -0.0001007    0.4807525  
H   -0.2829630   -0.0004687   -4.0053125  
H   -3.1967441    0.0002094   -1.8949034  
C    0.0000000    0.0000000    1.4700000  
C    1.0541688    0.0001722    2.3260392  
C    0.5103138    0.0000454    3.6635956  
C   -0.9576371   -0.0002459    3.5155732  
N   -1.2018458    0.0001392    2.1615969  
C   -1.8348311   -0.0008317    4.5510609  
C   -1.2972847   -0.0009736    5.9014604  
O   -2.0050672   -0.0014265    6.9001319  
C    0.2542623   -0.0004184    6.0817573  
O    0.7184670   -0.0002256    7.2139121  
C    1.0974552   -0.0000873    4.8889129  
H    2.0940752    0.0005483    2.0517982  
H   -2.9081052   -0.0011668    4.4207061  
H    2.1707277    0.0000911    5.0223670  
H   -2.1128194   -0.0014912    1.7406791  
