64

C    0.6176052    0.0952461   -8.7812237  
C    1.6800181   -0.5528435   -9.3675055  
C    1.7085754   -0.1517818  -10.7360562  
C    0.6304720    0.7497248  -10.9281617  
N   -0.0125155    0.8759894   -9.7218277  
C    0.3548009    1.3470841  -12.1618376  
C    1.1827319    1.0288104  -13.2208045  
O    0.9589408    1.5839607  -14.4474826  
C    2.2632918    0.1312007  -13.0490398  
O    2.9949869   -0.0843144  -14.1986147  
C    2.5356754   -0.4586911  -11.8323398  
H    2.3511284   -1.2320651   -8.8702505  
H   -0.8111009    1.4591293   -9.5480742  
H   -0.4654122    2.0348703  -12.3148189  
H    1.6410524    1.2328832  -15.0346227  
H    3.7046604   -0.7015645  -13.9962053  
H    3.3703368   -1.1424973  -11.7312089  
C    2.0234326   -2.1203365   -5.1612091  
C    1.8898404   -1.6210650   -6.4361003  
C    0.7628122   -0.7468329   -6.4249093  
C    0.2448267   -0.7524210   -5.1044597  
N    1.0324261   -1.5980773   -4.3633998  
C   -0.8712826    0.0001710   -4.7267111  
C   -1.4753121    0.7727082   -5.6995997  
O   -2.5682877    1.5273086   -5.3849614  
C   -0.9734764    0.7912226   -7.0227155  
O   -1.6848159    1.6097208   -7.8755934  
C    0.1273886    0.0488144   -7.3961488  
H    2.5257351   -1.8586902   -7.2716639  
H    0.9132304   -1.7948166   -3.3861243  
H   -2.8290818    1.9818423   -6.1965339  
H   -1.2808197    1.5648554   -8.7475895  
H    2.7463506   -2.8087670   -4.7582064  
C    1.0965514    0.0001359   -0.8010305  
C    0.0000000    0.0000000    0.0000000  
C   -1.1546563    0.0001470   -0.8669513  
C   -0.6372014    0.0003519   -2.2486282  
N    0.7342871    0.0007337   -2.1395014  
C   -1.4147739    0.0001352   -3.3608717  
C   -2.8576049   -0.0001048   -3.1854462  
O   -3.6427779   -0.0002494   -4.1244907  
C   -3.4275840   -0.0000725   -1.7311666  
O   -4.6406831    0.0000333   -1.5710060  
C   -2.4891867   -0.0001091   -0.6116744  
H   -2.8919122   -0.0002918    0.3920866  
H    2.1388272    0.0000663   -0.5261648  
H    1.3735872   -0.0006099   -2.9130262  
C    2.5311839    2.1237619    3.0120429  
C    1.9795631    1.6616747    1.8395852  
C    0.9223175    0.7739173    2.1983588  
C    0.8753926    0.7337535    3.6154372  
N    1.8668922    1.5631002    4.0777464  
C   -0.0496243   -0.0427881    4.3197917  
C   -0.9437528   -0.7922060    3.5801400  
O   -1.8685244   -1.5680278    4.2172520  
C   -0.9124520   -0.7656372    2.1655264  
O   -1.8671164   -1.5663939    1.5732860  
C    0.0000000    0.0000000    1.4700000  
H    2.3005065    1.9304404    0.8477417  
H    2.0679347    1.7444845    5.0445261  
H   -0.0904770   -0.0778569    5.3997470  
H   -2.3849669   -2.0011402    3.5251786  
H   -1.7775064   -1.4909735    0.6183591  
H    3.3468514    2.8078103    3.1724291  
