64

C    0.5767918   -0.9725074   -9.5180676  
C    0.8748524   -0.5547608  -10.7944355  
C    0.6207640    0.8479647  -10.8434212  
C    0.1660042    1.2337636   -9.5564568  
N    0.1492877    0.1040325   -8.7766831  
C   -0.1795762    2.5510219   -9.2399226  
C   -0.0636837    3.4960893  -10.2407194  
O   -0.3875719    4.7972864   -9.9857786  
C    0.3878435    3.1305920  -11.5312048  
O    0.4486870    4.1854806  -12.4182520  
C    0.7286823    1.8312258  -11.8442580  
H    1.2304932   -1.1838830  -11.5923825  
H   -0.5269720    2.8514838   -8.2610248  
H   -0.2371162    5.2821828  -10.8076698  
H    0.7625870    3.8532634  -13.2648350  
H    1.0712335    1.5812619  -12.8415830  
H    0.6339592   -1.9534680   -9.0782870  
C    1.8159014   -2.1156535   -5.3336802  
C    0.9337939   -1.6549081   -4.3839079  
C    0.0359167   -0.7660298   -5.0459591  
C    0.4223297   -0.7238309   -6.4100818  
N    1.5073773   -1.5530970   -6.5501063  
C   -0.2444660    0.0542446   -7.3612761  
C   -1.3211418    0.8031324   -6.9275549  
O   -2.0081608    1.5803927   -7.8146199  
C   -1.7216870    0.7745412   -5.5705127  
O   -2.8111769    1.5750117   -5.2955535  
C   -1.0641734    0.0073898   -4.6315339  
H    0.9377498   -1.9252651   -3.3418501  
H    1.9929858   -1.7332278   -7.4101753  
H   -2.7106169    2.0128237   -7.3118039  
H   -3.0163349    1.4981862   -4.3587439  
H    2.6416168   -2.7999470   -5.2393635  
C    1.1319248    0.0015675   -0.8009270  
C    0.7969916    0.0034959   -2.1169404  
C   -0.6453336    0.0035703   -2.1842672  
C   -1.1266831    0.0015415   -0.7896027  
N    0.0000000    0.0000000    0.0000000  
C   -2.4346129    0.0013924   -0.4276297  
C   -3.4350110    0.0031352   -1.4820184  
O   -4.6384610    0.0030897   -1.2583919  
C   -2.9478958    0.0050460   -2.9661075  
O   -3.7809377    0.0062160   -3.8623775  
C   -1.5113821    0.0053068   -3.2312125  
H    1.4821240    0.0045436   -2.9459192  
H   -2.7664565    0.0000185    0.6013447  
H    2.1104318    0.0009428   -0.3488058  
C    0.8576279    0.7185626    2.2703808  
C    0.0000000    0.0000000    1.4700000  
C   -0.8668858   -0.7285659    2.3373528  
C   -0.4876752   -0.4117774    3.6669281  
N    0.5635254    0.4678311    3.5902241  
C   -1.1297612   -0.9515493    4.7854808  
C   -2.1738724   -1.8268314    4.5576857  
O   -2.8357962   -2.3827064    5.6140350  
C   -2.5667212   -2.1555554    3.2384331  
O   -3.6226318   -3.0413663    3.1773122  
C   -1.9335634   -1.6236449    2.1344818  
H    1.0363952    0.8769718    4.3757045  
H   -0.8454472   -0.7142436    5.8013813  
H   -3.5178062   -2.9546422    5.2385129  
H   -3.8247440   -3.2102924    2.2519915  
H   -2.2566033   -1.8942483    1.1360343  
H    1.6567807    1.3889844    2.0042067  
