64

C    7.6765036   -0.9843481   -4.1704958  
C    8.9609803   -0.5698425   -4.4365286  
C    8.9020124    0.8328360   -4.6887508  
C    7.5439919    1.2219474   -4.5610764  
N    6.8266707    0.0941484   -4.2478085  
C    7.1146855    2.5400885   -4.7427065  
C    8.0738078    3.4826486   -5.0586858  
O    7.7094704    4.7845701   -5.2464937  
C    9.4337124    3.1138312   -5.1907883  
O   10.2667433    4.1665096   -5.5090206  
C    9.8579104    1.8135921   -5.0120122  
H    9.8330123   -1.2010398   -4.4485313  
H    6.0811310    2.8430704   -4.6469552  
H    8.5196693    5.2673918   -5.4556011  
H   11.1660783    3.8321093   -5.5795592  
H   10.9062711    1.5610640   -5.1199391  
H    7.2991083   -1.9642384   -3.9331229  
C    4.3304652   -2.1219081   -1.2732983  
C    5.3835929   -1.6226234   -2.0041219  
C    4.8312743   -0.7479116   -2.9861724  
C    3.4245697   -0.7532339   -2.8042903  
N    3.1541560   -1.5991997   -1.7574688  
C    2.5562217   -0.0001543   -3.6003001  
C    3.1181948    0.7726066   -4.5978997  
O    2.3162989    1.5276822   -5.4040242  
C    4.5194625    0.7908619   -4.7952149  
O    4.9245920    1.6096335   -5.8290562  
C    5.3766900    0.0479727   -4.0104838  
H    6.4220549   -1.8605475   -1.8492577  
H    2.2402070   -1.7958547   -1.3914015  
H    2.9021001    1.9822993   -6.0232374  
H    5.8833598    1.5645665   -5.8949077  
H    4.3252215   -2.8106323   -0.4458983  
C    0.0000000    0.0000000    0.0000000  
C    1.0541688   -0.0001719   -0.8560391  
C    0.5103141   -0.0000449   -2.1935955  
C   -0.9576367    0.0002461   -2.0455733  
N   -1.2018459   -0.0001392   -0.6915970  
C   -1.8348306    0.0008319   -3.0810611  
C   -1.2972842    0.0009739   -4.4314605  
O   -2.0050664    0.0014267   -5.4301321  
C    0.2542628    0.0004190   -4.6117571  
O    0.7184677    0.0002263   -5.7439119  
C    1.0974556    0.0000880   -3.4189127  
H    2.0940752   -0.0005479   -0.5817978  
H   -2.9081050    0.0011669   -2.9507065  
H   -2.1128195    0.0014911   -0.2706793  
C    3.3041272   -0.0001177    3.0120429  
C    2.5845372    0.0004780    1.8395852  
C    1.2040006    0.0000008    2.1983588  
C    1.1422373   -0.0006037    3.6154372  
N    2.4348639   -0.0026109    4.0777464  
C   -0.0655181   -0.0008797    4.3197917  
C   -1.2321768   -0.0002324    3.5801400  
O   -2.4392816   -0.0001146    4.2172520  
C   -1.1911209    0.0000007    2.1655264  
O   -2.4371527    0.0002320    1.5732860  
C    0.0000000    0.0000000    1.4700000  
H    3.0031534    0.0000661    0.8477417  
H    2.7054629    0.0071099    5.0445261  
H   -0.1193549   -0.0014844    5.3997470  
H   -3.1132988    0.0000648    3.5251786  
H   -2.3200282    0.0004071    0.6183591  
H    4.3686625   -0.0004071    3.1724291  
