60

C    0.7572363    0.1909462   -8.8604862  
C    1.8469030   -0.4662121   -9.3832061  
C    1.9506906   -0.0772440  -10.7516115  
C    0.8882734    0.8265710  -11.0091276  
N    0.1818893    0.9657827   -9.8402582  
C    0.6818475    1.4141443  -12.2609004  
C    1.5641763    1.0835295  -13.2710345  
O    1.4090011    1.6287629  -14.5126683  
C    2.6301562    0.1834242  -13.0337295  
O    3.4216919   -0.0448692  -14.1403902  
C    2.8342433   -0.3968179  -11.7991476  
H    2.4874462   -1.1435622   -8.8447878  
H   -0.6224262    1.5534008   -9.7147051  
H   -0.1260557    2.1036267  -12.4636537  
H    2.1202146    1.2700172  -15.0592412  
H    4.1168553   -0.6629734  -13.8948318  
H    3.6593785   -1.0828282  -11.6474245  
C    2.0552328   -2.0117599   -5.3319189  
C    1.1441931   -1.6301400   -4.4067424  
C    0.2595427   -0.7123099   -5.1078001  
C    0.7977759   -0.6538170   -6.4838335  
N    1.8503501   -1.4135518   -6.6212388  
C    0.1930639    0.1584618   -7.5034477  
C   -0.8998977    0.8792305   -7.1639457  
O   -1.5649252    1.6797249   -8.0142325  
C   -1.4671326    0.8410360   -5.7837474  
O   -2.4638604    1.5229394   -5.5454999  
C   -0.8287665    0.0000939   -4.7555305  
H    1.0803196   -1.9340246   -3.3758935  
H   -2.2915648    2.0548233   -7.4846580  
H    2.8844091   -2.6899001   -5.2071572  
C    1.0672569   -0.0000698   -0.8321910  
C    0.0000000    0.0000000    0.0000000  
C   -1.1601223   -0.0000736   -0.8778472  
C   -0.5938729   -0.0000768   -2.2438435  
N    0.7113367   -0.0001553   -2.2234123  
C   -1.4286985   -0.0001877   -3.4135239  
C   -2.7683113   -0.0006798   -3.2270524  
O   -3.6653902   -0.0008302   -4.2276970  
C   -3.3702024   -0.0010610   -1.8610774  
O   -4.5974910   -0.0013779   -1.7662963  
C   -2.4926825   -0.0008943   -0.6770658  
H   -4.5324245   -0.0012258   -3.7833954  
H   -2.9677772   -0.0012974    0.2947961  
H    2.1134391   -0.0000547   -0.5705119  
C    0.8400945    0.7047457    2.2710304  
C    0.0000000    0.0000000    1.4700000  
C   -0.8844236   -0.7423113    2.3369512  
C   -0.4878984   -0.4098547    3.7186280  
N    0.5629682    0.4714286    3.6095011  
C   -1.0836927   -0.9095027    4.8308716  
C   -2.1891196   -1.8367527    4.6554461  
O   -2.7906899   -2.3413415    5.5944904  
C   -2.6257283   -2.2031529    3.2011665  
O   -3.5549479   -2.9829990    3.0410059  
C   -1.9068976   -1.5999348    2.0816745  
H   -0.7774656   -0.6525820    5.8354244  
H   -2.2155208   -1.8586617    1.0779135  
H    1.6384792    1.3747609    1.9961646  
H    1.0518368    0.8833920    4.3830260  
