62

C    5.0833961   -1.0820961   -6.7454068  
C    6.0892502   -1.9681714   -6.4362224  
C    6.7987102   -2.2311499   -7.6453997  
C    6.1751248   -1.4707958   -8.6676169  
N    5.1361663   -0.7862701   -8.0874394  
C    6.6133322   -1.4854301   -9.9952270  
C    7.7010450   -2.2819160  -10.2963422  
O    8.1705153   -2.3331111  -11.5769619  
C    8.3364110   -3.0481012   -9.2903158  
O    9.4054041   -3.7900917   -9.7486250  
C    7.9044800   -3.0343590   -7.9804411  
H    6.2866000   -2.3757951   -5.4595501  
H    4.5181843   -0.1554751   -8.5651181  
H    6.1423111   -0.9083313  -10.7790000  
H    8.9225724   -2.9394079  -11.5680385  
H    9.7774865   -4.2774665   -9.0072589  
H    8.4111152   -3.6319598   -7.2316608  
C    3.9135206   -0.7081242   -4.5250692  
C    2.8699641   -0.0020530   -4.0185824  
C    2.2916399    0.7390436   -5.1145536  
C    3.0895145    0.4044299   -6.3096355  
N    4.0568589   -0.4768156   -5.8847345  
C    2.8606214    0.9024534   -7.5511207  
C    1.7547620    1.8301065   -7.7216197  
O    1.4676781    2.3333360   -8.7998803  
C    0.8966363    2.1987795   -6.4696193  
O   -0.0368098    2.9789838   -6.6008451  
C    1.2404684    1.5971819   -5.1836520  
H    3.4577920    0.6439622   -8.4145320  
H    0.6412572    1.8574786   -4.3217268  
H    4.5900518   -1.3778175   -4.0193959  
C    3.2573670   -0.0002921   -1.5109382  
C    2.5379468   -0.0001711   -0.3591962  
C    1.1435043    0.0000330   -0.7338498  
C    1.1092608   -0.0000085   -2.2088474  
N    2.4227562    0.0001906   -2.6182610  
C   -0.0265533   -0.0002525   -2.9515663  
C   -1.3003033   -0.0002641   -2.2514979  
O   -2.3786785   -0.0004132   -2.8306425  
C   -1.2877724    0.0000310   -0.6895608  
O   -2.3539956    0.0003306   -0.0892035  
C    0.0000000    0.0000000    0.0000000  
H    2.9384091   -0.0000370    0.6389240  
H   -0.0296290   -0.0004088   -4.0327231  
H    4.3270394   -0.0004767   -1.6439445  
C    0.0000000    0.0000000    1.4700000  
C    1.0521667    0.0011902    2.3562342  
C    0.4917218    0.0011957    3.6679131  
C   -0.9187428   -0.0003148    3.5178682  
N   -1.1833171    0.0009411    2.1707914  
C   -1.7951701   -0.0010350    4.6072090  
C   -1.2375837   -0.0005224    5.8710424  
O   -2.0474215   -0.0015360    6.9697579  
C    0.1673580    0.0013566    6.0411963  
O    0.5673524    0.0020687    7.3615553  
C    1.0325770    0.0023412    4.9669890  
H    2.0953057    0.0030649    2.0900562  
H   -2.0989778   -0.0102372    1.7591824  
H   -2.8710934   -0.0020419    4.4995513  
H   -1.4634884   -0.0006497    7.7393593  
H    1.5290710    0.0033153    7.3880045  
H    2.1042148    0.0039609    5.1284455  
