66

C    0.5499242    3.4287106   -2.9707411  
C    0.2405510    4.6818167   -3.4466416  
C   -0.6606579    4.5020959   -4.5375692  
C   -0.8664746    3.1061110   -4.6817635  
N   -0.1153036    2.4835002   -3.7159915  
C   -1.7012541    2.5620611   -5.6625498  
C   -2.3401349    3.4433185   -6.5130763  
O   -3.1668487    2.9658180   -7.4885498  
C   -2.1472088    4.8394790   -6.3852774  
O   -2.8526202    5.5847866   -7.3073700  
C   -1.3236117    5.3768867   -5.4181127  
H   -1.8622064    1.4990354   -5.7777578  
H   -3.5044417    3.7372147   -7.9620948  
H   -2.6667618    6.5158778   -7.1520306  
H   -1.1952459    6.4504781   -5.3446126  
H    1.1935910    3.1343143   -2.1595801  
C    0.0000000    0.0000000    0.0000000  
C   -0.0495269    1.0510019   -0.8862338  
C   -0.0225082    0.4912087   -2.1979130  
C    0.0439685   -0.9176892   -2.0478683  
N    0.0579759   -1.1818962   -0.7007915  
C    0.0854927   -1.7931328   -3.1372093  
C    0.0591284   -1.2361695   -4.4010427  
O    0.0971502   -2.0451142   -5.4997580  
C   -0.0067138    0.1672299   -4.5711962  
O   -0.0252828    0.5667943   -5.8915547  
C   -0.0474338    1.0314906   -3.4969889  
H   -0.0979341    2.0930185   -0.6200556  
H    0.0909462   -2.0970312   -0.2891827  
H    0.1363470   -2.8678539   -3.0295519  
H    0.0698893   -1.4618173   -6.2693598  
H   -0.0703930    1.5274550   -5.9180040  
C    2.0461164    6.1627842   -2.4837794  
C    2.1678778    7.4579735   -2.0364239  
C    0.8919546    8.0753173   -2.1961321  
C    0.0239199    7.0996880   -2.7498360  
N    0.7570990    5.9506755   -2.9136543  
C   -1.3184149    7.3600614   -3.0416084  
C   -1.7932005    8.6283434   -2.7691796  
O   -3.0962044    8.9363484   -3.0343739  
C   -0.9425220    9.6154291   -2.2170697  
O   -1.5639655   10.8285156   -2.0035924  
C    0.3819004    9.3593470   -1.9292270  
H    3.0661442    7.9033868   -1.6443568  
H   -1.9851440    6.6208610   -3.4638141  
H   -3.2171794    9.8587499   -2.7739796  
H   -0.9205337   11.4382224   -1.6296183  
H    1.0093099   10.1355204   -1.5068639  
H    2.7771373    5.3739341   -2.5315598  
C    3.3003543   -0.0005276    2.9438989  
C    2.5232812   -0.0003497    4.0790748  
C    1.1623199    0.0001319    3.6520102  
C    1.1711883   -0.0000583    2.2336141  
N    2.4852299    0.0014920    1.8362361  
C    0.0000000    0.0000000    1.4700000  
C   -1.2020384   -0.0000520    2.1506477  
O   -2.3759250   -0.0003494    1.4542253  
C   -1.2314658    0.0005113    3.5655508  
O   -2.5054393    0.0008037    4.0950179  
C   -0.0764518    0.0007272    4.3195194  
H    2.8919952    0.0005619    5.0905303  
H    2.8036267   -0.0088181    0.8841339  
H   -3.0835639   -0.0000348    2.1118817  
H   -2.4360050    0.0011527    5.0545920  
H   -0.1304098    0.0013421    5.4019087  
H    4.3715549   -0.0004895    2.8367138  
