62

C    4.5508711   -0.3686291   -7.5763894  
C    3.9409652    0.8470596   -7.3700312  
C    4.6284446    1.8003141   -8.1782879  
C    5.6568697    1.1021169   -8.8615070  
N    5.5829248   -0.2121366   -8.4717798  
C    6.5361779    1.7295282   -9.7491780  
C    6.3741560    3.0864274   -9.9510486  
O    7.2051481    3.7487879  -10.8076376  
C    5.3541963    3.8005328   -9.2783308  
O    5.3221946    5.1452600   -9.5849728  
C    4.4865485    3.1822766   -8.4022755  
H    6.1803652   -0.9492700   -8.7999274  
H    7.3221482    1.2030608  -10.2729018  
H    6.9232057    4.6727673  -10.8017609  
H    4.6057001    5.5532899   -9.0892399  
H    3.7151083    3.7554242   -7.9014171  
H    4.3322667   -1.3346967   -7.1546261  
C    2.9067422   -0.7101580   -3.3086135  
C    3.5336653   -0.4560099   -4.5064632  
C    2.7085932    0.4617278   -5.2217350  
C    1.5825235    0.7340736   -4.4033704  
N    1.7334695    0.0049281   -3.2500363  
C    0.5573011    1.6016470   -4.7919883  
C    0.6710588    2.2055203   -6.0291518  
O   -0.3014527    3.0618684   -6.4579906  
C    1.7868414    1.9461793   -6.8601685  
O    1.7544365    2.6234900   -8.0616440  
C    2.7984884    1.0902015   -6.4775469  
H    4.4698821   -0.8807783   -4.8259364  
H   -0.3036232    1.8133010   -4.1729457  
H   -0.0300621    3.3668066   -7.3335620  
H    2.5430095    2.3928198   -8.5621909  
H    3.2029722   -1.3460436   -2.4920009  
C    1.1319246    0.0015678   -0.8009268  
C    0.7969914    0.0034958   -2.1169401  
C   -0.6453340    0.0035696   -2.1842669  
C   -1.1266832    0.0015410   -0.7896025  
N    0.0000000    0.0000000    0.0000000  
C   -2.4346129    0.0013913   -0.4276292  
C   -3.4350111    0.0031335   -1.4820181  
O   -4.6384614    0.0030875   -1.2583914  
C   -2.9478961    0.0050442   -2.9661074  
O   -3.7809382    0.0062135   -3.8623773  
C   -1.5113825    0.0053055   -3.2312122  
H   -2.7664565    0.0000174    0.6013448  
H   -1.1823533    0.0068381   -4.2614848  
H    2.1104316    0.0009435   -0.3488059  
C    0.8681109    0.7263879    2.2709268  
C    0.6127770    0.5096195    3.5869401  
C   -0.4920590   -0.4175482    3.6542670  
C   -0.8620974   -0.7254003    2.2596025  
N    0.0000000    0.0000000    1.4700000  
C   -1.8641242   -1.5660088    1.8976294  
C   -2.6293522   -2.2103885    2.9520183  
O   -3.5512764   -2.9839180    2.7283916  
C   -2.2549728   -1.8987399    4.4361073  
O   -2.8923672   -2.4351063    5.3323774  
C   -1.1543735   -0.9755647    4.7012123  
H    1.1382914    0.9492124    4.4159191  
H   -2.1192137   -1.7782617    0.8686553  
H   -0.9013378   -0.7652422    5.7314848  
H    1.6172880    1.3558399    1.8188057  
