60

C    7.6166428   -1.1430529   -4.5488648  
C    8.8815840   -0.7401072   -4.9094565  
C    8.8161613    0.6626008   -5.1599163  
C    7.4745392    1.0636430   -4.9337710  
N    6.7726139   -0.0573878   -4.5660651  
C    7.0442600    2.3851351   -5.0864405  
C    7.9855539    3.3188407   -5.4741769  
O    7.6194733    4.6235419   -5.6377405  
C    9.3289018    2.9380674   -5.7049232  
O   10.1452171    3.9829730   -6.0859031  
C    9.7540295    1.6345167   -5.5547669  
H    9.7449879   -1.3788331   -4.9839964  
H    6.0231393    2.6971944   -4.9157576  
H    8.4161964    5.0989933   -5.9068928  
H   11.0340712    3.6406980   -6.2215129  
H   10.7894500    1.3727604   -5.7387965  
H    7.2493939   -2.1192449   -4.2821515  
C    4.2926942   -2.1403413   -1.5040812  
C    5.3604709   -1.7320208   -2.2284477  
C    4.8134481   -0.8208703   -3.2219620  
C    3.3612075   -0.7952320   -2.9446112  
N    3.0500070   -1.5667026   -1.9386405  
C    2.4521483    0.0014840   -3.7217481  
C    2.9703735    0.7393569   -4.7298757  
O    2.2390463    1.5283420   -5.5352975  
C    4.4316781    0.7349405   -5.0343914  
O    4.8335663    1.4307757   -5.9668722  
C    5.3436401   -0.0906363   -4.2228046  
H    6.3919441   -2.0142020   -2.1038949  
H    2.8845131    1.9211529   -6.1502981  
H    4.2782631   -2.8230632   -0.6694220  
C    0.0000000    0.0000000    0.0000000  
C    1.0662923   -0.0000101   -0.8334270  
C    0.4961873    0.0000065   -2.1718887  
C   -0.9663854   -0.0000848   -1.9540250  
N   -1.2632773   -0.0000083   -0.6828660  
C   -1.8985359   -0.0000514   -3.0477261  
C   -1.3925770    0.0004566   -4.3020547  
O   -2.1456378    0.0005414   -5.4151314  
C    0.0786240    0.0009326   -4.5545000  
O    0.4683767    0.0012591   -5.7221100  
C    1.0143171    0.0008444   -3.4159031  
H    2.1107200    0.0000633   -0.5721865  
H   -2.9622181   -0.0003268   -2.8593381  
H   -1.5042265    0.0009697   -6.1484419  
C    3.2573670    0.0002920    2.9809380  
C    2.5379467    0.0001709    1.8291961  
C    1.1435042   -0.0000331    2.2038498  
C    1.1092607    0.0000083    3.6788474  
N    2.4227561   -0.0001909    4.0882609  
C   -0.0265533    0.0002524    4.4215661  
C   -1.3003036    0.0002640    3.7214979  
O   -2.3786784    0.0004133    4.3006425  
C   -1.2877726   -0.0000311    2.1595606  
O   -2.3539958   -0.0003306    1.5592035  
C    0.0000000    0.0000000    1.4700000  
H    2.9384090    0.0000368    0.8310761  
H   -0.0296291    0.0004086    5.5027230  
H    4.3270393    0.0004765    3.1139444  
H    2.7280493    0.0013407    5.0442112  
