62

C   -1.1252703    0.5589541   -9.0959919  
C   -0.1416006   -0.2810233   -9.5642856  
C   -0.2179357   -0.2583224  -10.9884547  
C   -1.2759146    0.6207652  -11.3345933  
N   -1.8066445    1.0981688  -10.1619768  
C   -1.6364197    0.8855866  -12.6592420  
C   -0.9155765    0.2516570  -13.6525675  
O   -1.2253239    0.4747105  -14.9630322  
C    0.1432177   -0.6291974  -13.3271949  
O    0.7640247   -1.1826189  -14.4279522  
C    0.4992390   -0.8911280  -12.0206082  
H    0.5456324   -0.8420539   -8.9544098  
H   -2.5658441    1.7514034  -10.0921102  
H   -2.4418477    1.5544396  -12.9296582  
H   -0.6097839   -0.0576940  -15.4835335  
H    1.4662098   -1.7641454  -14.1207599  
H    1.3146830   -1.5706861  -11.8021361  
C    0.5157024   -0.7055390   -5.2240921  
C   -0.2963293   -0.0005341   -4.3948471  
C   -1.2098550    0.7417636   -5.2310892  
C   -0.8609892    0.4090165   -6.6254931  
N    0.1928754   -0.4724049   -6.5523137  
C   -1.4945014    0.9085670   -7.7167386  
C   -2.5931301    1.8360107   -7.5036702  
O   -3.2264749    2.3405318   -8.4216212  
C   -2.9795611    2.2027194   -6.0353377  
O   -3.9026310    2.9827307   -5.8435417  
C   -2.2228514    1.5995819   -4.9410487  
H   -2.4968363    1.8585227   -3.9273399  
H    1.3229471   -1.3756270   -4.9766497  
H    0.6548727   -0.8845706   -7.3420756  
C    3.1301146   -0.0010313   -1.7028256  
C    2.5367765   -0.0002766   -0.4864669  
C    1.1089901    0.0001027   -0.7656184  
C    1.0177865   -0.0004150   -2.2415133  
N    2.1993571   -0.0011612   -2.7963824  
C   -0.2459219   -0.0002879   -2.9257116  
C   -1.3675326   -0.0000606   -2.1698520  
O   -2.6129318    0.0000865   -2.6748483  
C   -1.3083588    0.0000910   -0.6783229  
O   -2.3693264    0.0004206   -0.0541685  
C    0.0000000    0.0000000    0.0000000  
H    3.0096016   -0.0001007    0.4807518  
H   -3.1967444    0.0002093   -1.8949026  
H    4.1849275   -0.0015114   -1.9271979  
C    0.8676693    0.7151171    2.2619005  
C    0.5875920    0.4624972    3.5848544  
C   -0.5048400   -0.4542819    3.6114698  
C   -0.8517165   -0.7276451    2.2635546  
N    0.0000000    0.0000000    1.4700000  
C   -1.8902865   -1.5946756    1.9108239  
C   -2.5912627   -2.1969500    2.9375057  
O   -3.6148162   -3.0527051    2.6493466  
C   -2.2603868   -1.9365747    4.2886322  
O   -3.0513550   -2.6123276    5.1947621  
C   -1.2361111   -1.0811317    4.6373480  
H    1.1060808    0.8876438    4.4271209  
H   -2.1597133   -1.8070987    0.8854031  
H   -3.9636755   -3.3565188    3.4974381  
H   -2.7621927   -2.3810384    6.0827341  
H   -1.0058879   -0.9010589    5.6809233  
H    1.6167816    1.3499334    1.8205408  
