62

C    9.9435062    0.7183799   -1.3238083  
C    9.0088291    0.0003153   -0.6144217  
C    9.7160789   -0.7282852    0.3873467  
C   11.0908578   -0.4120298    0.2393966  
N   11.1941302    0.4673076   -0.8097543  
C   12.0839081   -0.9519803    1.0622545  
C   11.6817670   -1.8268956    2.0527007  
O   12.6101412   -2.3829233    2.8845464  
C   10.3148388   -2.1550854    2.2158464  
O   10.0749432   -3.0405796    3.2462313  
C    9.3346598   -1.6229989    1.4042691  
H   12.0486619    0.8760630   -1.1424346  
H   13.1334234   -0.7150804    0.9545639  
H   12.1240327   -2.9545466    3.4929944  
H    9.1286772   -3.2091520    3.2882838  
H    8.2957537   -1.8931909    1.5530941  
H    9.8171757    1.3886621   -2.1567075  
C    6.6682521    0.0023718   -4.3668309  
C    5.4175873    0.0024209   -3.7938519  
C    5.6072942    0.0015614   -2.3801297  
C    7.0065885    0.0012979   -2.1479616  
N    7.6213759   -0.0001475   -3.3754192  
C    7.5601869    0.0007872   -0.8640939  
C    6.6852683    0.0008451    0.2048751  
O    7.1721939    0.0007113    1.4799901  
C    5.2859247    0.0007309   -0.0064394  
O    4.5477721    0.0003831    1.1590970  
C    4.7390840    0.0009613   -1.2727298  
H    4.4834516    0.0018991   -4.3290000  
H    8.6137258    0.0099132   -3.5274774  
H    6.4039032    0.0004827    2.0656480  
H    3.6139327    0.0003544    0.9276924  
H    6.9558180    0.0024887   -5.4042627  
C    3.2798077    0.0005856   -1.4499661  
C    2.5571132    0.0005565   -2.5996564  
C    1.1637425    0.0001547   -2.2210366  
C    1.1336959   -0.0000200   -0.7459475  
N    2.4483509   -0.0001429   -0.3402730  
C    0.0000000    0.0000000    0.0000000  
C   -1.2757370   -0.0000187   -0.6964411  
O   -2.3524597   -0.0000640   -0.1142306  
C   -1.2676502   -0.0000874   -2.2584078  
O   -2.3355774   -0.0004102   -2.8557287  
C    0.0181551    0.0001758   -2.9516297  
H    2.9547342    0.0006074   -3.5989118  
H    0.0150776    0.0003317   -4.0331632  
H    2.7563626    0.0012823    0.6148051  
C    0.8400945    0.7047457    2.2710304  
C    0.0000000    0.0000000    1.4700000  
C   -0.8844236   -0.7423113    2.3369512  
C   -0.4878984   -0.4098547    3.7186280  
N    0.5629682    0.4714286    3.6095011  
C   -1.0836927   -0.9095027    4.8308716  
C   -2.1891196   -1.8367527    4.6554461  
O   -2.7906899   -2.3413415    5.5944904  
C   -2.6257283   -2.2031529    3.2011665  
O   -3.5549479   -2.9829990    3.0410059  
C   -1.9068976   -1.5999348    2.0816745  
H   -0.7774656   -0.6525820    5.8354244  
H   -2.2155208   -1.8586617    1.0779135  
H    1.6384792    1.3747609    1.9961646  
H    1.0518368    0.8833920    4.3830260  
