66

C    3.8878171   -0.7221148   -4.5427236  
C    3.9719337   -0.4862747   -5.8954138  
C    2.9171614    0.4147688   -6.2273415  
C    2.2168612    0.6962704   -5.0263989  
N    2.8310664   -0.0116219   -4.0232752  
C    1.1122536    1.5520021   -4.9778752  
C    0.7074032    2.1344024   -6.1632379  
O   -0.3652170    2.9784456   -6.1726998  
C    1.3930197    1.8656306   -7.3717527  
O    0.8682192    2.5214017   -8.4662354  
C    2.4826540    1.0213229   -7.4204129  
H    4.7028569   -0.9122317   -6.5612259  
H    0.5741181    1.7705381   -4.0658152  
H   -0.4758800    3.2691039   -7.0873239  
H    1.3885192    2.2856102   -9.2403773  
H    4.4971337   -1.3420430   -3.9076007  
C    3.3041274    0.0001177   -1.5420430  
C    2.5845373   -0.0004778   -0.3695855  
C    1.2040006   -0.0000008   -0.7283592  
C    1.1422375    0.0006035   -2.1454376  
N    2.4348638    0.0026109   -2.6077464  
C   -0.0655181    0.0008796   -2.8497921  
C   -1.2321767    0.0002321   -2.1101403  
O   -2.4392814    0.0001145   -2.7472524  
C   -1.1911210   -0.0000008   -0.6955263  
O   -2.4371527   -0.0002321   -0.1032858  
C    0.0000000    0.0000000    0.0000000  
H    3.0031536   -0.0000661    0.6222578  
H   -0.1193548    0.0014841   -3.9297472  
H   -3.1132988   -0.0000651   -2.0551785  
H   -2.3200279   -0.0004072    0.8516404  
H    4.3686625    0.0004071   -1.7024291  
C    3.1675459    0.7677847   -8.6961645  
C    4.2559988   -0.0258358   -8.9752775  
C    4.5069036    0.0887467  -10.3747480  
C    3.5313530    0.9735300  -10.9014228  
N    2.7329170    1.3657868   -9.8558367  
C    3.4760148    1.3191781  -12.2550307  
C    4.4229216    0.7617213  -13.0921604  
O    4.4149295    1.0654852  -14.4228285  
C    5.4040669   -0.1234571  -12.5855734  
O    6.2758982   -0.5949830  -13.5452182  
C    5.4590915   -0.4651044  -11.2503671  
H    4.8013094   -0.6157345   -8.2585843  
H    1.9594099    2.0022739   -9.9233088  
H    2.7349295    1.9928188  -12.6627113  
H    5.1482744    0.5769593  -14.8188248  
H    6.9055974   -1.1853524  -13.1203104  
H    6.2221152   -1.1458927  -10.8914786  
C    0.0000000    0.0000000    1.4700000  
C    1.0521667    0.0011902    2.3562342  
C    0.4917218    0.0011957    3.6679131  
C   -0.9187428   -0.0003148    3.5178682  
N   -1.1833171    0.0009411    2.1707914  
C   -1.7951701   -0.0010350    4.6072090  
C   -1.2375837   -0.0005224    5.8710424  
O   -2.0474215   -0.0015360    6.9697579  
C    0.1673580    0.0013566    6.0411963  
O    0.5673524    0.0020687    7.3615553  
C    1.0325770    0.0023412    4.9669890  
H    2.0953057    0.0030649    2.0900562  
H   -2.0989778   -0.0102372    1.7591824  
H   -2.8710934   -0.0020419    4.4995513  
H   -1.4634884   -0.0006497    7.7393593  
H    1.5290710    0.0033153    7.3880045  
H    2.1042148    0.0039609    5.1284455  
