64

C    8.9591746   -0.0000698   -3.9381539  
C    9.6899413   -0.0002463   -2.7726295  
C   11.0669850    0.0002710   -3.1445860  
C   11.1151961    0.0010411   -4.5621901  
N    9.8182101   -0.0011395   -5.0121214  
C   12.3161624    0.0020059   -5.2780588  
C   13.4898399    0.0025037   -4.5495947  
O   14.6907972    0.0037981   -5.1982179  
C   13.4623096    0.0013745   -3.1346540  
O   14.7139468    0.0016337   -2.5543535  
C   12.2778944    0.0001491   -2.4277717  
H    9.2808279   -0.0017982   -1.7768301  
H    9.5383762    0.0093709   -5.9762604  
H   12.3596721    0.0024520   -6.3584802  
H   15.3714006    0.0036399   -4.5126203  
H   14.6059589    0.0008467   -1.5983506  
H   12.2882555   -0.0008797   -1.3440882  
C    5.5836005   -0.0008283   -1.0808164  
C    4.5679461   -0.0016854   -2.0086701  
C    5.1807168   -0.0015774   -3.2967356  
C    6.5840020   -0.0009184   -3.0900574  
N    6.7941555    0.0014752   -1.7334266  
C    7.5035523   -0.0009457   -4.1432500  
C    6.9972727   -0.0019580   -5.4284957  
O    7.8506653   -0.0023823   -6.4937351  
C    5.6003144   -0.0022513   -5.6550445  
O    5.2537724   -0.0028624   -6.9904295  
C    4.6925710   -0.0019516   -4.6165225  
H    7.6925274   -0.0081207   -1.2853002  
H    7.2981725   -0.0027861   -7.2862094  
H    4.2938963   -0.0030532   -7.0555554  
H    3.6282967   -0.0020065   -4.8209692  
H    5.5402820   -0.0002319   -0.0051387  
C    3.1301149   -0.0010311   -1.7028252  
C    2.5367768   -0.0002767   -0.4864665  
C    1.1089904    0.0001028   -0.7656183  
C    1.0177872   -0.0004148   -2.2415132  
N    2.1993578   -0.0011611   -2.7963820  
C   -0.2459209   -0.0002877   -2.9257118  
C   -1.3675319   -0.0000605   -2.1698524  
O   -2.6129313    0.0000867   -2.6748490  
C   -1.3083584    0.0000910   -0.6783232  
O   -2.3693261    0.0004206   -0.0541692  
C    0.0000000    0.0000000    0.0000000  
H    3.0096017   -0.0001007    0.4807525  
H   -0.2829630   -0.0004687   -4.0053125  
H   -3.1967441    0.0002094   -1.8949034  
C    0.8576279    0.7185626    2.2703808  
C    0.0000000    0.0000000    1.4700000  
C   -0.8668858   -0.7285659    2.3373528  
C   -0.4876752   -0.4117774    3.6669281  
N    0.5635254    0.4678311    3.5902241  
C   -1.1297612   -0.9515493    4.7854808  
C   -2.1738724   -1.8268314    4.5576857  
O   -2.8357962   -2.3827064    5.6140350  
C   -2.5667212   -2.1555554    3.2384331  
O   -3.6226318   -3.0413663    3.1773122  
C   -1.9335634   -1.6236449    2.1344818  
H    1.0363952    0.8769718    4.3757045  
H   -0.8454472   -0.7142436    5.8013813  
H   -3.5178062   -2.9546422    5.2385129  
H   -3.8247440   -3.2102924    2.2519915  
H   -2.2566033   -1.8942483    1.1360343  
H    1.6567807    1.3889844    2.0042067  
