62

C    1.7472395   -2.4124123   -7.7815808  
C    1.3137322   -1.1096722   -7.6955144  
C    1.6512411   -0.4762558   -8.9281826  
C    2.2941488   -1.4503076   -9.7342959  
N    2.3377040   -2.6139316   -9.0071785  
C    2.7641257   -1.1756266  -11.0221084  
C    2.5814971    0.1056135  -11.5050675  
O    3.0209349    0.4278869  -12.7564858  
C    1.9426681    1.0913514  -10.7157407  
O    1.8365543    2.3183894  -11.3374009  
C    1.4790151    0.8211516   -9.4450936  
H    2.7273787   -3.4828064   -9.3252849  
H    3.2550779   -1.9135503  -11.6414935  
H    2.7970572    1.3576045  -12.8934806  
H    1.3938730    2.9261600  -10.7371913  
H    0.9937874    1.5966490   -8.8640296  
H    1.6832456   -3.2133996   -7.0651430  
C    0.9350738   -0.7259371   -5.2319057  
C    0.6347946   -0.5089057   -6.5383532  
C   -0.4715643    0.4184294   -6.5675990  
C   -0.7935155    0.7260931   -5.1610139  
N    0.0950446    0.0004351   -4.4015596  
C   -1.7824171    1.5667801   -4.7647528  
C   -2.5832566    2.2114497   -5.7921729  
O   -3.4968565    2.9850705   -5.5369346  
C   -2.2600339    1.9000041   -7.2882794  
O   -2.9277087    2.4366153   -8.1620754  
C   -1.1693081    0.9767197   -7.5911235  
H   -2.0020411    1.7788917   -3.7276008  
H   -0.9517810    0.7665393   -8.6295016  
H    1.6992217   -1.3555725   -4.8058458  
C    3.3321173    0.0004713   -1.3379338  
C    2.6974181    0.0000116   -2.5332314  
C    1.2800438   -0.0002119   -2.2052841  
C    1.2395034    0.0000643   -0.7271299  
N    2.4394062    0.0005460   -0.2131038  
C    0.0000000    0.0000000    0.0000000  
C   -1.1468702    0.0000634   -0.7169543  
O   -2.3742203    0.0000074   -0.1695487  
C   -1.1388770    0.0001607   -2.2096355  
O   -2.2206234    0.0000905   -2.7970411  
C    0.1454522    0.0001815   -2.9324241  
H    3.1367984   -0.0000653   -3.5160950  
H   -2.9844346    0.0001026   -0.9290167  
H    4.3940038    0.0007618   -1.1498640  
C    0.0000000    0.0000000    1.4700000  
C    1.0521667    0.0011902    2.3562342  
C    0.4917218    0.0011957    3.6679131  
C   -0.9187428   -0.0003148    3.5178682  
N   -1.1833171    0.0009411    2.1707914  
C   -1.7951701   -0.0010350    4.6072090  
C   -1.2375837   -0.0005224    5.8710424  
O   -2.0474215   -0.0015360    6.9697579  
C    0.1673580    0.0013566    6.0411963  
O    0.5673524    0.0020687    7.3615553  
C    1.0325770    0.0023412    4.9669890  
H    2.0953057    0.0030649    2.0900562  
H   -2.0989778   -0.0102372    1.7591824  
H   -2.8710934   -0.0020419    4.4995513  
H   -1.4634884   -0.0006497    7.7393593  
H    1.5290710    0.0033153    7.3880045  
H    2.1042148    0.0039609    5.1284455  
