60

C    6.2061642   -3.2284704   -9.0399009  
C    6.5428173   -2.4614218  -10.1311247  
C    6.1516050   -1.1220234   -9.8352113  
C    5.5772663   -1.1330581   -8.5383155  
N    5.6243992   -2.4279641   -8.0848685  
C    5.0800927    0.0189842   -7.9215452  
C    5.1645201    1.2038022   -8.6267091  
O    4.6945185    2.3586739   -8.0713873  
C    5.7338213    1.2350112   -9.9219850  
O    5.7450637    2.4903569  -10.4941071  
C    6.2242483    0.0988326  -10.5311696  
H    7.0115802   -2.8230015  -11.0302987  
H    5.2979384   -2.7412729   -7.1886305  
H    4.8482461    3.0565379   -8.7214774  
H    6.1454658    2.4235015  -11.3663521  
H    6.6545706    0.1536416  -11.5242940  
H    6.3337010   -4.2835009   -8.8678458  
C    6.1923726   -2.0934465   -4.2359235  
C    5.2191579   -1.6310079   -3.4094375  
C    4.3967570   -0.7348791   -4.1875409  
C    4.9747510   -0.7130130   -5.5448310  
N    6.0607565   -1.5568761   -5.5077370  
C    4.4832131    0.0165646   -6.5781804  
C    3.3064982    0.8350540   -6.3374475  
O    2.7884378    1.5278083   -7.2034761  
C    2.6779835    0.8273398   -4.9075121  
O    1.6873118    1.5127140   -4.6928207  
C    3.2973506   -0.0000934   -3.8752374  
H    5.0920135   -1.8881513   -2.3729410  
H    6.9947907   -2.7809153   -4.0228480  
H    6.6635527   -1.7542842   -6.2853701  
C    3.3321174    0.0004714   -1.3379332  
C    2.6974186    0.0000115   -2.5332308  
C    1.2800441   -0.0002119   -2.2052838  
C    1.2395035    0.0000643   -0.7271293  
N    2.4394063    0.0005458   -0.2131034  
C    0.0000000    0.0000000    0.0000000  
C   -1.1468701    0.0000634   -0.7169542  
O   -2.3742201    0.0000072   -0.1695492  
C   -1.1388767    0.0001606   -2.2096354  
O   -2.2206229    0.0000903   -2.7970413  
C    0.1454526    0.0001815   -2.9324239  
H   -2.9844344    0.0001023   -0.9290168  
H    0.1083580    0.0003680   -4.0135594  
H    4.3940040    0.0007617   -1.1498630  
C    2.3971438    2.0127888    3.1728260  
C    1.9431056    1.6308205    1.9564670  
C    0.8496017    0.7127664    2.2356185  
C    0.7794028    0.6545384    3.7115134  
N    1.6840587    1.4146091    4.2663826  
C   -0.1885723   -0.1578550    4.3957118  
C   -1.0476298   -0.8789867    3.6398520  
O   -2.0015663   -1.6796266    4.1448486  
C   -1.0022026   -0.8410666    2.1483229  
O   -1.8147390   -1.5232959    1.5241687  
C    0.0000000    0.0000000    1.4700000  
H    2.3054237    1.9346118    0.9892483  
H   -0.2170646   -0.1815267    5.4753125  
H   -2.4487139   -2.0549881    3.3649027  
H    3.2048689    2.6911772    3.3971983  
