60

C    5.9454585   -1.1114272   -2.6806134  
C    6.0880238   -1.9961313   -1.6368507  
C    7.4838714   -2.2548724   -1.4980605  
C    8.1492318   -1.4934656   -2.4927865  
N    7.1856147   -0.8124171   -3.1943783  
C    9.5384456   -1.5041521   -2.6501450  
C   10.2693179   -2.2976992   -1.7874247  
O   11.6290376   -2.3449894   -1.8966963  
C    9.6236101   -3.0648756   -0.7887666  
O   10.4892695   -3.8036058   -0.0088601  
C    8.2531338   -3.0550277   -0.6331262  
H    5.2846830   -2.4055848   -1.0486462  
H    7.3591026   -0.1818055   -3.9560946  
H   10.0515912   -0.9262313   -3.4063799  
H   11.9373310   -2.9497515   -1.2093222  
H    9.9729855   -4.2919103    0.6396878  
H    7.7867291   -3.6532964    0.1408368  
C    3.4580102   -0.7268418   -2.8377765  
C    4.7325006   -0.5102410   -3.2535084  
C    4.6631581    0.4171288   -4.3580504  
C    3.2335493    0.7252822   -4.5531164  
N    2.5562217   -0.0001543   -3.6003001  
C    2.7508569    1.5661438   -5.5026767  
C    3.7028855    2.2104977   -6.3920505  
O    3.3673536    2.9842416   -7.2792027  
C    5.2217702    1.8985319   -6.2037114  
O    6.0326417    2.4348740   -6.9467365  
C    5.6204820    0.9751007   -5.1443931  
H    1.6983100    1.7786156   -5.6288123  
H    6.6740644    0.7645596   -5.0204554  
H    3.1016696   -1.3563639   -2.0386442  
C    0.0000000    0.0000000    0.0000000  
C    1.0541688   -0.0001719   -0.8560391  
C    0.5103141   -0.0000449   -2.1935955  
C   -0.9576367    0.0002461   -2.0455733  
N   -1.2018459   -0.0001392   -0.6915970  
C   -1.8348306    0.0008319   -3.0810611  
C   -1.2972842    0.0009739   -4.4314605  
O   -2.0050664    0.0014267   -5.4301321  
C    0.2542628    0.0004190   -4.6117571  
O    0.7184677    0.0002263   -5.7439119  
C    1.0974556    0.0000880   -3.4189127  
H    2.0940752   -0.0005479   -0.5817978  
H   -2.9081050    0.0011669   -2.9507065  
H   -2.1128195    0.0014911   -0.2706793  
C    3.2798086   -0.0005857    2.9199648  
C    2.5571146   -0.0005566    4.0696553  
C    1.1637436   -0.0001548    3.6910360  
C    1.1336965    0.0000200    2.2159470  
N    2.4483514    0.0001428    1.8102719  
C    0.0000000    0.0000000    1.4700000  
C   -1.2757367    0.0000186    2.1664417  
O   -2.3524596    0.0000640    1.5842315  
C   -1.2676493    0.0000873    3.7284083  
O   -2.3355761    0.0004100    4.3257297  
C    0.0181563   -0.0001760    4.4216297  
H    2.9547357   -0.0006076    5.0689105  
H    0.0150794   -0.0003319    5.5031631  
H    4.3498549   -0.0008612    2.7900019  
H    2.7563627   -0.0012824    0.8551938  
