60

C   -4.1486379   -2.1190861   -7.0743087  
C   -4.7442444   -1.6193958   -8.2092224  
C   -5.7874951   -0.7456383   -7.7816990  
C   -5.7805766   -0.7519335   -6.3633067  
N   -4.7745868   -1.5975371   -5.9663716  
C   -6.6781274    0.0000521   -5.5992983  
C   -7.5992481    0.7726991   -6.2795411  
O   -8.4986376    1.5267260   -5.5827228  
C   -7.6221617    0.7919148   -7.6944340  
O   -8.5986296    1.6104336   -8.2234719  
C   -6.7371817    0.0501052   -8.4487919  
H   -4.4622744   -1.8564451   -9.2208024  
H   -4.5239672   -1.7946894   -5.0143727  
H   -9.0411232    1.9814531   -6.2401405  
H   -8.5456446    1.5660611   -9.1830698  
H   -6.7789266    0.0848668   -9.5311629  
H   -3.3277728   -2.8073647   -6.9674840  
C   -3.3460096   -0.0004265   -2.7913646  
C   -3.9807087   -0.0008721   -1.5960670  
C   -5.3980828   -0.0011001   -1.9240145  
C   -5.4386233   -0.0006191   -3.4021688  
N   -4.2387208   -0.0003037   -3.9161950  
C   -6.6781272   -0.0007185   -4.1292983  
C   -7.8249972   -0.0016619   -3.4123443  
O   -9.0523475   -0.0018582   -3.9597491  
C   -7.8170032   -0.0025381   -1.9196636  
O   -8.8987494   -0.0032515   -1.3322578  
C   -6.5326743   -0.0023732   -1.1968748  
H   -3.5413285   -0.0011174   -0.6132038  
H   -9.6625607   -0.0026196   -3.2002823  
H   -6.5697686   -0.0031430   -0.1157395  
C    0.0000000    0.0000000    0.0000000  
C    1.0662919   -0.0000103   -0.8334269  
C    0.4961869    0.0000064   -2.1718889  
C   -0.9663859   -0.0000850   -1.9540246  
N   -1.2632774   -0.0000084   -0.6828657  
C   -1.8985363   -0.0000518   -3.0477257  
C   -1.3925778    0.0004564   -4.3020545  
O   -2.1456384    0.0005409   -5.4151311  
C    0.0786230    0.0009323   -4.5544998  
O    0.4683758    0.0012588   -5.7221098  
C    1.0143164    0.0008442   -3.4159030  
H    2.1107195    0.0000633   -0.5721867  
H   -1.5042275    0.0009691   -6.1484418  
H    2.0724152    0.0013148   -3.6409744  
C    3.3321173   -0.0004715    2.8079335  
C    2.6974184   -0.0000116    4.0032312  
C    1.2800439    0.0002118    3.6752840  
C    1.2395035   -0.0000644    2.1971295  
N    2.4394063   -0.0005460    1.6831036  
C    0.0000000    0.0000000    1.4700000  
C   -1.1468701   -0.0000635    2.1869543  
O   -2.3742202   -0.0000073    1.6395491  
C   -1.1388768   -0.0001607    3.6796354  
O   -2.2206231   -0.0000905    4.2670412  
C    0.1454524   -0.0001816    4.4024240  
H    3.1367986    0.0000651    4.9860947  
H   -2.9844344   -0.0001026    2.3990168  
H    0.1083576   -0.0003682    5.4835595  
H    4.3940039   -0.0007619    2.6198634  
