62

C   -0.0307358   -0.0004643   -4.4215602  
C    1.0189053   -0.0016745   -5.3107841  
C    0.4547307   -0.0019269   -6.6208635  
C   -0.9553011   -0.0005395   -6.4668059  
N   -1.2160420   -0.0016280   -5.1189819  
C   -1.8348247   -0.0000666   -7.5536491  
C   -1.2808357   -0.0007044   -8.8190642  
O   -2.0937964    0.0000674   -9.9154713  
C    0.1236162   -0.0024638   -8.9932144  
O    0.5198527   -0.0033255  -10.3147053  
C    0.9918880   -0.0032045   -7.9214728  
H    2.0627975   -0.0034036   -5.0475750  
H   -2.1305290    0.0095157   -4.7047714  
H   -2.9104370    0.0008455   -7.4429316  
H   -1.5120550   -0.0008701  -10.6867310  
H    1.4814922   -0.0044772  -10.3438913  
H    2.0630623   -0.0047375   -8.0859770  
C    3.2573667   -0.0002917   -1.5109384  
C    2.5379466   -0.0001708   -0.3591963  
C    1.1435040    0.0000333   -0.7338502  
C    1.1092604   -0.0000080   -2.2088477  
N    2.4227557    0.0001912   -2.6182616  
C   -0.0265537   -0.0002520   -2.9515661  
C   -1.3003040   -0.0002638   -2.2514979  
O   -2.3786786   -0.0004130   -2.8306424  
C   -1.2877728    0.0000313   -0.6895606  
O   -2.3539959    0.0003306   -0.0892032  
C    0.0000000    0.0000000    0.0000000  
H    2.9384091   -0.0000367    0.6389235  
H    2.7280487   -0.0013403   -3.5742117  
C    5.6484574   -0.0000684   -0.6807741  
C    4.7161330   -0.0005432   -1.6923264  
C    5.4371286    0.0004112   -2.9230839  
C    6.8175145    0.0011688   -2.5968004  
N    6.9105280    0.0028043   -1.2271423  
C    7.8240135    0.0018990   -3.5672366  
C    7.4298419    0.0015569   -4.8911724  
O    8.3714603    0.0018868   -5.8792858  
C    6.0574639    0.0011775   -5.2367103  
O    5.8267419    0.0012908   -6.5968986  
C    5.0639872    0.0007302   -4.2798776  
H    7.7671525   -0.0069125   -0.7036150  
H    8.8778473    0.0026226   -3.3250876  
H    7.8889783    0.0018587   -6.7162297  
H    4.8759896    0.0009883   -6.7441180  
H    4.0211712    0.0006283   -4.5748590  
H    5.5130317   -0.0001058    0.3872238  
C    0.0000000    0.0000000    1.4700000  
C    1.0662921    0.0000102    2.3034270  
C    0.4961870   -0.0000064    3.6418889  
C   -0.9663858    0.0000850    3.4240247  
N   -1.2632773    0.0000084    2.1528658  
C   -1.8985362    0.0000517    4.5177257  
C   -1.3925775   -0.0004564    5.7720543  
O   -2.1456383   -0.0005410    6.8851312  
C    0.0786232   -0.0009323    6.0245000  
O    0.4683759   -0.0012588    7.1921102  
C    1.0143166   -0.0008442    4.8859032  
H    2.1107198   -0.0000632    2.0421868  
H   -2.9622183    0.0003270    4.3293377  
H   -1.5042274   -0.0009692    7.6184419  
H    2.0724152   -0.0013148    5.1109744  
