60

C    2.5432474   -2.1201839   -5.9711738  
C    1.9944233   -1.6589125   -4.7970838  
C    0.9351222   -0.7723427   -5.1527170  
C    0.8841191   -0.7320295   -6.5696505  
N    1.8752704   -1.5601472   -7.0349012  
C   -0.0438064    0.0435294   -7.2712560  
C   -0.9367047    0.7917924   -6.5289536  
O   -1.8641931    1.5666222   -7.1633176  
C   -0.9013486    0.7650563   -5.1144385  
O   -1.8552613    1.5646082   -4.5193668  
C    0.0139746    0.0003883   -4.4216235  
H    2.3185015   -1.9274449   -3.8061970  
H    2.0737737   -1.7411560   -8.0022747  
H   -0.0877729    0.0787063   -8.3510857  
H   -2.3791717    1.9990292   -6.4697144  
H   -1.7628468    1.4891551   -3.5647096  
H    3.3592557   -2.8032527   -6.1339813  
C    3.2798087    0.0005858   -1.4499643  
C    2.5571149    0.0005569   -2.5996548  
C    1.1637440    0.0001551   -2.2210358  
C    1.1336966   -0.0000198   -0.7459468  
N    2.4483512   -0.0001426   -0.3402714  
C    0.0000000    0.0000000    0.0000000  
C   -1.2757369   -0.0000185   -0.6964416  
O   -2.3524599   -0.0000639   -0.1142315  
C   -1.2676492   -0.0000870   -2.2584080  
O   -2.3355760   -0.0004099   -2.8557298  
C    0.0181565    0.0001762   -2.9516296  
H    2.9547360    0.0006079   -3.5989102  
H    2.7563627    0.0012824    0.6148067  
C    6.6317386    0.0027581   -4.3241585  
C    5.4016588    0.0020956   -3.7488515  
C    5.6054528    0.0015088   -2.3194099  
C    7.0655613    0.0019157   -2.1075768  
N    7.6303551    0.0022720   -3.3621277  
C    7.6659175    0.0019600   -0.8904996  
C    6.8173811    0.0013554    0.2895518  
O    7.2622818    0.0012827    1.4298867  
C    5.2683492    0.0006651    0.0887905  
O    4.5438183   -0.0001539    1.0748507  
C    4.7390849    0.0009618   -1.2727274  
H    4.4591036    0.0018436   -4.2667349  
H    8.7388162    0.0023916   -0.7570919  
H    6.8927439    0.0033438   -5.3699912  
H    8.6161405    0.0041529   -3.5499348  
C    2.5128556    2.1077716    2.9199648  
C    1.9592212    1.6432552    4.0696553  
C    0.8915788    0.7479214    3.6910360  
C    0.8684491    0.7287414    2.2159470  
N    1.8754542    1.5738793    1.8102719  
C    0.0000000    0.0000000    1.4700000  
C   -0.9772830   -0.8200135    2.1664417  
O   -1.8021297   -1.5120829    1.5842315  
C   -0.9711318   -0.8147624    3.7284083  
O   -1.7894187   -1.5009653    4.3257297  
C    0.0140216    0.0115358    4.4216297  
H    2.2638494    1.8988021    5.0689105  
H    0.0117648    0.0094386    5.5031631  
H    3.3327358    2.7953732    2.7900019  
H    2.1123206    1.7707734    0.8551938  
