64

C    7.6426516   -0.9060431   -4.5468438  
C    6.7983741    0.1789852   -4.5956018  
C    7.5953568    1.3116846   -4.9367940  
C    8.9291714    0.8525674   -5.0853677  
N    8.9229250   -0.4980892   -4.8397969  
C    9.9881681    1.7013656   -5.4213073  
C    9.6953011    3.0379354   -5.6110113  
O   10.6917122    3.9105422   -5.9407632  
C    8.3707996    3.5151674   -5.4669231  
O    8.2412851    4.8707867   -5.6879809  
C    7.3256248    2.6784254   -5.1352620  
H    9.7259696   -1.0992322   -4.8813607  
H   11.0069695    1.3576892   -5.5359025  
H   10.2772514    4.7791113   -6.0248741  
H    7.3171014    5.1111262   -5.5708254  
H    6.3215385    3.0728421   -5.0317057  
H    7.4331255   -1.9384127   -4.3248730  
C    4.5241710   -2.0197348   -1.5987489  
C    3.2543048   -1.6359764   -1.8666075  
C    3.3687740   -0.7183911   -2.9897432  
C    4.8178232   -0.6623650   -3.2790555  
N    5.5001626   -1.4232180   -2.4669565  
C    5.3513653    0.1489625   -4.3383793  
C    4.4770152    0.8711784   -5.0754343  
O    4.8354296    1.6710198   -6.0941751  
C    3.0088452    0.8354824   -4.8082935  
O    2.2716040    1.5186018   -5.5189579  
C    2.4861704   -0.0045255   -3.7159919  
H    2.3514149   -1.9383095   -1.3641535  
H    3.9981221    2.0475216   -6.4202358  
H    4.8653811   -2.6984182   -0.8332831  
C    0.0000000    0.0000000    0.0000000  
C    1.0521669   -0.0011848   -0.8862341  
C    0.4917221   -0.0011931   -2.1979130  
C   -0.9187427    0.0003100   -2.0478683  
N   -1.1833170   -0.0009472   -0.7007915  
C   -1.7951698    0.0010259   -3.1372090  
C   -1.2375835    0.0005161   -4.4010425  
O   -2.0474208    0.0015256   -5.4997580  
C    0.1673584   -0.0013557   -4.5711962  
O    0.5673529   -0.0020659   -5.8915551  
C    1.0325773   -0.0023359   -3.4969890  
H    2.0953059   -0.0030542   -0.6200560  
H   -2.0989777    0.0102265   -0.2891825  
H   -2.8710930    0.0020274   -3.0295514  
H   -1.4634881    0.0006427   -6.2693593  
H    1.5290715   -0.0033076   -5.9180042  
C    0.0000000    0.0000000    1.4700000  
C    1.0521667    0.0011902    2.3562342  
C    0.4917218    0.0011957    3.6679131  
C   -0.9187428   -0.0003148    3.5178682  
N   -1.1833171    0.0009411    2.1707914  
C   -1.7951701   -0.0010350    4.6072090  
C   -1.2375837   -0.0005224    5.8710424  
O   -2.0474215   -0.0015360    6.9697579  
C    0.1673580    0.0013566    6.0411963  
O    0.5673524    0.0020687    7.3615553  
C    1.0325770    0.0023412    4.9669890  
H    2.0953057    0.0030649    2.0900562  
H   -2.0989778   -0.0102372    1.7591824  
H   -2.8710934   -0.0020419    4.4995513  
H   -1.4634884   -0.0006497    7.7393593  
H    1.5290710    0.0033153    7.3880045  
H    2.1042148    0.0039609    5.1284455  
