62

C    8.8719481   -0.0001322   -2.8470892  
C    8.2294890   -0.0005539   -4.0635239  
C    9.2414017   -0.0007344   -5.0688266  
C   10.4923476   -0.0006918   -4.4002012  
N   10.2318077    0.0016277   -3.0523401  
C   11.7136496   -0.0011395   -5.0807969  
C   11.6713591   -0.0019462   -6.4615172  
O   12.8344626   -0.0027620   -7.1758008  
C   10.4330804   -0.0016262   -7.1467064  
O   10.5580753   -0.0021028   -8.5206487  
C    9.2278485   -0.0009114   -6.4759303  
H    7.1627256    0.0003932   -4.2084644  
H   10.9259525   -0.0083584   -2.3270502  
H   12.6704432   -0.0009658   -4.5770604  
H   12.5821931   -0.0029330   -8.1083381  
H    9.6766422   -0.0018707   -8.9062408  
H    8.2952261   -0.0004994   -7.0279212  
C    4.7795901    0.0008674   -1.0815733  
C    5.7862016    0.0008768   -1.9861798  
C    7.0047290    0.0013409   -1.1913902  
C    6.5351384    0.0016824    0.2107753  
N    5.2316823    0.0013263    0.2814336  
C    7.4495165    0.0021403    1.3193775  
C    8.7728605    0.0018631    1.0399208  
O    9.7375495    0.0022373    1.9755565  
C    9.2780077    0.0011447   -0.3647097  
O   10.4956961    0.0010501   -0.5448642  
C    8.3200391    0.0007287   -1.4846296  
H    5.7111077    0.0005125   -3.0601616  
H    7.0785145    0.0025896    2.3339055  
H   10.5714828    0.0018711    1.4718607  
C    3.3321168    0.0004716   -1.3379341  
C    2.6974177    0.0000118   -2.5332316  
C    1.2800432   -0.0002116   -2.2052842  
C    1.2395033    0.0000644   -0.7271298  
N    2.4394059    0.0005460   -0.2131041  
C    0.0000000    0.0000000    0.0000000  
C   -1.1468704    0.0000635   -0.7169542  
O   -2.3742206    0.0000074   -0.1695488  
C   -1.1388774    0.0001608   -2.2096352  
O   -2.2206238    0.0000906   -2.7970409  
C    0.1454514    0.0001818   -2.9324241  
H    3.1367978   -0.0000649   -3.5160956  
H   -2.9844350    0.0001027   -0.9290164  
H    0.1083567    0.0003684   -4.0135594  
C    0.0000000    0.0000000    1.4700000  
C    1.0521667    0.0011902    2.3562342  
C    0.4917218    0.0011957    3.6679131  
C   -0.9187428   -0.0003148    3.5178682  
N   -1.1833171    0.0009411    2.1707914  
C   -1.7951701   -0.0010350    4.6072090  
C   -1.2375837   -0.0005224    5.8710424  
O   -2.0474215   -0.0015360    6.9697579  
C    0.1673580    0.0013566    6.0411963  
O    0.5673524    0.0020687    7.3615553  
C    1.0325770    0.0023412    4.9669890  
H    2.0953057    0.0030649    2.0900562  
H   -2.0989778   -0.0102372    1.7591824  
H   -2.8710934   -0.0020419    4.4995513  
H   -1.4634884   -0.0006497    7.7393593  
H    1.5290710    0.0033153    7.3880045  
H    2.1042148    0.0039609    5.1284455  
