60

C    4.3793278   -2.1192805   -5.8208134  
C    5.4067690   -1.6206306   -6.5877421  
C    4.8210885   -0.7467394   -7.5510132  
C    3.4214486   -0.7518850   -7.3209964  
N    3.1871009   -1.5969622   -6.2648037  
C    2.5263060    0.0005363   -8.0873975  
C    3.0537304    0.7724449   -9.1043333  
O    2.2246534    1.5268525   -9.8831229  
C    4.4474071    0.7905104   -9.3495990  
O    4.8168364    1.6084019  -10.3974149  
C    5.3310492    0.0482704   -8.5940973  
H    6.4499334   -1.8584413   -6.4683773  
H    2.2862450   -1.7932927   -5.8674451  
H    2.7888710    1.9809369  -10.5224437  
H    5.7727833    1.5632633  -10.4960673  
H    6.3933949    0.0821472   -8.8056428  
H    4.4024681   -2.8073053   -4.9931391  
C    0.0950448    0.0004350   -4.4015596  
C    1.1192393    0.0002600   -5.2932436  
C    0.5298386    0.0006955   -6.6113640  
C   -0.9321731    0.0011709   -6.4130916  
N   -1.1298097    0.0005870   -5.0515376  
C   -1.8443588    0.0020607   -7.4178909  
C   -1.3534348    0.0023591   -8.7859296  
O   -2.0950461    0.0030854   -9.7597423  
C    0.1910171    0.0016134   -9.0193235  
O    0.6161265    0.0015496  -10.1667301  
C    1.0746176    0.0009559   -7.8560944  
H    2.1679381   -0.0003120   -5.0548232  
H   -2.9125319    0.0025267   -7.2508092  
H   -2.0258137    0.0022747   -4.5996293  
C    3.3321173    0.0004714   -1.3379336  
C    2.6974184    0.0000115   -2.5332313  
C    1.2800437   -0.0002119   -2.2052840  
C    1.2395034    0.0000643   -0.7271298  
N    2.4394063    0.0005459   -0.2131037  
C    0.0000000    0.0000000    0.0000000  
C   -1.1468702    0.0000634   -0.7169544  
O   -2.3742202    0.0000072   -0.1695489  
C   -1.1388770    0.0001606   -2.2096356  
O   -2.2206231    0.0000903   -2.7970412  
C    0.1454523    0.0001814   -2.9324241  
H    3.1367986   -0.0000653   -3.5160949  
H   -2.9844345    0.0001025   -0.9290168  
H    4.3940040    0.0007618   -1.1498638  
C    0.0000000    0.0000000    1.4700000  
C    1.0662921    0.0000102    2.3034270  
C    0.4961870   -0.0000064    3.6418889  
C   -0.9663858    0.0000850    3.4240247  
N   -1.2632773    0.0000084    2.1528658  
C   -1.8985362    0.0000517    4.5177257  
C   -1.3925775   -0.0004564    5.7720543  
O   -2.1456383   -0.0005410    6.8851312  
C    0.0786232   -0.0009323    6.0245000  
O    0.4683759   -0.0012588    7.1921102  
C    1.0143166   -0.0008442    4.8859032  
H    2.1107198   -0.0000632    2.0421868  
H   -2.9622183    0.0003270    4.3293377  
H   -1.5042274   -0.0009692    7.6184419  
H    2.0724152   -0.0013148    5.1109744  
