64

C    2.3961005   -3.2483879   -8.8265535  
C    2.6640883   -3.2031895  -10.1751119  
C    2.4507543   -1.8574606  -10.5971327  
C    2.0507059   -1.1208810   -9.4528698  
N    2.0259344   -1.9960041   -8.3954374  
C    1.7555245    0.2450016   -9.4978302  
C    1.8664996    0.8789237  -10.7201257  
O    1.5904639    2.2118686  -10.8205013  
C    2.2638112    0.1610436  -11.8732127  
O    2.3268613    0.9334730  -13.0145804  
C    2.5549088   -1.1865063  -11.8296489  
H    2.9740235   -4.0377600  -10.7804431  
H    1.4499560    0.8120657   -8.6293446  
H    1.7280796    2.4502274  -11.7465198  
H    2.6024010    0.3729334  -13.7463428  
H    2.8565429   -1.7097960  -12.7294612  
H    2.4383336   -4.0751956   -8.1383945  
C    2.2882815   -2.1097767   -5.8897967  
C    1.6780090   -1.6459960   -7.0107556  
C    0.6303819   -0.7506083   -6.5799497  
C    0.6807208   -0.7305950   -5.1055500  
N    1.7068261   -1.5753509   -4.7500430  
C   -0.1496415   -0.0015615   -4.3176961  
C   -1.1605341    0.8179097   -4.9650744  
O   -1.9554937    1.5101852   -4.3429046  
C   -1.2321584    0.8117734   -6.5254071  
O   -2.0792930    1.4975141   -7.0816292  
C   -0.2825941   -0.0147696   -7.2663562  
H   -0.3386968   -0.0132862   -8.3464369  
H    3.1137385   -2.7971809   -5.8004321  
H    1.9909862   -1.7716675   -3.8078331  
C    3.3003543    0.0005276   -1.4738987  
C    2.5232814    0.0003497   -2.6090747  
C    1.1623200   -0.0001320   -2.1820103  
C    1.1711883    0.0000582   -0.7636140  
N    2.4852300   -0.0014919   -0.3662360  
C    0.0000000    0.0000000    0.0000000  
C   -1.2020384    0.0000519   -0.6806477  
O   -2.3759249    0.0003493    0.0157743  
C   -1.2314656   -0.0005115   -2.0955510  
O   -2.5054392   -0.0008039   -2.6250180  
C   -0.0764516   -0.0007274   -2.8495195  
H    2.8919955   -0.0005620   -3.6205304  
H    2.8036267    0.0088183    0.5858662  
H   -3.0835638    0.0000347   -0.6418818  
H   -2.4360047   -0.0011529   -3.5845921  
H    4.3715549    0.0004895   -1.3667136  
C    2.5311839    2.1237619    3.0120429  
C    1.9795631    1.6616747    1.8395852  
C    0.9223175    0.7739173    2.1983588  
C    0.8753926    0.7337535    3.6154372  
N    1.8668922    1.5631002    4.0777464  
C   -0.0496243   -0.0427881    4.3197917  
C   -0.9437528   -0.7922060    3.5801400  
O   -1.8685244   -1.5680278    4.2172520  
C   -0.9124520   -0.7656372    2.1655264  
O   -1.8671164   -1.5663939    1.5732860  
C    0.0000000    0.0000000    1.4700000  
H    2.3005065    1.9304404    0.8477417  
H    2.0679347    1.7444845    5.0445261  
H   -0.0904770   -0.0778569    5.3997470  
H   -2.3849669   -2.0011402    3.5251786  
H   -1.7775064   -1.4909735    0.6183591  
H    3.3468514    2.8078103    3.1724291  
