66

C    4.3172181   -2.1276217   -1.4346664  
C    5.3517546   -1.6299846   -2.1926633  
C    4.7753703   -0.7549588   -3.1605016  
C    3.3738274   -0.7584003   -2.9423468  
N    3.1294631   -1.6035969   -1.8885224  
C    2.4861704   -0.0045255   -3.7159919  
C    3.0231749    0.7671113   -4.7281088  
O    2.2016884    1.5228926   -5.5135825  
C    4.4189003    0.7834865   -4.9615571  
O    4.7982356    1.6013206   -6.0058726  
C    5.2951627    0.0398120   -4.1989043  
H    2.2250239   -1.7989300   -1.4988869  
H    2.7718802    1.9765073   -6.1479163  
H    5.7549254    1.5549953   -6.0964452  
H    6.3593041    0.0724103   -4.4014329  
H    4.3324687   -2.8160058   -0.6071078  
C    7.2685449   -3.2018964   -1.7074387  
C    8.6387870   -3.1338694   -1.6060653  
C    9.0087488   -1.7807724   -1.8646326  
C    7.8118780   -1.0634341   -2.1192887  
N    6.7742989   -1.9565961   -2.0177545  
C    7.7973164    0.3034381   -2.4129502  
C    9.0131133    0.9581511   -2.4499172  
O    9.0564390    2.2930176   -2.7314628  
C   10.2180902    0.2596648   -2.1989895  
O   11.3453789    1.0515395   -2.2731480  
C   10.2332294   -1.0888477   -1.9094876  
H    9.2914882   -3.9583340   -1.3753454  
H    6.8885284    0.8559003   -2.6081244  
H    9.9881717    2.5470872   -2.7071806  
H   12.1147066    0.5032898   -2.0910496  
H   11.1718831   -1.5969968   -1.7218918  
H    6.6047889   -4.0404884   -1.5843495  
C    0.0000000    0.0000000    0.0000000  
C    1.0521669   -0.0011848   -0.8862341  
C    0.4917221   -0.0011931   -2.1979130  
C   -0.9187427    0.0003100   -2.0478683  
N   -1.1833170   -0.0009472   -0.7007915  
C   -1.7951698    0.0010259   -3.1372090  
C   -1.2375835    0.0005161   -4.4010425  
O   -2.0474208    0.0015256   -5.4997580  
C    0.1673584   -0.0013557   -4.5711962  
O    0.5673529   -0.0020659   -5.8915551  
C    1.0325773   -0.0023359   -3.4969890  
H    2.0953059   -0.0030542   -0.6200560  
H   -2.0989777    0.0102265   -0.2891825  
H   -2.8710930    0.0020274   -3.0295514  
H   -1.4634881    0.0006427   -6.2693593  
H    1.5290715   -0.0033076   -5.9180042  
C    3.3003543   -0.0005276    2.9438989  
C    2.5232812   -0.0003497    4.0790748  
C    1.1623199    0.0001319    3.6520102  
C    1.1711883   -0.0000583    2.2336141  
N    2.4852299    0.0014920    1.8362361  
C    0.0000000    0.0000000    1.4700000  
C   -1.2020384   -0.0000520    2.1506477  
O   -2.3759250   -0.0003494    1.4542253  
C   -1.2314658    0.0005113    3.5655508  
O   -2.5054393    0.0008037    4.0950179  
C   -0.0764518    0.0007272    4.3195194  
H    2.8919952    0.0005619    5.0905303  
H    2.8036267   -0.0088181    0.8841339  
H   -3.0835639   -0.0000348    2.1118817  
H   -2.4360050    0.0011527    5.0545920  
H   -0.1304098    0.0013421    5.4019087  
H    4.3715549   -0.0004895    2.8367138  
