60

C    5.9974492    0.0059101   -4.3967323  
C    6.1799199    0.0036067   -3.0332198  
C    7.5873657    0.0024780   -2.8014996  
C    8.2183285    0.0044822   -4.0718568  
N    7.2241221    0.0045879   -5.0185196  
C    9.6079329    0.0043714   -4.2260904  
C   10.3745495    0.0025048   -3.0769723  
O   11.7362978    0.0026618   -3.1699998  
C    9.7635145    0.0001140   -1.8004735  
O   10.6624515   -0.0019675   -0.7539304  
C    8.3926958   -0.0000514   -1.6475666  
H    5.3951414    0.0017297   -2.2962577  
H    7.3687056    0.0163890   -6.0119668  
H   10.0949762    0.0057483   -5.1914865  
H   12.0718634    0.0008905   -2.2640982  
H   10.1682436   -0.0034777    0.0715149  
H    7.9533350   -0.0020918   -0.6568921  
C    1.7334697    0.0049246   -3.2500361  
C    3.0913864    0.0046111   -3.2383151  
C    3.5242791    0.0065421   -4.6157893  
C    2.2984626    0.0080463   -5.4368631  
N    1.2476587    0.0065694   -4.5487759  
C    2.2819768    0.0104504   -6.7938549  
C    3.5566104    0.0114096   -7.4923118  
O    3.6472562    0.0134885   -8.7130006  
C    4.8674249    0.0095957   -6.6428603  
O    5.9464915    0.0100756   -7.2198154  
C    4.7574565    0.0073245   -5.1862362  
H    3.7182532    0.0030069   -2.3644448  
H    1.3716378    0.0116508   -7.3771145  
H    0.2773177    0.0086322   -4.8046688  
C    1.1319247    0.0015655   -0.8009267  
C    0.7969916    0.0034943   -2.1169401  
C   -0.6453337    0.0035710   -2.1842668  
C   -1.1266832    0.0015433   -0.7896026  
N    0.0000000    0.0000000    0.0000000  
C   -2.4346130    0.0013964   -0.4276294  
C   -3.4350109    0.0031408   -1.4820183  
O   -4.6384610    0.0030973   -1.2583915  
C   -2.9478956    0.0050505   -2.9661075  
O   -3.7809378    0.0062218   -3.8623775  
C   -1.5113821    0.0053090   -3.2312122  
H   -2.7664565    0.0000232    0.6013446  
H   -1.1823527    0.0068407   -4.2614846  
H    2.1104317    0.0009391   -0.3488056  
C    2.4951002    2.0940188    2.9809380  
C    1.9440701    1.6314916    1.8291961  
C    0.8759964    0.7350050    2.2038498  
C    0.8497377    0.7130254    3.6788474  
N    1.8560616    1.5571714    4.0882609  
C   -0.0205033   -0.0168748    4.4215661  
C   -0.9962600   -0.8356168    3.7214979  
O   -1.8224391   -1.5286685    4.3006425  
C   -0.9864710   -0.8277881    2.1595606  
O   -1.8030528   -1.5133726    1.5592035  
C    0.0000000    0.0000000    1.4700000  
H    2.2509283    1.8888011    0.8310761  
H   -0.0229599   -0.0187323    5.5027230  
H    3.3143982    2.7817323    3.1139444  
H    2.0889452    1.7545833    5.0442112  
