60

C    9.8475869   -0.7191798   -2.0469981  
C    9.3330569   -0.0011080   -3.1015590  
C   10.4161083    0.7268929   -3.6774190  
C   11.5766648    0.4102811   -2.9258942  
N   11.1958031   -0.4686824   -1.9425401  
C   12.8341819    0.9496148   -3.2132294  
C   12.9217741    1.8242686   -4.2788215  
O   14.1256069    2.3796958   -4.6033223  
C   11.7750776    2.1528068   -5.0403775  
O   12.0255141    3.0379753   -6.0685321  
C   10.5341375    1.6213286   -4.7573162  
H   11.8086359   -0.8775664   -1.2604612  
H   13.7225283    0.7124407   -2.6442037  
H   13.9660007    2.9512301   -5.3656463  
H   11.1997428    3.2068162   -6.5324275  
H    9.6738096    1.8917759   -5.3582926  
H    9.3592642   -1.3891024   -1.3601915  
C    5.6736559   -0.0009558   -0.7359122  
C    4.7161325   -0.0005435   -1.6923264  
C    5.4441200   -0.0005498   -2.9519031  
C    6.8695485   -0.0008929   -2.5585357  
N    7.0103269   -0.0012127   -1.2607796  
C    7.9272785   -0.0010475   -3.5313119  
C    7.5769325   -0.0012565   -4.8376780  
O    8.4592368   -0.0014099   -5.8513741  
C    6.1471274   -0.0012911   -5.2664175  
O    5.9016318   -0.0013616   -6.4726314  
C    5.0804442   -0.0010863   -4.2495047  
H    7.9113445   -0.0015669   -6.6569584  
H    4.0573860   -0.0012340   -4.6010477  
H    5.5430682   -0.0010921    0.3345643  
C    3.2573665   -0.0002920   -1.5109385  
C    2.5379463   -0.0001709   -0.3591964  
C    1.1435038    0.0000331   -0.7338500  
C    1.1092599   -0.0000083   -2.2088477  
N    2.4227553    0.0001909   -2.6182613  
C   -0.0265539   -0.0002524   -2.9515660  
C   -1.3003040   -0.0002640   -2.2514977  
O   -2.3786790   -0.0004133   -2.8306421  
C   -1.2877727    0.0000311   -0.6895603  
O   -2.3539959    0.0003306   -0.0892030  
C    0.0000000    0.0000000    0.0000000  
H    2.9384091   -0.0000367    0.6389234  
H   -0.0296303   -0.0004086   -4.0327229  
H    2.7280482   -0.0013407   -3.5742119  
C    2.5128556    2.1077716    2.9199648  
C    1.9592212    1.6432552    4.0696553  
C    0.8915788    0.7479214    3.6910360  
C    0.8684491    0.7287414    2.2159470  
N    1.8754542    1.5738793    1.8102719  
C    0.0000000    0.0000000    1.4700000  
C   -0.9772830   -0.8200135    2.1664417  
O   -1.8021297   -1.5120829    1.5842315  
C   -0.9711318   -0.8147624    3.7284083  
O   -1.7894187   -1.5009653    4.3257297  
C    0.0140216    0.0115358    4.4216297  
H    2.2638494    1.8988021    5.0689105  
H    0.0117648    0.0094386    5.5031631  
H    3.3327358    2.7953732    2.7900019  
H    2.1123206    1.7707734    0.8551938  
