60

C    0.4995579   -3.2293868  -10.3249674  
C    0.3584860   -2.4623924  -11.4582302  
C    0.1236051   -1.1229136  -11.0278507  
C    0.1325923   -1.1338456   -9.6094977  
N    0.3615346   -2.4287700   -9.2153223  
C   -0.0671591    0.0182946   -8.8430377  
C   -0.2795554    1.2031066   -9.5207441  
O   -0.4797695    2.3580715   -8.8214698  
C   -0.2924662    1.2342140  -10.9355526  
O   -0.5169334    2.4895676  -11.4619034  
C   -0.0957472    0.0979389  -11.6923265  
H    0.4165104   -2.8240586  -12.4705666  
H    0.4319103   -2.7420231   -8.2640603  
H   -0.6064617    3.0559134   -9.4773894  
H   -0.5101168    2.4226399  -12.4216309  
H   -0.1112717    0.1526713  -12.7745653  
H    0.6862881   -4.2844483  -10.2203959  
C    2.4602720   -2.0944456   -5.9392888  
C    1.9124732   -1.6318086   -4.7860506  
C    0.8432456   -0.7354856   -5.1577935  
C    0.8127888   -0.7137219   -6.6327140  
N    1.8180306   -1.5578237   -7.0448669  
C   -0.0596367    0.0159819   -7.3730587  
C   -1.0334824    0.8347248   -6.6703356  
O   -1.8613770    1.5276081   -7.2472273  
C   -1.0192491    0.8271228   -5.1084314  
O   -1.8341904    1.5127102   -4.5058525  
C   -0.0307352   -0.0004646   -4.4215603  
H    2.2221961   -1.8889425   -3.7887704  
H    3.2792593   -2.7820943   -6.0745265  
H    2.0482143   -1.7553499   -8.0014469  
C    3.2573670   -0.0002920   -1.5109380  
C    2.5379468   -0.0001709   -0.3591961  
C    1.1435043    0.0000332   -0.7338500  
C    1.1092609   -0.0000082   -2.2088477  
N    2.4227562    0.0001909   -2.6182613  
C   -0.0265532   -0.0002522   -2.9515663  
C   -1.3003035   -0.0002639   -2.2514981  
O   -2.3786784   -0.0004131   -2.8306429  
C   -1.2877725    0.0000312   -0.6895608  
O   -2.3539958    0.0003307   -0.0892036  
C    0.0000000    0.0000000    0.0000000  
H    2.9384091   -0.0000369    0.6389239  
H    4.3270394   -0.0004765   -1.6439446  
H    2.7280494   -0.0013406   -3.5742113  
C    0.8681109    0.7263879    2.2709268  
C    0.6127770    0.5096195    3.5869401  
C   -0.4920590   -0.4175482    3.6542670  
C   -0.8620974   -0.7254003    2.2596025  
N    0.0000000    0.0000000    1.4700000  
C   -1.8641242   -1.5660088    1.8976294  
C   -2.6293522   -2.2103885    2.9520183  
O   -3.5512764   -2.9839180    2.7283916  
C   -2.2549728   -1.8987399    4.4361073  
O   -2.8923672   -2.4351063    5.3323774  
C   -1.1543735   -0.9755647    4.7012123  
H    1.1382914    0.9492124    4.4159191  
H   -2.1192137   -1.7782617    0.8686553  
H   -0.9013378   -0.7652422    5.7314848  
H    1.6172880    1.3558399    1.8188057  
