66

C    4.5582359   -2.0922264   -2.8633927  
C    4.7995863   -1.5811264   -4.1175831  
C    3.7180587   -0.7032889   -4.4246643  
C    2.8401178   -0.7189699   -3.3107075  
N    3.3790676   -1.5738357   -2.3815388  
C    1.6628945    0.0339172   -3.2649299  
C    1.3667038    0.8171316   -4.3635762  
O    0.2298889    1.5725144   -4.3714928  
C    2.2299650    0.8458158   -5.4846351  
O    1.7963543    1.6742716   -6.4990245  
C    3.3913537    0.1031242   -5.5305966  
H    2.9820488   -1.7789139   -1.4824836  
H    0.2153772    2.0351557   -5.2194414  
H    2.4353791    1.6358679   -7.2172002  
H    4.0328106    0.1452890   -6.4030837  
H    5.1331928   -2.7866339   -2.2750211  
C    6.5313967   -3.1419220   -5.1030970  
C    5.9606910   -1.8982550   -4.9614823  
C    6.7090682   -1.0011000   -5.7798009  
C    7.7325370   -1.7607777   -6.4021561  
N    7.5971574   -3.0560912   -5.9680457  
C    8.6629867   -1.1988827   -7.2815454  
C    8.5581575    0.1544987   -7.5375668  
O    9.4406358    0.7541913   -8.3888091  
C    7.5440752    0.9293687   -6.9259849  
O    7.5720650    2.2620181   -7.2818021  
C    6.6259905    0.3757636   -6.0581324  
H    8.1771604   -3.8259343   -6.2489707  
H    9.4454854   -1.7724043   -7.7590092  
H    9.1931803    1.6872839   -8.4257982  
H    6.8554679    2.7137216   -6.8256717  
H    5.8604828    0.9945297   -5.6046957  
H    6.2634294   -4.0831243   -4.6544421  
C    1.1243410    0.0100105   -0.7919003  
C    0.7474072    0.0234665   -2.1148542  
C   -0.6787384    0.0234379   -2.1414698  
C   -1.1201748    0.0098411   -0.7935547  
N    0.0000000    0.0000000    0.0000000  
C   -2.4730818    0.0063307   -0.4408240  
C   -3.3971962    0.0170429   -1.4675058  
O   -4.7313520    0.0145490   -1.1793468  
C   -2.9763654    0.0303020   -2.8186325  
O   -4.0166484    0.0394464   -3.7247625  
C   -1.6418567    0.0334992   -3.1673480  
H   -2.8160166   -0.0041569    0.5845966  
H   -5.1938823    0.0230023   -2.0274386  
H   -3.6464680    0.0481700   -4.6127343  
H   -1.3497475    0.0435647   -4.2109234  
H    2.1062466    0.0053162   -0.3505405  
C    0.8676693    0.7151171    2.2619005  
C    0.5875920    0.4624972    3.5848544  
C   -0.5048400   -0.4542819    3.6114698  
C   -0.8517165   -0.7276451    2.2635546  
N    0.0000000    0.0000000    1.4700000  
C   -1.8902865   -1.5946756    1.9108239  
C   -2.5912627   -2.1969500    2.9375057  
O   -3.6148162   -3.0527051    2.6493466  
C   -2.2603868   -1.9365747    4.2886322  
O   -3.0513550   -2.6123276    5.1947621  
C   -1.2361111   -1.0811317    4.6373480  
H    1.1060808    0.8876438    4.4271209  
H   -2.1597133   -1.8070987    0.8854031  
H   -3.9636755   -3.3565188    3.4974381  
H   -2.7621927   -2.3810384    6.0827341  
H   -1.0058879   -0.9010589    5.6809233  
H    1.6167816    1.3499334    1.8205408  
