62

C   -6.3684996    0.0056225   -6.0423160  
C   -5.2524335    0.0038295   -6.8465928  
C   -5.7122588    0.0044114   -8.1968365  
C   -7.1300247    0.0068849   -8.1536974  
N   -7.4955366    0.0056128   -6.8304374  
C   -7.9217143    0.0083800   -9.3060924  
C   -7.2703115    0.0076665  -10.5242265  
O   -7.9948940    0.0094098  -11.6809421  
C   -5.8565353    0.0048313  -10.5878344  
O   -5.3580076    0.0040367  -11.8742301  
C   -5.0748792    0.0030818   -9.4513768  
H   -4.2323667    0.0011863   -6.5024269  
H   -8.4396498    0.0173694   -6.4891251  
H   -9.0026937    0.0101226   -9.2799642  
H   -7.3545298    0.0082305  -12.4042656  
H   -4.3970375    0.0021222  -11.8280031  
H   -3.9941123    0.0007376   -9.5314735  
C   -3.2578655    0.0024039   -2.9908504  
C   -3.9809871    0.0031289   -1.8468776  
C   -5.3695593    0.0043914   -2.2808879  
C   -5.2983968    0.0043642   -3.7578851  
N   -4.0631141    0.0031210   -4.1798622  
C   -6.4794715    0.0054032   -4.5765110  
C   -7.6771926    0.0060339   -3.9481810  
O   -8.8597151    0.0070293   -4.5866777  
C   -7.7819059    0.0057083   -2.4591557  
O   -8.9049090    0.0064466   -1.9550880  
C   -6.5558062    0.0046822   -1.6414745  
H   -3.6170582    0.0027519   -0.8336497  
H   -9.5255211    0.0072470   -3.8754428  
H   -6.6744111    0.0043603   -0.5662243  
C    0.0000000    0.0000000    0.0000000  
C    1.0521667   -0.0011902   -0.8862342  
C    0.4917216   -0.0011957   -2.1979129  
C   -0.9187429    0.0003148   -2.0478680  
N   -1.1833171   -0.0009412   -0.7007912  
C   -1.7951702    0.0010350   -3.1372088  
C   -1.2375841    0.0005225   -4.4010424  
O   -2.0474217    0.0015360   -5.4997576  
C    0.1673577   -0.0013567   -4.5711964  
O    0.5673522   -0.0020688   -5.8915554  
C    1.0325769   -0.0023413   -3.4969890  
H    2.0953057   -0.0030649   -0.6200562  
H   -2.0989779    0.0102372   -0.2891821  
H   -1.4634887    0.0006498   -6.2693588  
H    1.5290708   -0.0033153   -5.9180049  
H    2.1042148   -0.0039610   -3.6584453  
C    3.2573670    0.0002920    2.9809380  
C    2.5379467    0.0001709    1.8291961  
C    1.1435042   -0.0000331    2.2038498  
C    1.1092607    0.0000083    3.6788474  
N    2.4227561   -0.0001909    4.0882609  
C   -0.0265533    0.0002524    4.4215661  
C   -1.3003036    0.0002640    3.7214979  
O   -2.3786784    0.0004133    4.3006425  
C   -1.2877726   -0.0000311    2.1595606  
O   -2.3539958   -0.0003306    1.5592035  
C    0.0000000    0.0000000    1.4700000  
H    2.9384090    0.0000368    0.8310761  
H   -0.0296291    0.0004086    5.5027230  
H    4.3270393    0.0004765    3.1139444  
H    2.7280493    0.0013407    5.0442112  
