62

C   -4.7524556    2.1221137   -4.4578987  
C   -5.9662519    1.6233867   -4.8707402  
C   -5.7059141    0.7488957   -5.9671384  
C   -4.3034862    0.7537715   -6.1795028  
N   -3.7550564    1.5992712   -5.2473160  
C   -3.6880742    0.0007577   -7.1840059  
C   -4.5032241   -0.7714769   -7.9885938  
O   -3.9544811   -1.5264652   -8.9845297  
C   -5.9046781   -0.7892811   -7.7925671  
O   -6.5790364   -1.6075548   -8.6751836  
C   -6.5125082   -0.0464567   -6.8019709  
H   -6.9218794    1.8615323   -4.4359345  
H   -2.7755779    1.7955427   -5.1469152  
H   -4.6882658   -1.9806917   -9.4186982  
H   -7.5188750   -1.5622051   -8.4745591  
H   -7.5883594   -0.0801458   -6.6759305  
H   -4.5194082    2.8105251   -3.6637097  
C   -0.2963294   -0.0005341   -4.3948471  
C    0.7278651   -0.0010067   -5.2865309  
C    0.1384639   -0.0010230   -6.6046519  
C   -1.3235478   -0.0004881   -6.4063792  
N   -1.5211840   -0.0006099   -5.0448251  
C   -2.2357336    0.0000549   -7.4111778  
C   -1.7448097   -0.0001093   -8.7792165  
O   -2.4864213    0.0002817   -9.7530304  
C   -0.2003578   -0.0009260   -9.0126110  
O    0.2247513   -0.0013774  -10.1600175  
C    0.6832431   -0.0011828   -7.8493818  
H    1.7765638   -0.0014917   -5.0481108  
H    1.7513078   -0.0015434   -8.0195610  
H   -2.4171880    0.0012266   -4.5929169  
C    3.1301143   -0.0010313   -1.7028257  
C    2.5367765   -0.0002767   -0.4864669  
C    1.1089900    0.0001027   -0.7656184  
C    1.0177864   -0.0004150   -2.2415133  
N    2.1993571   -0.0011613   -2.7963824  
C   -0.2459220   -0.0002879   -2.9257116  
C   -1.3675327   -0.0000606   -2.1698519  
O   -2.6129319    0.0000866   -2.6748482  
C   -1.3083588    0.0000910   -0.6783229  
O   -2.3693264    0.0004206   -0.0541685  
C    0.0000000    0.0000000    0.0000000  
H    3.0096014   -0.0001008    0.4807517  
H   -3.1967445    0.0002093   -1.8949025  
H    4.1849272   -0.0015113   -1.9271980  
C    2.5311839    2.1237619    3.0120429  
C    1.9795631    1.6616747    1.8395852  
C    0.9223175    0.7739173    2.1983588  
C    0.8753926    0.7337535    3.6154372  
N    1.8668922    1.5631002    4.0777464  
C   -0.0496243   -0.0427881    4.3197917  
C   -0.9437528   -0.7922060    3.5801400  
O   -1.8685244   -1.5680278    4.2172520  
C   -0.9124520   -0.7656372    2.1655264  
O   -1.8671164   -1.5663939    1.5732860  
C    0.0000000    0.0000000    1.4700000  
H    2.3005065    1.9304404    0.8477417  
H    2.0679347    1.7444845    5.0445261  
H   -0.0904770   -0.0778569    5.3997470  
H   -2.3849669   -2.0011402    3.5251786  
H   -1.7775064   -1.4909735    0.6183591  
H    3.3468514    2.8078103    3.1724291  
