62

C    6.2909041   -1.9546659   -7.1116563  
C    7.3762514   -2.7869142   -7.2594831  
C    7.7522265   -2.7405607   -8.6346526  
C    6.8526596   -1.8556753   -9.2824825  
N    5.9772099   -1.3977177   -8.3293397  
C    6.9263585   -1.5688407  -10.6488944  
C    7.9265710   -2.1863104  -11.3744871  
O    8.0441879   -1.9414816  -12.7121104  
C    8.8334608   -3.0726180  -10.7461338  
O    9.7721561   -3.6077907  -11.6039132  
C    8.7611801   -3.3562612   -9.3982295  
H    7.8392679   -3.3581042   -6.4731301  
H    5.2313380   -0.7456089   -8.4918523  
H    6.2437041   -0.8954591  -11.1486377  
H    8.7950271   -2.4652725  -13.0205753  
H   10.3447969   -4.1944512  -11.1004099  
H    9.4697554   -4.0394860   -8.9447939  
C    5.7258292   -2.1256352   -4.6503670  
C    5.5043005   -1.6279379   -5.9135734  
C    4.3814514   -0.7527184   -5.8252546  
C    3.9565273   -0.7561091   -4.4719793  
N    4.7930957   -1.6014631   -3.7863066  
C    2.8699641   -0.0020530   -4.0185824  
C    2.2003456    0.7697162   -4.9481851  
O    1.1324736    1.5256768   -4.5593570  
C    2.6089836    0.7860435   -6.3030156  
O    1.8406947    1.6040254   -7.1055010  
C    3.6806472    0.0421902   -6.7510613  
H    4.7419878   -1.7968040   -2.8028376  
H    0.8162315    1.9793599   -5.3514603  
H    2.1830482    1.5576553   -8.0034135  
H    3.9702038    0.0747557   -7.7948889  
H    6.4744890   -2.8141560   -4.2976524  
C    3.2573670   -0.0002921   -1.5109382  
C    2.5379468   -0.0001711   -0.3591962  
C    1.1435043    0.0000330   -0.7338498  
C    1.1092608   -0.0000085   -2.2088474  
N    2.4227562    0.0001906   -2.6182610  
C   -0.0265533   -0.0002525   -2.9515663  
C   -1.3003033   -0.0002641   -2.2514979  
O   -2.3786785   -0.0004132   -2.8306425  
C   -1.2877724    0.0000310   -0.6895608  
O   -2.3539956    0.0003306   -0.0892035  
C    0.0000000    0.0000000    0.0000000  
H    2.9384091   -0.0000370    0.6389240  
H   -0.0296290   -0.0004088   -4.0327231  
H    4.3270394   -0.0004767   -1.6439445  
C    2.3971438    2.0127888    3.1728260  
C    1.9431056    1.6308205    1.9564670  
C    0.8496017    0.7127664    2.2356185  
C    0.7794028    0.6545384    3.7115134  
N    1.6840587    1.4146091    4.2663826  
C   -0.1885723   -0.1578550    4.3957118  
C   -1.0476298   -0.8789867    3.6398520  
O   -2.0015663   -1.6796266    4.1448486  
C   -1.0022026   -0.8410666    2.1483229  
O   -1.8147390   -1.5232959    1.5241687  
C    0.0000000    0.0000000    1.4700000  
H    2.3054237    1.9346118    0.9892483  
H   -0.2170646   -0.1815267    5.4753125  
H   -2.4487139   -2.0549881    3.3649027  
H    3.2048689    2.6911772    3.3971983  
