62

C    4.1084827    0.7215703   -7.7919037  
C    5.1222191    0.0024085   -7.2023174  
C    5.7754440   -0.7248397   -8.2410696  
C    5.1110156   -0.4066670   -9.4531873  
N    4.1028472    0.4724624   -9.1444068  
C    5.4893474   -0.9449169  -10.6868564  
C    6.5580736   -1.8200716  -10.6971317  
O    6.9695348   -2.3744888  -11.8745589  
C    7.2335159   -2.1501633   -9.4981170  
O    8.2768169   -3.0356513   -9.6735505  
C    6.8606553   -1.6197544   -8.2806742  
H    3.4676402    0.8823282   -9.8050894  
H    4.9869700   -0.7065512  -11.6142189  
H    7.7178624   -2.9466015  -11.6601801  
H    8.6789579   -3.2055636   -8.8162192  
H    7.3969329   -1.8913833   -7.3789516  
H    3.3881025    1.3913893   -7.3544642  
C    2.5562217   -0.0001551   -3.6003001  
C    3.5655128   -0.0017025   -2.6655294  
C    4.7980128   -0.0018122   -3.3835434  
C    4.4750737    0.0000059   -4.7647141  
N    3.1056446   -0.0009746   -4.8610468  
C    5.4479449    0.0007222   -5.7688602  
C    6.7709215   -0.0001109   -5.3714836  
O    7.7613129    0.0008838   -6.3107055  
C    7.1131347   -0.0023000   -3.9982744  
O    8.4727603   -0.0033100   -3.7642599  
C    6.1538986   -0.0032805   -3.0071182  
H    3.4300846   -0.0037426   -1.5975180  
H    2.5841971    0.0104552   -5.7189186  
H    8.5970863   -0.0002467   -5.8261986  
H    8.6176763   -0.0047535   -2.8131546  
H    6.4463530   -0.0051417   -1.9635927  
C    0.0000000    0.0000000    0.0000000  
C    1.0541688   -0.0001722   -0.8560390  
C    0.5103141   -0.0000453   -2.1935955  
C   -0.9576367    0.0002460   -2.0455731  
N   -1.2018459   -0.0001392   -0.6915969  
C   -1.8348307    0.0008318   -3.0810611  
C   -1.2972843    0.0009738   -4.4314606  
O   -2.0050665    0.0014267   -5.4301321  
C    0.2542628    0.0004186   -4.6117570  
O    0.7184676    0.0002258   -5.7439117  
C    1.0974555    0.0000874   -3.4189127  
H    2.0940752   -0.0005483   -0.5817978  
H   -2.9081051    0.0011670   -2.9507061  
H   -2.1128194    0.0014912   -0.2706792  
C    1.0672568    0.0000697    2.3021913  
C    0.0000000    0.0000000    1.4700000  
C   -1.1601224    0.0000736    2.3478473  
C   -0.5938729    0.0000769    3.7138435  
N    0.7113367    0.0001554    3.6934124  
C   -1.4286986    0.0001879    4.8835240  
C   -2.7683114    0.0006799    4.6970523  
O   -3.6653903    0.0008304    5.6976972  
C   -3.3702025    0.0010610    3.3310774  
O   -4.5974910    0.0013779    3.2362962  
C   -2.4926826    0.0008943    2.1470656  
H   -0.9878360   -0.0000190    5.8697035  
H   -4.5324246    0.0012261    5.2533954  
H   -2.9677772    0.0012974    1.1752040  
H    2.1134392    0.0000545    2.0405121  
