64

C    5.0754590   -0.9772764   -7.1740087  
C    5.8275858   -0.5600725   -8.2476537  
C    5.6107757    0.8427545   -8.3879026  
C    4.7097107    1.2291715   -7.3628703  
N    4.4032212    0.0996957   -6.6452588  
C    4.2718360    2.5466893   -7.1979434  
C    4.7525703    3.4913853   -8.0837320  
O    4.3577538    4.7928122   -7.9678889  
C    5.6519568    3.1252703   -9.1132375  
O    6.0393037    4.1798492   -9.9139677  
C    6.0841451    1.8256478   -9.2767022  
H    6.4544342   -1.1896117   -8.8557128  
H    3.5850810    2.8476219   -6.4188355  
H    4.8036957    5.2773786   -8.6747104  
H    6.6456853    3.8472187  -10.5827446  
H    6.7732932    1.5752096  -10.0747222  
H    4.9642217   -1.9581236   -6.7444463  
C    4.6667238   -2.1196647   -2.8289933  
C    3.4946425   -1.6582114   -2.2760432  
C    2.9083433   -0.7691298   -3.2249305  
C    3.7749402   -0.7275420   -4.3470738  
N    4.8336460   -1.5573523   -4.0728946  
C    3.5107105    0.0505387   -5.4782509  
C    2.3503688    0.8000601   -5.4767268  
O    2.0434903    1.5773554   -6.5559172  
C    1.4732999    0.7720842   -4.3664188  
O    0.3602106    1.5731440   -4.5170175  
C    1.7334695    0.0049281   -3.2500363  
H    3.1101422   -1.9282393   -1.3074166  
H    5.6044926   -1.7379800   -4.6902684  
H    1.2045556    2.0102696   -6.3508820  
H   -0.1790694    1.4967106   -3.7239606  
H    5.3975655   -2.8043086   -2.4339086  
C    1.1319246    0.0015678   -0.8009268  
C    0.7969914    0.0034958   -2.1169401  
C   -0.6453340    0.0035696   -2.1842669  
C   -1.1266832    0.0015410   -0.7896025  
N    0.0000000    0.0000000    0.0000000  
C   -2.4346129    0.0013913   -0.4276292  
C   -3.4350111    0.0031335   -1.4820181  
O   -4.6384614    0.0030875   -1.2583914  
C   -2.9478961    0.0050442   -2.9661074  
O   -3.7809382    0.0062135   -3.8623773  
C   -1.5113825    0.0053055   -3.2312122  
H   -2.7664565    0.0000174    0.6013448  
H   -1.1823533    0.0068381   -4.2614848  
H    2.1104316    0.0009435   -0.3488059  
C    2.5311839    2.1237619    3.0120429  
C    1.9795631    1.6616747    1.8395852  
C    0.9223175    0.7739173    2.1983588  
C    0.8753926    0.7337535    3.6154372  
N    1.8668922    1.5631002    4.0777464  
C   -0.0496243   -0.0427881    4.3197917  
C   -0.9437528   -0.7922060    3.5801400  
O   -1.8685244   -1.5680278    4.2172520  
C   -0.9124520   -0.7656372    2.1655264  
O   -1.8671164   -1.5663939    1.5732860  
C    0.0000000    0.0000000    1.4700000  
H    2.3005065    1.9304404    0.8477417  
H    2.0679347    1.7444845    5.0445261  
H   -0.0904770   -0.0778569    5.3997470  
H   -2.3849669   -2.0011402    3.5251786  
H   -1.7775064   -1.4909735    0.6183591  
H    3.3468514    2.8078103    3.1724291  
