60

C    5.9227655   -1.8531659   -4.9686310  
C    7.0057439   -2.6733784   -4.7521213  
C    7.8298045   -2.5901851   -5.9134147  
C    7.1933920   -1.6962658   -6.8121991  
N    6.0371471   -1.2685931   -6.2082039  
C    7.7268179   -1.3751436   -8.0640483  
C    8.9246693   -1.9669785   -8.4148472  
O    9.4901215   -1.6882333   -9.6254580  
C    9.5746624   -2.8617826   -7.5318682  
O   10.7587985   -3.3685338   -8.0262059  
C    9.0488670   -3.1792458   -6.2968452  
H    7.1797683   -3.2603944   -3.8666154  
H    5.3822416   -0.6182429   -6.6033297  
H    7.2466211   -0.6947060   -8.7536993  
H   10.3092383   -2.1986094   -9.6682259  
H   11.1330346   -3.9631934   -7.3689910  
H    9.5694440   -3.8681835   -5.6419838  
C    4.5546440   -2.0975051   -2.8456837  
C    3.3966020   -1.6333854   -2.3093944  
C    2.8128205   -0.7373021   -3.2794817  
C    3.7322611   -0.7172949   -4.4331797  
N    4.7679906   -1.5620815   -4.1068517  
C    3.5352976    0.0116907   -5.5607835  
C    2.3379420    0.8314597   -5.6435732  
O    2.0707012    1.5238118   -6.6169855  
C    1.3504338    0.8257212   -4.4333666  
O    0.3391714    1.5121845   -4.4914818  
C    1.6707636   -0.0012343   -3.2725974  
H    2.9970333   -1.8893867   -1.3442921  
H    4.2221665    0.0121010   -6.3957208  
H    5.2702681   -2.7854718   -2.4255960  
C    1.0965514    0.0001358   -0.8010306  
C    0.0000000    0.0000000    0.0000000  
C   -1.1546565    0.0001470   -0.8669508  
C   -0.6372019    0.0003520   -2.2486278  
N    0.7342867    0.0007338   -2.1395012  
C   -1.4147744    0.0001354   -3.3608712  
C   -2.8576052   -0.0001047   -3.1854454  
O   -3.6427785   -0.0002490   -4.1244896  
C   -3.4275841   -0.0000727   -1.7311660  
O   -4.6406832    0.0000333   -1.5710049  
C   -2.4891868   -0.0001090   -0.6116739  
H   -1.0150456    0.0001617   -4.3654239  
H   -2.8919122   -0.0002919    0.3920871  
H    2.1388270    0.0000663   -0.5261650  
C    2.5128556    2.1077716    2.9199648  
C    1.9592212    1.6432552    4.0696553  
C    0.8915788    0.7479214    3.6910360  
C    0.8684491    0.7287414    2.2159470  
N    1.8754542    1.5738793    1.8102719  
C    0.0000000    0.0000000    1.4700000  
C   -0.9772830   -0.8200135    2.1664417  
O   -1.8021297   -1.5120829    1.5842315  
C   -0.9711318   -0.8147624    3.7284083  
O   -1.7894187   -1.5009653    4.3257297  
C    0.0140216    0.0115358    4.4216297  
H    2.2638494    1.8988021    5.0689105  
H    0.0117648    0.0094386    5.5031631  
H    3.3327358    2.7953732    2.7900019  
H    2.1123206    1.7707734    0.8551938  
