62

C   10.0021455   -0.7202540   -1.5183739  
C    9.1001095   -0.0017590   -2.2684169  
C    9.8513058    0.7262105   -3.2381419  
C   11.2180257    0.4091443   -3.0296473  
N   11.2743793   -0.4700482   -1.9768119  
C   12.2467356    0.9483245   -3.8079985  
C   11.8892104    1.8232892   -4.8153666  
O   12.8537144    2.3785845   -5.6055523  
C   10.5310123    2.1522822   -5.0386983  
O   10.3373427    3.0377186   -6.0788122  
C    9.5156629    1.6209557   -4.2710501  
H   12.1131532   -0.8792599   -1.6066964  
H   13.2903336    0.7108044   -3.6540835  
H   12.3952675    2.9503841   -6.2349454  
H    9.3939568    3.2068610   -6.1625874  
H    8.4844993    1.8917532   -4.4655973  
H    9.8387870   -1.3902939   -0.6917423  
C    6.6174604   -0.0017048    1.3537077  
C    5.3857487   -0.0012517    0.7819026  
C    5.5854749   -0.0008503   -0.6481130  
C    7.0449748   -0.0011377   -0.8640992  
N    7.6133361   -0.0012549    0.3888394  
C    7.6418659   -0.0012958   -2.0828796  
C    6.7899755   -0.0009489   -3.2605120  
O    7.2316310   -0.0009950   -4.4021083  
C    5.2415215   -0.0003889   -3.0553446  
O    4.5141879    0.0002133   -4.0393396  
C    4.7161325   -0.0005435   -1.6923264  
H    4.4446705   -0.0010220    1.3024658  
H    6.8814406   -0.0021126    2.3987936  
H    8.5996517   -0.0030072    0.5738417  
C    3.2573665   -0.0002920   -1.5109385  
C    2.5379463   -0.0001709   -0.3591964  
C    1.1435038    0.0000331   -0.7338500  
C    1.1092599   -0.0000083   -2.2088477  
N    2.4227553    0.0001909   -2.6182613  
C   -0.0265539   -0.0002524   -2.9515660  
C   -1.3003040   -0.0002640   -2.2514977  
O   -2.3786790   -0.0004133   -2.8306421  
C   -1.2877727    0.0000311   -0.6895603  
O   -2.3539959    0.0003306   -0.0892030  
C    0.0000000    0.0000000    0.0000000  
H    2.9384091   -0.0000367    0.6389234  
H   -0.0296303   -0.0004086   -4.0327229  
H    2.7280482   -0.0013407   -3.5742119  
C    2.5311839    2.1237619    3.0120429  
C    1.9795631    1.6616747    1.8395852  
C    0.9223175    0.7739173    2.1983588  
C    0.8753926    0.7337535    3.6154372  
N    1.8668922    1.5631002    4.0777464  
C   -0.0496243   -0.0427881    4.3197917  
C   -0.9437528   -0.7922060    3.5801400  
O   -1.8685244   -1.5680278    4.2172520  
C   -0.9124520   -0.7656372    2.1655264  
O   -1.8671164   -1.5663939    1.5732860  
C    0.0000000    0.0000000    1.4700000  
H    2.3005065    1.9304404    0.8477417  
H    2.0679347    1.7444845    5.0445261  
H   -0.0904770   -0.0778569    5.3997470  
H   -2.3849669   -2.0011402    3.5251786  
H   -1.7775064   -1.4909735    0.6183591  
H    3.3468514    2.8078103    3.1724291  
