62

C    9.7954947    0.6589209   -0.4651524  
C   11.1434909    0.3956447   -0.3873243  
C   11.3277919   -0.5167831    0.6934666  
C   10.0457969   -0.7766327    1.2420050  
N    9.1383572   -0.0454680    0.5163545  
C    9.8473922   -1.6361454    2.3267460  
C   10.9634485   -2.2446576    2.8673990  
O   10.8266852   -3.0935352    3.9274535  
C   12.2509352   -1.9977574    2.3342610  
O   13.2608678   -2.6782920    2.9825290  
C   12.4474425   -1.1497366    1.2643210  
H   11.9009364    0.8110796   -1.0297291  
H    8.8729233   -1.8382645    2.7495460  
H   11.7153185   -3.4034691    4.1454794  
H   14.0966448   -2.4561599    2.5609376  
H   13.4455307   -0.9799650    0.8776981  
H    9.2509558    1.2945377   -1.1422250  
C    5.6607710   -0.0084428   -2.2933928  
C    6.9286313   -0.0216963   -1.7597063  
C    6.7831040   -0.0221735   -0.3407554  
C    5.3917941   -0.0090797   -0.0650520  
N    4.7390840    0.0009613   -1.2727298  
C    4.8785171   -0.0061458    1.2354581  
C    5.7862931   -0.0169277    2.2766136  
O    5.3393781   -0.0149873    3.5662943  
C    7.1783061   -0.0296907    2.0217529  
O    7.9524028   -0.0389772    3.1636948  
C    7.6853791   -0.0323190    0.7390227  
H    7.8455927   -0.0288938   -2.3237303  
H    3.8192266    0.0039564    1.4522609  
H    6.1255180   -0.0233901    4.1277015  
H    8.8785315   -0.0473412    2.9032746  
H    5.3410171   -0.0035083   -3.3213484  
C    3.2798077    0.0005856   -1.4499661  
C    2.5571132    0.0005565   -2.5996564  
C    1.1637425    0.0001547   -2.2210366  
C    1.1336959   -0.0000200   -0.7459475  
N    2.4483509   -0.0001429   -0.3402730  
C    0.0000000    0.0000000    0.0000000  
C   -1.2757370   -0.0000187   -0.6964411  
O   -2.3524597   -0.0000640   -0.1142306  
C   -1.2676502   -0.0000874   -2.2584078  
O   -2.3355774   -0.0004102   -2.8557287  
C    0.0181551    0.0001758   -2.9516297  
H    2.9547342    0.0006074   -3.5989118  
H    0.0150776    0.0003317   -4.0331632  
H    2.7563626    0.0012823    0.6148051  
C    2.5528530    2.1414826    2.8079335  
C    2.0663498    1.7338582    4.0032312  
C    0.9804344    0.8229586    3.6752840  
C    0.9495562    0.7966882    2.1971295  
N    1.8690446    1.5676019    1.6831036  
C    0.0000000    0.0000000    1.4700000  
C   -0.8785127   -0.7372425    2.1869543  
O   -1.8187535   -1.5261249    1.6395491  
C   -0.8723269   -0.7321790    3.6796354  
O   -1.7010379   -1.4274584    4.2670412  
C    0.1115397    0.0933559    4.4024240  
H    2.4028853    2.0163452    4.9860947  
H   -2.2861435   -1.9184361    2.3990168  
H    0.0832434    0.0693689    5.4835595  
H    3.3664920    2.8238276    2.6198634  
