62

C    0.5175838    0.7105647   -7.3564926  
C   -0.6492457    0.4607799   -8.0410249  
C   -0.3286863   -0.4482145   -9.0924858  
C    1.0602999   -0.7199704   -8.9987109  
N    1.5437654    0.0011124   -7.9352640  
C    1.7238121   -1.5798412   -9.8791436  
C    0.9713865   -2.1764768  -10.8721495  
O    1.5688668   -3.0251372  -11.7586062  
C   -0.4155825   -1.9175924  -10.9822110  
O   -1.0251160   -2.5871434  -12.0231310  
C   -1.0707599   -1.0692104  -10.1141585  
H   -1.6126953    0.8827770   -7.8115099  
H    2.7822311   -1.7910025   -9.8130953  
H    0.8744578   -3.3259297  -12.3590935  
H   -1.9593440   -2.3573441  -12.0269975  
H   -2.1339985   -0.8901092  -10.2233575  
H    0.6992977    1.3397728   -6.5020709  
C    3.2973507   -0.0000930   -3.8752373  
C    4.6195923   -0.0010282   -4.2548995  
C    4.6432640   -0.0012968   -5.6810972  
C    3.2943730   -0.0002022   -6.1197516  
N    2.5030707   -0.0014420   -4.9979422  
C    2.9388348    0.0001754   -7.4719280  
C    3.9636637   -0.0002588   -8.3981581  
O    3.6727434    0.0004316   -9.7317169  
C    5.3157196   -0.0017253   -7.9801154  
O    6.2197480   -0.0024104   -9.0222667  
C    5.6672022   -0.0023714   -6.6463297  
H    5.4632736   -0.0025686   -3.5861744  
H    1.4991494    0.0094887   -4.9958708  
H    4.5199209   -0.0003331  -10.1959961  
H    7.1085242   -0.0033678   -8.6539189  
H    6.7114253   -0.0036785   -6.3563739  
C    3.3321175    0.0004715   -1.3379331  
C    2.6974186    0.0000117   -2.5332308  
C    1.2800441   -0.0002117   -2.2052838  
C    1.2395036    0.0000644   -0.7271292  
N    2.4394065    0.0005460   -0.2131033  
C    0.0000000    0.0000000    0.0000000  
C   -1.1468701    0.0000635   -0.7169542  
O   -2.3742199    0.0000073   -0.1695491  
C   -1.1388766    0.0001607   -2.2096354  
O   -2.2206227    0.0000905   -2.7970412  
C    0.1454526    0.0001817   -2.9324239  
H   -2.9844344    0.0001026   -0.9290168  
H    0.1083579    0.0003683   -4.0135594  
H    4.3940038    0.0007619   -1.1498630  
C    0.8400945    0.7047457    2.2710304  
C    0.0000000    0.0000000    1.4700000  
C   -0.8844236   -0.7423113    2.3369512  
C   -0.4878984   -0.4098547    3.7186280  
N    0.5629682    0.4714286    3.6095011  
C   -1.0836927   -0.9095027    4.8308716  
C   -2.1891196   -1.8367527    4.6554461  
O   -2.7906899   -2.3413415    5.5944904  
C   -2.6257283   -2.2031529    3.2011665  
O   -3.5549479   -2.9829990    3.0410059  
C   -1.9068976   -1.5999348    2.0816745  
H   -0.7774656   -0.6525820    5.8354244  
H   -2.2155208   -1.8586617    1.0779135  
H    1.6384792    1.3747609    1.9961646  
H    1.0518368    0.8833920    4.3830260  
