60

C   -9.1539839    3.2347475   -1.6401363  
C   -8.0036620    2.5278995   -1.9039431  
C   -8.3863945    1.1678559   -2.0998969  
C   -9.7946345    1.1049363   -1.9423339  
N  -10.2286181    2.3768243   -1.6620167  
C  -10.5172224   -0.0854155   -2.0677023  
C   -9.8052657   -1.2331056   -2.3577073  
O  -10.4611169   -2.4226538   -2.4913038  
C   -8.3998278   -1.1906454   -2.5181986  
O   -7.8357239   -2.4167760   -2.8040895  
C   -7.6862934   -0.0167344   -2.3943933  
H   -7.0106924    2.9414471   -1.9484566  
H  -11.1845393    2.6436227   -1.5103186  
H  -11.5905556   -0.1400554   -1.9486538  
H   -9.7868817   -3.0853736   -2.6899828  
H   -6.8852742   -2.3000660   -2.8969754  
H   -9.2927485    4.2827512   -1.4366858  
C   -4.4924717    2.0950385   -0.2442177  
C   -3.4157280    1.6323169   -0.9302108  
C   -3.9167334    0.7362617   -1.9455502  
C   -5.3841445    0.7147473   -1.7937831  
N   -5.6689495    1.5587231   -0.7452222  
C   -6.2266195   -0.0146657   -2.5683130  
C   -5.6495861   -0.8333367   -3.6215676  
O   -6.3243554   -1.5259649   -4.3720696  
C   -4.0978604   -0.8259954   -3.8001700  
O   -3.6005729   -1.5115249   -4.6833547  
C   -3.2941076    0.0012878   -2.9038237  
H   -2.3878033    1.8892264   -0.7458682  
H   -4.5254896    2.7825514    0.5853157  
H   -6.5897791    1.7563628   -0.3987286  
C    0.0000000    0.0000000    0.0000000  
C    1.0541688   -0.0001723   -0.8560392  
C    0.5103136   -0.0000455   -2.1935956  
C   -0.9576373    0.0002461   -2.0455730  
N   -1.2018460   -0.0001389   -0.6915968  
C   -1.8348314    0.0008319   -3.0810607  
C   -1.2972851    0.0009739   -4.4314603  
O   -2.0050676    0.0014268   -5.4301316  
C    0.2542619    0.0004184   -4.6117572  
O    0.7184666    0.0002257   -5.7439122  
C    1.0974551    0.0000873   -3.4189129  
H    2.0940752   -0.0005484   -0.5817983  
H    2.1707276   -0.0000912   -3.5523673  
H   -2.1128194    0.0014915   -0.2706789  
C    0.0000000    0.0000000    1.4700000  
C    1.0541688    0.0001722    2.3260392  
C    0.5103138    0.0000454    3.6635956  
C   -0.9576371   -0.0002459    3.5155732  
N   -1.2018458    0.0001392    2.1615969  
C   -1.8348311   -0.0008317    4.5510609  
C   -1.2972847   -0.0009736    5.9014604  
O   -2.0050672   -0.0014265    6.9001319  
C    0.2542623   -0.0004184    6.0817573  
O    0.7184670   -0.0002256    7.2139121  
C    1.0974552   -0.0000873    4.8889129  
H    2.0940752    0.0005483    2.0517982  
H   -2.9081052   -0.0011668    4.4207061  
H    2.1707277    0.0000911    5.0223670  
H   -2.1128194   -0.0014912    1.7406791  
