60

C    2.8914949   -3.0241931   -5.1492902  
C    3.3426085   -3.6759039   -4.0249074  
C    4.4602698   -4.4677646   -4.4228892  
C    4.6459226   -4.2567041   -5.8131814  
N    3.6754191   -3.3764550   -6.2229390  
C    5.6616972   -4.8805284   -6.5438219  
C    6.5056137   -5.7327100   -5.8584250  
O    7.5145895   -6.3676802   -6.5230981  
C    6.3362189   -5.9564404   -4.4713179  
O    7.2564641   -6.8321007   -3.9330707  
C    5.3341834   -5.3415713   -3.7499394  
H    2.9176384   -3.5918560   -3.0393468  
H    3.5629209   -3.0310839   -7.1589117  
H    5.8084032   -4.7239784   -7.6036197  
H    7.9763279   -6.9068259   -5.8678234  
H    7.0719781   -6.9277593   -2.9936996  
H    5.2289785   -5.5325818   -2.6883719  
C    1.7720686   -2.0859332   -5.3149827  
C    0.8968260   -1.6247189   -4.3847634  
C   -0.0065340   -0.7270826   -5.0652228  
C    0.4171834   -0.7029976   -6.4782599  
N    1.5002587   -1.5471464   -6.5634088  
C   -0.1857670    0.0284590   -7.4494066  
C   -1.3281512    0.8467742   -7.0781198  
O   -1.9388962    1.5411253   -7.8800975  
C   -1.7940049    0.8367264   -5.5872527  
O   -2.7544408    1.5219332   -5.2627290  
C   -1.0641734    0.0073898   -4.6315339  
H    0.8854569   -1.8836207   -3.3409943  
H    0.1408060    0.0318502   -8.4800608  
H    2.0129022   -1.7433385   -7.4034994  
C    1.1319248    0.0015675   -0.8009270  
C    0.7969916    0.0034959   -2.1169404  
C   -0.6453336    0.0035703   -2.1842672  
C   -1.1266831    0.0015415   -0.7896027  
N    0.0000000    0.0000000    0.0000000  
C   -2.4346129    0.0013924   -0.4276297  
C   -3.4350110    0.0031352   -1.4820184  
O   -4.6384610    0.0030897   -1.2583919  
C   -2.9478958    0.0050460   -2.9661075  
O   -3.7809377    0.0062160   -3.8623775  
C   -1.5113821    0.0053068   -3.2312125  
H    1.4821240    0.0045436   -2.9459192  
H   -2.7664565    0.0000185    0.6013447  
H    2.1104318    0.0009428   -0.3488058  
C    0.8681109    0.7263879    2.2709268  
C    0.6127770    0.5096195    3.5869401  
C   -0.4920590   -0.4175482    3.6542670  
C   -0.8620974   -0.7254003    2.2596025  
N    0.0000000    0.0000000    1.4700000  
C   -1.8641242   -1.5660088    1.8976294  
C   -2.6293522   -2.2103885    2.9520183  
O   -3.5512764   -2.9839180    2.7283916  
C   -2.2549728   -1.8987399    4.4361073  
O   -2.8923672   -2.4351063    5.3323774  
C   -1.1543735   -0.9755647    4.7012123  
H    1.1382914    0.9492124    4.4159191  
H   -2.1192137   -1.7782617    0.8686553  
H   -0.9013378   -0.7652422    5.7314848  
H    1.6172880    1.3558399    1.8188057  
