62

C    6.6682528    0.0022276   -4.3668306  
C    5.4175879    0.0023082   -3.7938518  
C    5.6072947    0.0015089   -2.3801294  
C    7.0065883    0.0012480   -2.1479613  
N    7.6213768   -0.0002536   -3.3754184  
C    7.5601877    0.0007902   -0.8640932  
C    6.6852685    0.0008989    0.2048754  
O    7.1721933    0.0008179    1.4799905  
C    5.2859246    0.0007829   -0.0064390  
O    4.5477721    0.0004894    1.1590968  
C    4.7390844    0.0009612   -1.2727295  
H    4.4834523    0.0017681   -4.3289999  
H    8.6137254    0.0097951   -3.5274770  
H    8.6257738    0.0004455   -0.6804402  
H    6.4039029    0.0006185    2.0656479  
H    3.6139324    0.0004556    0.9276926  
H    6.9558189    0.0022981   -5.4042622  
C    3.2798077    0.0005856   -1.4499659  
C    2.5571132    0.0005565   -2.5996562  
C    1.1637425    0.0001548   -2.2210364  
C    1.1336957   -0.0000200   -0.7459472  
N    2.4483508   -0.0001429   -0.3402728  
C    0.0000000    0.0000000    0.0000000  
C   -1.2757370   -0.0000187   -0.6964410  
O   -2.3524597   -0.0000640   -0.1142306  
C   -1.2676501   -0.0000873   -2.2584079  
O   -2.3355772   -0.0004101   -2.8557287  
C    0.0181552    0.0001759   -2.9516296  
H    2.9547343    0.0006074   -3.5989115  
H    2.7563624    0.0012823    0.6148054  
C    0.8518565   -0.7041558   -5.2251428  
C    0.0139724    0.0003878   -4.4216237  
C   -0.8729907    0.7427330   -5.2859473  
C   -0.4803645    0.4105165   -6.6687947  
N    0.5708988   -0.4706743   -6.5627861  
C   -1.0793725    0.9102634   -7.7792663  
C   -2.1843909    1.8373743   -7.6005621  
O   -2.7886826    2.3420364   -8.5378186  
C   -2.6168974    2.2035197   -6.1449933  
O   -3.5457374    2.9832471   -5.9820767  
C   -1.8948221    1.6002144   -5.0276383  
H   -0.7759787    0.6535191   -8.7847236  
H   -2.2006146    1.8587647   -4.0229660  
H    1.6510888   -1.3741283   -4.9526469  
H    1.0576066   -0.8824758   -7.3377583  
C    2.5285572    2.1210227    2.9438989  
C    1.9331703    1.6216660    4.0790748  
C    0.8903039    0.7472258    3.6520102  
C    0.8972198    0.7527806    2.2336141  
N    1.9028376    1.5986179    1.8362361  
C    0.0000000    0.0000000    1.4700000  
C   -0.9207814   -0.7726952    2.1506477  
O   -1.8198395   -1.5274828    1.4542253  
C   -0.9436862   -0.7911793    3.5655508  
O   -1.9197945   -1.6098497    4.0950179  
C   -0.0590329   -0.0485852    4.3195194  
H    2.2150357    1.8593692    5.0905303  
H    2.1533708    1.7953814    0.8841339  
H   -2.3621246   -1.9821033    2.1118817  
H   -1.8668290   -1.5649508    5.0545920  
H   -0.1007624   -0.0827977    5.4019087  
H    3.3491200    2.8096064    2.8367138  
