64

C    6.5711552   -1.9498454   -6.9433671  
C    7.6621069   -2.7813669   -7.0476033  
C    8.0933475   -2.7340704   -8.4064232  
C    7.2201623   -1.8493853   -9.0896551  
N    6.3066069   -1.3924492   -8.1724610  
C    7.3488709   -1.5617933  -10.4518269  
C    8.3779849   -2.1782853  -11.1366919  
O    8.5494377   -1.9326877  -12.4683438  
C    9.2592755   -3.0643781  -10.4726253  
O   10.2322166   -3.5985411  -11.2920153  
C    9.1327303   -3.3487682   -9.1288871  
H    8.0933040   -3.3526902   -6.2434565  
H    5.5675123   -0.7407021   -8.3646741  
H    6.6865640   -0.8885594  -10.9784281  
H    9.3124590   -2.4558681  -12.7464584  
H   10.7843942   -4.1851216  -10.7660622  
H    9.8228153   -4.0318057   -8.6475125  
C    5.9071321   -2.1224379   -4.5070234  
C    5.7365513   -1.6242139   -5.7779061  
C    4.6105078   -0.7497125   -5.7346241  
C    4.1312170   -0.7540640   -4.3996383  
N    4.9399009   -1.5992754   -3.6811220  
C    3.0267438   -0.0008951   -3.9901699  
C    2.3947815    0.7709586   -4.9457030  
O    1.3115937    1.5260770   -4.5999939  
C    2.8578545    0.7882378   -6.2828948  
O    2.1221343    1.6061788   -7.1153810  
C    3.9472177    0.0452599   -6.6876137  
H    4.8491915   -1.7951603   -2.7006210  
H    1.0273563    1.9799843   -5.4040102  
H    2.5005414    1.5604824   -7.9987399  
H    4.2787218    0.0785438   -7.7188638  
H    6.6413445   -2.8106947   -4.1246694  
C    3.3003547    0.0005277   -1.4738986  
C    2.5232816    0.0003497   -2.6090746  
C    1.1623203   -0.0001319   -2.1820102  
C    1.1711884    0.0000584   -0.7636141  
N    2.4852301   -0.0014919   -0.3662359  
C    0.0000000    0.0000000    0.0000000  
C   -1.2020383    0.0000520   -0.6806479  
O   -2.3759248    0.0003493    0.0157745  
C   -1.2314655   -0.0005115   -2.0955511  
O   -2.5054388   -0.0008040   -2.6250184  
C   -0.0764513   -0.0007274   -2.8495195  
H    2.8036266    0.0088183    0.5858662  
H   -3.0835639    0.0000346   -0.6418822  
H   -2.4360043   -0.0011529   -3.5845924  
H   -0.1304091   -0.0013423   -3.9319089  
H    4.3715553    0.0004897   -1.3667133  
C    0.0000000    0.0000000    1.4700000  
C    1.0541688    0.0001722    2.3260392  
C    0.5103138    0.0000454    3.6635956  
C   -0.9576371   -0.0002459    3.5155732  
N   -1.2018458    0.0001392    2.1615969  
C   -1.8348311   -0.0008317    4.5510609  
C   -1.2972847   -0.0009736    5.9014604  
O   -2.0050672   -0.0014265    6.9001319  
C    0.2542623   -0.0004184    6.0817573  
O    0.7184670   -0.0002256    7.2139121  
C    1.0974552   -0.0000873    4.8889129  
H    2.0940752    0.0005483    2.0517982  
H   -2.9081052   -0.0011668    4.4207061  
H    2.1707277    0.0000911    5.0223670  
H   -2.1128194   -0.0014912    1.7406791  
