62

C    2.1864102    0.0732509   -7.3608002  
C    2.9063880    0.0612830   -6.1886416  
C    4.2868055    0.0637716   -6.5478648  
C    4.3480997    0.0778407   -7.9648941  
N    3.0553196    0.0813412   -8.4267645  
C    5.5556221    0.0842119   -8.6696196  
C    6.7225251    0.0765422   -7.9303938  
O    7.9294189    0.0826098   -8.5678756  
C    6.6819372    0.0621162   -6.5158397  
O    7.9281643    0.0555167   -5.9240478  
C    5.4910468    0.0555506   -5.8199504  
H    2.4880994    0.0508068   -5.1967153  
H    2.7844065    0.1012439   -9.3933000  
H    5.6091017    0.0947862   -9.7495403  
H    8.6036652    0.0752365   -7.8760644  
H    7.8113558    0.0458452   -4.9691310  
H    5.4914046    0.0443029   -4.7362755  
C   -1.2456296    0.0472577   -4.5828766  
C    0.0002605    0.0520440   -5.1230708  
C   -0.1629401    0.0660970   -6.5576454  
C   -1.6164586    0.0691565   -6.8107554  
N   -2.2165808    0.0569155   -5.5727758  
C   -2.1820808    0.0818099   -8.0442937  
C   -1.3004427    0.0929474   -9.1997691  
O   -1.7128462    0.1046490  -10.3521963  
C    0.2422773    0.0896873   -8.9552087  
O    0.9944632    0.0986749   -9.9202982  
C    0.7327432    0.0759266   -7.5793068  
H    0.9277599    0.0461944   -4.5787142  
H   -3.2507684    0.0839639   -8.2080410  
H   -3.2072922    0.0572149   -5.4129706  
C    1.1243418    0.0099155   -0.7919003  
C    0.7474093    0.0234033   -2.1148542  
C   -0.6787365    0.0234953   -2.1414700  
C   -1.1201738    0.0099357   -0.7935546  
N    0.0000000    0.0000000    0.0000000  
C   -2.4730811    0.0065398   -0.4408241  
C   -3.3971945    0.0173300   -1.4675058  
O   -4.7313507    0.0149490   -1.1793472  
C   -2.9763626    0.0305537   -2.8186325  
O   -4.0166449    0.0397860   -3.7247623  
C   -1.6418538    0.0336381   -3.1673481  
H    1.4178738    0.0310004   -2.9571209  
H   -2.8160170   -0.0039189    0.5845965  
H   -5.1938800    0.0234412   -2.0274384  
H   -3.6464643    0.0484782   -4.6127344  
H    2.1062469    0.0051381   -0.3505407  
C    0.0000000    0.0000000    1.4700000  
C    1.0662921    0.0000102    2.3034270  
C    0.4961870   -0.0000064    3.6418889  
C   -0.9663858    0.0000850    3.4240247  
N   -1.2632773    0.0000084    2.1528658  
C   -1.8985362    0.0000517    4.5177257  
C   -1.3925775   -0.0004564    5.7720543  
O   -2.1456383   -0.0005410    6.8851312  
C    0.0786232   -0.0009323    6.0245000  
O    0.4683759   -0.0012588    7.1921102  
C    1.0143166   -0.0008442    4.8859032  
H    2.1107198   -0.0000632    2.0421868  
H   -2.9622183    0.0003270    4.3293377  
H   -1.5042274   -0.0009692    7.6184419  
H    2.0724152   -0.0013148    5.1109744  
