62

C    6.1650517    0.7193215   -5.8880014  
C    7.1912946    0.0008650   -5.3195717  
C    7.8226986   -0.7267269   -6.3714931  
C    7.1326822   -0.4094810   -7.5694738  
N    6.1309301    0.4694506   -7.2399438  
C    7.4850630   -0.9482856   -8.8105648  
C    8.5536661   -1.8230525   -8.8429370  
O    8.9403629   -2.3779803  -10.0284896  
C    9.2544206   -2.1522201   -7.6582825  
O   10.2941180   -3.0374223   -7.8552330  
C    8.9071709   -1.6212642   -6.4335258  
H    5.4817463    0.8787106   -7.8872831  
H    6.9631082   -0.7106267   -9.7272353  
H    9.6932708   -2.9496966   -9.8296567  
H   10.7143521   -3.2067043   -7.0064986  
H    9.4624874   -1.8921878   -5.5431878  
H    5.4538224    1.3891210   -5.4358066  
C    4.7161325   -0.0005435   -1.6923264  
C    5.6957067   -0.0010600   -0.7518430  
C    6.9559333   -0.0010601   -1.4565873  
C    6.6279070   -0.0004679   -2.8950547  
N    5.2541447   -0.0005754   -2.9703260  
C    7.5472422    0.0001052   -3.8933172  
C    8.9536517   -0.0000847   -3.5265089  
O    9.8573549    0.0003300   -4.3521116  
C    9.3240199   -0.0009619   -2.0090665  
O   10.5048028   -0.0014354   -1.6881096  
C    8.2443355   -0.0012470   -1.0251284  
H    5.5518787   -0.0015841    0.3139556  
H    8.5092052   -0.0016496    0.0234744  
H    4.7240359    0.0012978   -3.8223991  
C    3.2573665   -0.0002920   -1.5109385  
C    2.5379463   -0.0001709   -0.3591964  
C    1.1435038    0.0000331   -0.7338500  
C    1.1092599   -0.0000083   -2.2088477  
N    2.4227553    0.0001909   -2.6182613  
C   -0.0265539   -0.0002524   -2.9515660  
C   -1.3003040   -0.0002640   -2.2514977  
O   -2.3786790   -0.0004133   -2.8306421  
C   -1.2877727    0.0000311   -0.6895603  
O   -2.3539959    0.0003306   -0.0892030  
C    0.0000000    0.0000000    0.0000000  
H    2.9384091   -0.0000367    0.6389234  
H   -0.0296303   -0.0004086   -4.0327229  
H    2.7280482   -0.0013407   -3.5742119  
C    2.5285572    2.1210227    2.9438989  
C    1.9331703    1.6216660    4.0790748  
C    0.8903039    0.7472258    3.6520102  
C    0.8972198    0.7527806    2.2336141  
N    1.9028376    1.5986179    1.8362361  
C    0.0000000    0.0000000    1.4700000  
C   -0.9207814   -0.7726952    2.1506477  
O   -1.8198395   -1.5274828    1.4542253  
C   -0.9436862   -0.7911793    3.5655508  
O   -1.9197945   -1.6098497    4.0950179  
C   -0.0590329   -0.0485852    4.3195194  
H    2.2150357    1.8593692    5.0905303  
H    2.1533708    1.7953814    0.8841339  
H   -2.3621246   -1.9821033    2.1118817  
H   -1.8668290   -1.5649508    5.0545920  
H   -0.1007624   -0.0827977    5.4019087  
H    3.3491200    2.8096064    2.8367138  
