62

C    2.3593773   -4.3512793    1.5424663  
C    2.6673677   -3.5189008    0.4913924  
C    4.0836216   -3.5621339    0.3272110  
C    4.5903250   -4.4453380    1.3146968  
N    3.5170565   -4.9053382    2.0365790  
C    5.9528627   -4.7290140    1.4481421  
C    6.8196474   -4.1100553    0.5685099  
O    8.1602576   -4.3518005    0.6541730  
C    6.3333000   -3.2253856   -0.4232772  
O    7.3216632   -2.6884046   -1.2221095  
C    4.9892786   -2.9448582   -0.5553306  
H    1.9585772   -2.9496281   -0.0852677  
H    3.5666585   -5.5569221    2.7987843  
H    6.3454208   -5.4011000    2.1987413  
H    8.5772790   -3.8274408   -0.0418191  
H    6.9089874   -2.1030259   -1.8644756  
H    1.4056432   -4.5924820    1.9796978  
C    4.5241706   -2.0197347   -1.5987485  
C    3.2543043   -1.6359768   -1.8666074  
C    3.3687740   -0.7183913   -2.9897430  
C    4.8178233   -0.6623652   -3.2790548  
N    5.5001622   -1.4232185   -2.4669559  
C    5.3513654    0.1489621   -4.3383784  
C    4.4770153    0.8711781   -5.0754339  
O    4.8354301    1.6710200   -6.0941750  
C    3.0088457    0.8354821   -4.8082932  
O    2.2716047    1.5186015   -5.5189576  
C    2.4861704   -0.0045255   -3.7159919  
H    2.3514142   -1.9383095   -1.3641534  
H    6.4147065    0.1710243   -4.5273997  
H    3.9981226    2.0475216   -6.4202358  
C    0.0000000    0.0000000    0.0000000  
C    1.0521669   -0.0011848   -0.8862341  
C    0.4917221   -0.0011931   -2.1979130  
C   -0.9187427    0.0003100   -2.0478683  
N   -1.1833170   -0.0009472   -0.7007915  
C   -1.7951698    0.0010259   -3.1372090  
C   -1.2375835    0.0005161   -4.4010425  
O   -2.0474208    0.0015256   -5.4997580  
C    0.1673584   -0.0013557   -4.5711962  
O    0.5673529   -0.0020659   -5.8915551  
C    1.0325773   -0.0023359   -3.4969890  
H    2.0953059   -0.0030542   -0.6200560  
H   -2.0989777    0.0102265   -0.2891825  
H   -2.8710930    0.0020274   -3.0295514  
H   -1.4634881    0.0006427   -6.2693593  
H    1.5290715   -0.0033076   -5.9180042  
C    1.1319247   -0.0015655    2.2709268  
C    0.7969915   -0.0034943    3.5869401  
C   -0.6453339   -0.0035710    3.6542670  
C   -1.1266833   -0.0015433    2.2596025  
N    0.0000000    0.0000000    1.4700000  
C   -2.4346130   -0.0013964    1.8976294  
C   -3.4350110   -0.0031408    2.9520183  
O   -4.6384611   -0.0030974    2.7283916  
C   -2.9478959   -0.0050506    4.4361073  
O   -3.7809380   -0.0062218    5.3323774  
C   -1.5113823   -0.0053090    4.7012123  
H    1.4821238   -0.0045407    4.4159191  
H   -2.7664565   -0.0000232    0.8686553  
H   -1.1823530   -0.0068408    5.7314848  
H    2.1104316   -0.0009391    1.8188057  
