60

C   -9.0572119    3.2532288   -1.1848395  
C  -10.1972103    2.4856876   -1.1236083  
C   -9.8147666    1.1467488   -1.4327678  
C   -8.4173152    1.1585588   -1.6754971  
N   -7.9893153    2.4534660   -1.5184965  
C   -7.6979663    0.0071290   -2.0094656  
C   -8.4021122   -1.1778625   -2.0997531  
O   -7.7489651   -2.3321585   -2.4222631  
C   -9.7967619   -1.2098411   -1.8615391  
O  -10.3540644   -2.4652653   -1.9906410  
C  -10.5071098   -0.0742667   -1.5322926  
H  -11.1833504    2.8466528   -0.8864869  
H   -7.0407840    2.7672338   -1.6175829  
H   -8.4166671   -3.0302652   -2.4314659  
H  -11.2973916   -2.3989465   -1.8136130  
H  -11.5749183   -0.1296589   -1.3556713  
H   -8.9216111    4.3081405   -1.0183095  
C   -4.3359695    2.1064014   -0.0635822  
C   -5.5644951    1.6417184   -0.4083570  
C   -5.3776807    0.7467251   -1.5259089  
C   -3.9292260    0.7279265   -1.8059379  
N   -3.3543288    1.5729377   -0.8848850  
C   -3.3460097   -0.0004262   -2.7913647  
C   -4.2020391   -0.8203941   -3.6324363  
O   -3.7724542   -1.5121265   -4.5463637  
C   -5.7389978   -0.8155427   -3.3539785  
O   -6.4697263   -1.5017111   -4.0557404  
C   -6.2499650    0.0103536   -2.2628044  
H   -6.4953656    1.8969410    0.0659373  
H   -4.0651605    2.7938489    0.7212545  
H   -2.3726197    1.7700214   -0.8181561  
C    0.0000000    0.0000000    0.0000000  
C    1.0662919   -0.0000103   -0.8334272  
C    0.4961868    0.0000066   -2.1718889  
C   -0.9663860   -0.0000849   -1.9540248  
N   -1.2632775   -0.0000084   -0.6828659  
C   -1.8985364   -0.0000515   -3.0477258  
C   -1.3925778    0.0004567   -4.3020543  
O   -2.1456385    0.0005412   -5.4151314  
C    0.0786229    0.0009326   -4.5544999  
O    0.4683756    0.0012594   -5.7221104  
C    1.0143162    0.0008443   -3.4159034  
H    2.1107195    0.0000631   -0.5721869  
H   -1.5042277    0.0009692   -6.1484420  
H    2.0724151    0.0013151   -3.6409746  
C    3.1301144    0.0010313    3.1728260  
C    2.5367765    0.0002768    1.9564670  
C    1.1089900   -0.0001027    2.2356185  
C    1.0177864    0.0004150    3.7115134  
N    2.1993570    0.0011613    4.2663826  
C   -0.2459220    0.0002880    4.3957118  
C   -1.3675327    0.0000606    3.6398520  
O   -2.6129319   -0.0000866    4.1448486  
C   -1.3083589   -0.0000910    2.1483229  
O   -2.3693264   -0.0004206    1.5241687  
C    0.0000000    0.0000000    1.4700000  
H    3.0096015    0.0001008    0.9892483  
H   -0.2829642    0.0004689    5.4753125  
H   -3.1967446   -0.0002093    3.3649027  
H    4.1849273    0.0015113    3.3971983  
