64

C    3.4845943   -2.1205976   -4.6879554  
C    4.7007592   -1.6225152   -5.0945554  
C    4.4462483   -0.7458296   -6.1905699  
C    3.0447692   -0.7487645   -6.4091415  
N    2.4912798   -1.5952672   -5.4808636  
C    2.4346454    0.0066824   -7.4150431  
C    3.2542062    0.7793992   -8.2146720  
O    2.7107154    1.5367311   -9.2117082  
C    4.6547983    0.7952922   -8.0124184  
O    5.3339649    1.6143413   -8.8906185  
C    5.2574126    0.0500672   -7.0204404  
H    5.6541881   -1.8624866   -4.6559438  
H    1.5111486   -1.7906147   -5.3851372  
H    3.4469189    1.9908883   -9.6418364  
H    6.2728562    1.5675897   -8.6859195  
H    6.3327327    0.0823314   -6.8895843  
H    3.2472694   -2.8101259   -3.8960050  
C   -1.0641738    0.0073911   -4.6315339  
C    0.2077342    0.0068494   -5.1556683  
C    0.0728976    0.0090250   -6.5756733  
C   -1.3163589    0.0111367   -6.8618346  
N   -1.9782052    0.0081252   -5.6591012  
C   -1.8198408    0.0139055   -8.1661683  
C   -0.9041960    0.0148613   -9.2004659  
O   -1.3413921    0.0178983  -10.4934707  
C    0.4859172    0.0124129   -8.9351413  
O    1.2686365    0.0133401  -10.0712285  
C    0.9833260    0.0094076   -7.6486338  
H    1.1204513    0.0039959   -4.5847635  
H   -2.9756842    0.0192487   -5.5455510  
H   -2.8775175    0.0153804   -8.3909329  
H   -0.5510068    0.0177656  -11.0489487  
H    2.1928166    0.0115764   -9.8038490  
C    1.1319245    0.0015656   -0.8009271  
C    0.7969914    0.0034943   -2.1169404  
C   -0.6453340    0.0035712   -2.1842672  
C   -1.1266833    0.0015434   -0.7896027  
N    0.0000000    0.0000000    0.0000000  
C   -2.4346131    0.0013965   -0.4276296  
C   -3.4350110    0.0031409   -1.4820182  
O   -4.6384610    0.0030975   -1.2583916  
C   -2.9478961    0.0050507   -2.9661073  
O   -3.7809383    0.0062220   -3.8623773  
C   -1.5113824    0.0053091   -3.2312124  
H    1.4821237    0.0045409   -2.9459193  
H   -2.7664564    0.0000233    0.6013449  
H    2.1104315    0.0009392   -0.3488061  
C    2.5285572    2.1210227    2.9438989  
C    1.9331703    1.6216660    4.0790748  
C    0.8903039    0.7472258    3.6520102  
C    0.8972198    0.7527806    2.2336141  
N    1.9028376    1.5986179    1.8362361  
C    0.0000000    0.0000000    1.4700000  
C   -0.9207814   -0.7726952    2.1506477  
O   -1.8198395   -1.5274828    1.4542253  
C   -0.9436862   -0.7911793    3.5655508  
O   -1.9197945   -1.6098497    4.0950179  
C   -0.0590329   -0.0485852    4.3195194  
H    2.2150357    1.8593692    5.0905303  
H    2.1533708    1.7953814    0.8841339  
H   -2.3621246   -1.9821033    2.1118817  
H   -1.8668290   -1.5649508    5.0545920  
H   -0.1007624   -0.0827977    5.4019087  
H    3.3491200    2.8096064    2.8367138  
