62

C    7.3215609   -3.2426549   -1.9446487  
C    6.8258252   -1.9902023   -2.2240697  
C    7.9474761   -1.1203359   -2.3648943  
C    9.1110817   -1.9049504   -2.1591592  
N    8.6951573   -3.1882005   -1.9044192  
C   10.4026883   -1.3735421   -2.2235594  
C   10.5218210   -0.0255755   -2.5009969  
O   11.7596070    0.5447741   -2.5758395  
C    9.3727090    0.7738755   -2.7089283  
O    9.6570774    2.0973981   -2.9749459  
C    8.0981890    0.2503552   -2.6452796  
H    9.2998607   -3.9703694   -1.7296990  
H   11.2935668   -1.9661701   -2.0675861  
H   11.6180205    1.4792235   -2.7758947  
H    8.8271979    2.5670692   -3.1026685  
H    7.2369084    0.8874713   -2.8088536  
H    6.8039594   -4.1702067   -1.7694509  
C    4.3939408   -2.1065673   -1.5664979  
C    5.4031210   -1.6413498   -2.3470119  
C    4.8103423   -0.7457937   -3.3121173  
C    3.3627144   -0.7272473   -3.0278283  
N    3.1757285   -1.5729269   -1.9588325  
C    2.4521483    0.0014840   -3.7217481  
C    2.9297306    0.8221548   -4.8221798  
O    2.1884027    1.5142699   -5.5075341  
C    4.4587975    0.8175815   -5.1411450  
O    4.8725560    1.5043408   -6.0654969  
C    5.3421068   -0.0087721   -4.3221483  
H    6.3995022   -0.0062035   -4.5493762  
H    4.4376453   -2.7945223   -0.7378260  
H    2.2909017   -1.7703225   -1.5285258  
C    0.0000000    0.0000000    0.0000000  
C    1.0662923   -0.0000101   -0.8334270  
C    0.4961873    0.0000065   -2.1718887  
C   -0.9663854   -0.0000848   -1.9540250  
N   -1.2632773   -0.0000083   -0.6828660  
C   -1.8985359   -0.0000514   -3.0477261  
C   -1.3925770    0.0004566   -4.3020547  
O   -2.1456378    0.0005414   -5.4151314  
C    0.0786240    0.0009326   -4.5545000  
O    0.4683767    0.0012591   -5.7221100  
C    1.0143171    0.0008444   -3.4159031  
H    2.1107200    0.0000633   -0.5721865  
H   -2.9622181   -0.0003268   -2.8593381  
H   -1.5042265    0.0009697   -6.1484419  
C    3.3041272   -0.0001177    3.0120429  
C    2.5845372    0.0004780    1.8395852  
C    1.2040006    0.0000008    2.1983588  
C    1.1422373   -0.0006037    3.6154372  
N    2.4348639   -0.0026109    4.0777464  
C   -0.0655181   -0.0008797    4.3197917  
C   -1.2321768   -0.0002324    3.5801400  
O   -2.4392816   -0.0001146    4.2172520  
C   -1.1911209    0.0000007    2.1655264  
O   -2.4371527    0.0002320    1.5732860  
C    0.0000000    0.0000000    1.4700000  
H    3.0031534    0.0000661    0.8477417  
H    2.7054629    0.0071099    5.0445261  
H   -0.1193549   -0.0014844    5.3997470  
H   -3.1132988    0.0000648    3.5251786  
H   -2.3200282    0.0004071    0.6183591  
H    4.3686625   -0.0004071    3.1724291  
