62

C   -1.0205348    0.5284374   -9.0360189  
C   -0.0281298   -0.3221230   -9.4651419  
C   -0.0809588   -0.3380660  -10.8904686  
C   -1.1342618    0.5294409  -11.2776511  
N   -1.6849344    1.0374138  -10.1272860  
C   -1.4731929    0.7577092  -12.6147408  
C   -0.7351832    0.0984558  -13.5785384  
O   -1.0235413    0.2854461  -14.8994840  
C    0.3192801   -0.7713768  -13.2120478  
O    0.9589331   -1.3532355  -14.2870502  
C    0.6540227   -0.9972518  -11.8931651  
H    0.6496921   -0.8652265   -8.8290688  
H   -2.4460664    1.6909332  -10.0876383  
H   -2.2749465    1.4175593  -12.9163902  
H   -0.3987684   -0.2597271  -15.3951755  
H    1.6567327   -1.9249827  -13.9527067  
H    1.4666633   -1.6691892  -11.6429790  
C    0.6255543   -0.6879832   -5.1891753  
C   -0.1496415   -0.0015615   -4.3176961  
C   -1.0811324    0.7434625   -5.1506212  
C   -0.7158469    0.3787721   -6.5363166  
N    0.2838785   -0.4600983   -6.5652208  
C   -1.4129716    0.9145426   -7.6730015  
C   -2.4290874    1.7752034   -7.4361332  
O   -3.1654583    2.3510479   -8.4016395  
C   -2.8218938    2.1625049   -6.0491001  
O   -3.7565103    2.9510595   -5.9080571  
C   -2.0913498    1.5993468   -4.8997160  
H   -3.8070533    2.9082153   -7.9251177  
H   -2.4067672    1.9049195   -3.9110970  
H    1.4391412   -1.3601753   -4.9673473  
C    3.3003543    0.0005276   -1.4738987  
C    2.5232814    0.0003497   -2.6090747  
C    1.1623200   -0.0001320   -2.1820103  
C    1.1711883    0.0000582   -0.7636140  
N    2.4852300   -0.0014919   -0.3662360  
C    0.0000000    0.0000000    0.0000000  
C   -1.2020384    0.0000519   -0.6806477  
O   -2.3759249    0.0003493    0.0157743  
C   -1.2314656   -0.0005115   -2.0955510  
O   -2.5054392   -0.0008039   -2.6250180  
C   -0.0764516   -0.0007274   -2.8495195  
H    2.8919955   -0.0005620   -3.6205304  
H    2.8036267    0.0088183    0.5858662  
H   -3.0835638    0.0000347   -0.6418818  
H   -2.4360047   -0.0011529   -3.5845921  
H    4.3715549    0.0004895   -1.3667136  
C    2.3971438    2.0127888    3.1728260  
C    1.9431056    1.6308205    1.9564670  
C    0.8496017    0.7127664    2.2356185  
C    0.7794028    0.6545384    3.7115134  
N    1.6840587    1.4146091    4.2663826  
C   -0.1885723   -0.1578550    4.3957118  
C   -1.0476298   -0.8789867    3.6398520  
O   -2.0015663   -1.6796266    4.1448486  
C   -1.0022026   -0.8410666    2.1483229  
O   -1.8147390   -1.5232959    1.5241687  
C    0.0000000    0.0000000    1.4700000  
H    2.3054237    1.9346118    0.9892483  
H   -0.2170646   -0.1815267    5.4753125  
H   -2.4487139   -2.0549881    3.3649027  
H    3.2048689    2.6911772    3.3971983  
