62

C    6.4271175   -0.0099543   -1.7246764  
C    5.6531445   -0.0089712   -0.5873849  
C    6.5467630   -0.0106748    0.5243898  
C    7.8644076   -0.0123922   -0.0007153  
N    7.7556426   -0.0138540   -1.3692126  
C    9.0022871   -0.0140362    0.8116993  
C    8.8064435   -0.0136377    2.1791139  
O    9.8827345   -0.0148365    3.0185248  
C    7.4995427   -0.0123076    2.7220912  
O    7.4706977   -0.0124915    4.1014072  
C    6.3765397   -0.0109587    1.9212248  
H    4.5768743   -0.0083443   -0.5621871  
H    8.5262792   -0.0046761   -2.0126534  
H   10.0092409   -0.0154937    0.4176884  
H    9.5281489   -0.0146008    3.9171539  
H    6.5517964   -0.0115141    4.3864039  
H    5.3882294   -0.0101402    2.3658822  
C    2.4861703   -0.0045381   -3.7159920  
C    3.4897069   -0.0059403   -2.8011220  
C    4.7313105   -0.0078378   -3.5381786  
C    4.3662424   -0.0073939   -4.9676944  
N    2.9909948   -0.0057669   -5.0074602  
C    5.2594882   -0.0083965   -5.9893676  
C    6.6749000   -0.0102476   -5.6590047  
O    7.5569792   -0.0113203   -6.5076719  
C    7.0843362   -0.0109998   -4.1516338  
O    8.2730123   -0.0128628   -3.8612797  
C    6.0304252   -0.0095089   -3.1401394  
H    3.3734532   -0.0058581   -1.7319639  
H    4.9706902   -0.0079167   -7.0312440  
H    2.4390591   -0.0035500   -5.8455586  
C    0.0000000    0.0000000    0.0000000  
C    1.0521669   -0.0011901   -0.8862341  
C    0.4917220   -0.0011956   -2.1979132  
C   -0.9187428    0.0003148   -2.0478684  
N   -1.1833170   -0.0009411   -0.7007915  
C   -1.7951699    0.0010351   -3.1372091  
C   -1.2375836    0.0005225   -4.4010425  
O   -2.0474210    0.0015361   -5.4997584  
C    0.1673583   -0.0013566   -4.5711960  
O    0.5673528   -0.0020686   -5.8915549  
C    1.0325772   -0.0023411   -3.4969890  
H    2.0953059   -0.0030648   -0.6200562  
H   -2.0989777    0.0102372   -0.2891825  
H   -2.8710931    0.0020419   -3.0295515  
H   -1.4634882    0.0006497   -6.2693594  
H    1.5290713   -0.0033151   -5.9180046  
C    3.2573670    0.0002920    2.9809380  
C    2.5379467    0.0001709    1.8291961  
C    1.1435042   -0.0000331    2.2038498  
C    1.1092607    0.0000083    3.6788474  
N    2.4227561   -0.0001909    4.0882609  
C   -0.0265533    0.0002524    4.4215661  
C   -1.3003036    0.0002640    3.7214979  
O   -2.3786784    0.0004133    4.3006425  
C   -1.2877726   -0.0000311    2.1595606  
O   -2.3539958   -0.0003306    1.5592035  
C    0.0000000    0.0000000    1.4700000  
H    2.9384090    0.0000368    0.8310761  
H   -0.0296291    0.0004086    5.5027230  
H    4.3270393    0.0004765    3.1139444  
H    2.7280493    0.0013407    5.0442112  
