64

C    8.1811659    0.0119068   -2.6415821  
C    8.3560342    0.0157677   -4.0060868  
C    9.7620774    0.0321531   -4.2456150  
C   10.4000619    0.0374220   -2.9787780  
N    9.4111819    0.0267859   -2.0266121  
C   11.7904170    0.0527169   -2.8322592  
C   12.5505817    0.0625711   -3.9856151  
O   13.9127459    0.0772755   -3.9001460  
C   11.9324863    0.0579039   -5.2587030  
O   12.8255277    0.0694465   -6.3102197  
C   10.5609199    0.0430901   -5.4040003  
H    7.5672072    0.0088645   -4.7386824  
H    9.5613935    0.0168735   -1.0339796  
H   12.2827931    0.0569493   -1.8695804  
H   14.2432430    0.0824161   -4.8078962  
H   12.3267628    0.0653135   -7.1329096  
H   10.1160743    0.0400326   -6.3922216  
C    5.6708528    0.0006686   -2.3611558  
C    4.7630507    0.0004755   -1.3275395  
C    5.5133494   -0.0015013   -0.1144246  
C    6.8855146   -0.0021655   -0.4737127  
N    6.9456605   -0.0027644   -1.8452079  
C    7.9149934   -0.0037515    0.4723107  
C    7.5526784   -0.0043769    1.8053169  
O    8.5177183   -0.0055688    2.7705676  
C    6.1889810   -0.0041066    2.1836620  
O    5.9909388   -0.0052337    3.5489905  
C    5.1728469   -0.0028155    1.2509254  
H    8.9627181   -0.0044090    0.2049626  
H    8.0554435   -0.0061259    3.6188396  
H    5.0439897   -0.0049363    3.7189642  
H    4.1374040   -0.0028212    1.5708262  
H    5.5098584    0.0015378   -3.4255988  
C    3.3003548    0.0005276   -1.4738982  
C    2.5232817    0.0003497   -2.6090743  
C    1.1623204   -0.0001319   -2.1820101  
C    1.1711886    0.0000583   -0.7636140  
N    2.4852302   -0.0014919   -0.3662356  
C    0.0000000    0.0000000    0.0000000  
C   -1.2020379    0.0000520   -0.6806479  
O   -2.3759249    0.0003495    0.0157742  
C   -1.2314652   -0.0005112   -2.0955511  
O   -2.5054384   -0.0008036   -2.6250184  
C   -0.0764510   -0.0007271   -2.8495195  
H    2.8919962   -0.0005619   -3.6205297  
H    2.8036267    0.0088181    0.5858667  
H   -3.0835636    0.0000348   -0.6418823  
H   -2.4360038   -0.0011526   -3.5845925  
H   -0.1304090   -0.0013420   -3.9319089  
C    0.8175213    0.6860729    2.3021913  
C    0.0000000    0.0000000    1.4700000  
C   -0.8887526   -0.7456559    2.3478473  
C   -0.4549825   -0.3816753    3.7138435  
N    0.5448156    0.4573574    3.6934124  
C   -1.0945674   -0.9182058    4.8835240  
C   -2.1210866   -1.7789155    4.6970523  
O   -2.8083856   -2.3554314    5.6976972  
C   -2.5824069   -2.1655116    3.3310774  
O   -3.5227682   -2.9541547    3.2362962  
C   -1.9100805   -1.6015804    2.1470656  
H   -0.7567140   -0.6349833    5.8697035  
H   -3.4728268   -2.9124471    5.2533954  
H   -2.2742832   -1.9066565    1.1752040  
H    1.6189533    1.3585343    2.0405121  
