64

C   -0.6141450    0.6530451   -9.3088764  
C    0.4651150   -0.1853907   -9.4660073  
C    0.8230257   -0.1491429  -10.8462920  
C   -0.0807792    0.7362388  -11.4875113  
N   -0.9412811    1.2042024  -10.5256578  
C   -0.0238382    1.0144964  -12.8564960  
C    0.9636639    0.3877803  -13.5915085  
O    1.0646986    0.6239907  -14.9320348  
C    1.8745260   -0.4991762  -12.9698527  
O    2.7991602   -1.0440902  -13.8367227  
C    1.8187732   -0.7743611  -11.6194121  
H    0.9357653   -0.7541126   -8.6824023  
H   -1.6860887    1.8589750  -10.6822331  
H   -0.7098074    1.6882058  -13.3512342  
H    1.8088406    0.0946793  -15.2472295  
H    3.3755956   -1.6305187  -13.3372954  
H    2.5299975   -1.4583181  -11.1712589  
C   -0.2208273   -0.6524176   -5.1346207  
C   -1.2456329    0.0471727   -4.5828766  
C   -1.8635339    0.7999333   -5.6488903  
C   -1.1093175    0.4792270   -6.8757135  
N   -0.1268905   -0.4059225   -6.4959280  
C   -1.3831922    0.9908180   -8.1024866  
C   -2.4948515    1.9194406   -8.2225246  
O   -2.8209717    2.4343802   -9.2840254  
C   -3.3072320    2.2735255   -6.9362639  
O   -4.2451134    3.0544074   -7.0249356  
C   -2.9168440    1.6579630   -5.6703519  
H   -3.4845596    1.9082094   -4.7844627  
H    0.4738208   -1.3271520   -4.6612425  
H    0.5523183   -0.8120321   -7.1130151  
C    1.1243410    0.0099923   -0.7919003  
C    0.7474076    0.0234544   -2.1148543  
C   -0.6787381    0.0234490   -2.1414700  
C   -1.1201745    0.0098592   -0.7935546  
N    0.0000000    0.0000000    0.0000000  
C   -2.4730816    0.0063709   -0.4408240  
C   -3.3971958    0.0170982   -1.4675058  
O   -4.7313517    0.0146259   -1.1793471  
C   -2.9763648    0.0303504   -2.8186324  
O   -4.0166480    0.0395118   -3.7247624  
C   -1.6418562    0.0335260   -3.1673481  
H    1.4178717    0.0310972   -2.9571209  
H   -2.8160166   -0.0041111    0.5845966  
H   -5.1938818    0.0230867   -2.0274384  
H   -3.6464675    0.0482293   -4.6127343  
H    2.1062467    0.0052819   -0.3505407  
C    0.8676693    0.7151171    2.2619005  
C    0.5875920    0.4624972    3.5848544  
C   -0.5048400   -0.4542819    3.6114698  
C   -0.8517165   -0.7276451    2.2635546  
N    0.0000000    0.0000000    1.4700000  
C   -1.8902865   -1.5946756    1.9108239  
C   -2.5912627   -2.1969500    2.9375057  
O   -3.6148162   -3.0527051    2.6493466  
C   -2.2603868   -1.9365747    4.2886322  
O   -3.0513550   -2.6123276    5.1947621  
C   -1.2361111   -1.0811317    4.6373480  
H    1.1060808    0.8876438    4.4271209  
H   -2.1597133   -1.8070987    0.8854031  
H   -3.9636755   -3.3565188    3.4974381  
H   -2.7621927   -2.3810384    6.0827341  
H   -1.0058879   -0.9010589    5.6809233  
H    1.6167816    1.3499334    1.8205408  
