60

C   -4.1050975    2.1177943    1.9017427  
C   -4.6164433    1.6568578    0.7107224  
C   -5.6858568    0.7694518    1.0323833  
C   -5.7813686    0.7283068    2.4469894  
N   -4.8058497    1.5567558    2.9436317  
C   -6.7304203   -0.0482052    3.1186433  
C   -7.5990707   -0.7965837    2.3482193  
O   -8.5455705   -1.5723283    2.9526796  
C   -7.5192659   -0.7690266    0.9355310  
O   -8.4534993   -1.5688139    0.3103185  
C   -6.5830804   -0.0034181    0.2722612  
H   -4.2615307    1.9261449   -0.2693363  
H   -4.6379775    1.7373366    3.9168679  
H   -6.8083002   -0.0840190    4.1965365  
H   -9.0382153   -2.0046521    2.2429879  
H   -8.3311563   -1.4927659   -0.6409187  
H   -3.2950346    2.8012604    2.0905037  
C   -3.3460096   -0.0004265   -2.7913646  
C   -3.9807084   -0.0008719   -1.5960668  
C   -5.3980827   -0.0010995   -1.9240138  
C   -5.4386236   -0.0006186   -3.4021678  
N   -4.2387207   -0.0003035   -3.9161945  
C   -6.6781270   -0.0007177   -4.1292973  
C   -7.8249971   -0.0016611   -3.4123433  
O   -9.0523473   -0.0018575   -3.9597482  
C   -7.8170030   -0.0025372   -1.9196622  
O   -8.8987492   -0.0032501   -1.3322566  
C   -6.5326742   -0.0023725   -1.1968739  
H   -3.5413277   -0.0011173   -0.6132035  
H   -6.6781274   -0.0001516   -5.2095336  
H   -9.6625614   -0.0026186   -3.2002807  
C    0.0000000    0.0000000    0.0000000  
C    1.0662919   -0.0000103   -0.8334269  
C    0.4961869    0.0000064   -2.1718889  
C   -0.9663859   -0.0000850   -1.9540246  
N   -1.2632774   -0.0000084   -0.6828657  
C   -1.8985363   -0.0000518   -3.0477257  
C   -1.3925778    0.0004564   -4.3020545  
O   -2.1456384    0.0005409   -5.4151311  
C    0.0786230    0.0009323   -4.5544998  
O    0.4683758    0.0012588   -5.7221098  
C    1.0143164    0.0008442   -3.4159030  
H    2.1107195    0.0000633   -0.5721867  
H   -1.5042275    0.0009691   -6.1484418  
H    2.0724152    0.0013148   -3.6409744  
C    0.0000000    0.0000000    1.4700000  
C    1.0662921    0.0000102    2.3034270  
C    0.4961870   -0.0000064    3.6418889  
C   -0.9663858    0.0000850    3.4240247  
N   -1.2632773    0.0000084    2.1528658  
C   -1.8985362    0.0000517    4.5177257  
C   -1.3925775   -0.0004564    5.7720543  
O   -2.1456383   -0.0005410    6.8851312  
C    0.0786232   -0.0009323    6.0245000  
O    0.4683759   -0.0012588    7.1921102  
C    1.0143166   -0.0008442    4.8859032  
H    2.1107198   -0.0000632    2.0421868  
H   -2.9622183    0.0003270    4.3293377  
H   -1.5042274   -0.0009692    7.6184419  
H    2.0724152   -0.0013148    5.1109744  
