60

C    4.0593873    0.6998872   -7.3354700  
C    5.1445145   -0.1176609   -7.1196439  
C    5.9703278   -0.0282831   -8.2792317  
C    5.3327194    0.8664894   -9.1763179  
N    4.1741135    1.2886993   -8.5730021  
C    5.8673224    1.1931829  -10.4262219  
C    7.0676015    0.6061454  -10.7767843  
O    7.6342891    0.8904315  -11.9855265  
C    7.7188198   -0.2894203   -9.8954820  
O    8.9053697   -0.7909667  -10.3893390  
C    7.1918654   -0.6123785   -8.6623794  
H    5.3188125   -0.7069156   -6.2356796  
H    3.5178904    1.9382663   -8.9672285  
H    5.3862243    1.8743001  -11.1145717  
H    8.4550503    0.3827179  -12.0284653  
H    9.2802989   -1.3865313   -9.7333403  
H    7.7134289   -1.3017621   -8.0087738  
C    2.9127944   -0.7214799   -3.3153362  
C    3.5543783   -0.5031937   -4.4921099  
C    2.7457300    0.4250582   -5.2466113  
C    1.5720421    0.7318925   -4.4069087  
N    1.7334695    0.0049281   -3.2500363  
C    0.5691433    1.5730721   -4.7651200  
C    0.6510614    2.2191847   -6.0644901  
O   -0.2019642    2.9933461   -6.4784007  
C    1.8850636    1.9086368   -6.9703616  
O    1.9647773    2.4464641   -8.0665589  
C    2.9022258    0.9847052   -6.4747973  
H    4.4875220   -0.9424634   -4.7969035  
H   -0.2829827    1.7845577   -4.1341955  
H    3.2021859   -1.3520631   -2.4904075  
C    1.1319246    0.0015678   -0.8009268  
C    0.7969914    0.0034958   -2.1169401  
C   -0.6453340    0.0035696   -2.1842669  
C   -1.1266832    0.0015410   -0.7896025  
N    0.0000000    0.0000000    0.0000000  
C   -2.4346129    0.0013913   -0.4276292  
C   -3.4350111    0.0031335   -1.4820181  
O   -4.6384614    0.0030875   -1.2583914  
C   -2.9478961    0.0050442   -2.9661074  
O   -3.7809382    0.0062135   -3.8623773  
C   -1.5113825    0.0053055   -3.2312122  
H   -2.7664565    0.0000174    0.6013448  
H   -1.1823533    0.0068381   -4.2614848  
H    2.1104316    0.0009435   -0.3488059  
C    0.8175213    0.6860729    2.3021913  
C    0.0000000    0.0000000    1.4700000  
C   -0.8887526   -0.7456559    2.3478473  
C   -0.4549825   -0.3816753    3.7138435  
N    0.5448156    0.4573574    3.6934124  
C   -1.0945674   -0.9182058    4.8835240  
C   -2.1210866   -1.7789155    4.6970523  
O   -2.8083856   -2.3554314    5.6976972  
C   -2.5824069   -2.1655116    3.3310774  
O   -3.5227682   -2.9541547    3.2362962  
C   -1.9100805   -1.6015804    2.1470656  
H   -0.7567140   -0.6349833    5.8697035  
H   -3.4728268   -2.9124471    5.2533954  
H   -2.2742832   -1.9066565    1.1752040  
H    1.6189533    1.3585343    2.0405121  
