62

C    5.5177606   -2.3856303   -6.6776271  
C    5.0833961   -1.0820965   -6.7454068  
C    5.8163734   -0.4530275   -7.7949864  
C    6.6903441   -1.4304273   -8.3360864  
N    6.4848039   -2.5917772   -7.6334935  
C    7.5658180   -1.1604284   -9.3922287  
C    7.5586796    0.1194851   -9.9117947  
O    8.3932777    0.4372288  -10.9440229  
C    6.6942095    1.1085122   -9.3851689  
O    6.8055719    2.3336880  -10.0095766  
C    5.8304634    0.8429323   -8.3430874  
H    6.9567024   -3.4621356   -7.8001343  
H    8.2345092   -1.9009209   -9.8090331  
H    8.2304115    1.3667764  -11.1506158  
H    6.1884986    2.9439081   -9.5942983  
H    5.1801071    1.6208691   -7.9605577  
H    5.2152945   -3.1842492   -6.0221267  
C    3.9135205   -0.7081243   -4.5250692  
C    2.8699641   -0.0020530   -4.0185824  
C    2.2916400    0.7390435   -5.1145535  
C    3.0895145    0.4044296   -6.3096355  
N    4.0568589   -0.4768159   -5.8847345  
C    2.8606213    0.9024529   -7.5511207  
C    1.7547619    1.8301062   -7.7216203  
O    1.4676782    2.3333354   -8.7998802  
C    0.8966364    2.1987794   -6.4696198  
O   -0.0368097    2.9789838   -6.6008455  
C    1.2404684    1.5971819   -5.1836520  
H    3.4577919    0.6439616   -8.4145320  
H    0.6412571    1.8574785   -4.3217268  
H    4.5900518   -1.3778176   -4.0193959  
C    3.2573670   -0.0002921   -1.5109382  
C    2.5379468   -0.0001711   -0.3591962  
C    1.1435043    0.0000330   -0.7338498  
C    1.1092608   -0.0000085   -2.2088474  
N    2.4227562    0.0001906   -2.6182610  
C   -0.0265533   -0.0002525   -2.9515663  
C   -1.3003033   -0.0002641   -2.2514979  
O   -2.3786785   -0.0004132   -2.8306425  
C   -1.2877724    0.0000310   -0.6895608  
O   -2.3539956    0.0003306   -0.0892035  
C    0.0000000    0.0000000    0.0000000  
H    2.9384091   -0.0000370    0.6389240  
H   -0.0296290   -0.0004088   -4.0327231  
H    4.3270394   -0.0004767   -1.6439445  
C    0.8576279    0.7185626    2.2703808  
C    0.0000000    0.0000000    1.4700000  
C   -0.8668858   -0.7285659    2.3373528  
C   -0.4876752   -0.4117774    3.6669281  
N    0.5635254    0.4678311    3.5902241  
C   -1.1297612   -0.9515493    4.7854808  
C   -2.1738724   -1.8268314    4.5576857  
O   -2.8357962   -2.3827064    5.6140350  
C   -2.5667212   -2.1555554    3.2384331  
O   -3.6226318   -3.0413663    3.1773122  
C   -1.9335634   -1.6236449    2.1344818  
H    1.0363952    0.8769718    4.3757045  
H   -0.8454472   -0.7142436    5.8013813  
H   -3.5178062   -2.9546422    5.2385129  
H   -3.8247440   -3.2102924    2.2519915  
H   -2.2566033   -1.8942483    1.1360343  
H    1.6567807    1.3889844    2.0042067  
