66

C    2.1307474   -3.0470890   -8.9932376  
C    1.8198242   -1.8243392   -8.4448971  
C    1.7619201   -0.8885620   -9.5198706  
C    2.0483743   -1.6042088  -10.7105505  
N    2.2693406   -2.9115772  -10.3547727  
C    2.0779813   -0.9967356  -11.9694749  
C    1.8132993    0.3577955  -12.0275058  
O    1.8287397    1.0010215  -13.2312647  
C    1.5257310    1.0891263  -10.8505278  
O    1.2842038    2.4289744  -11.0737211  
C    1.4966178    0.4905454   -9.6082003  
H    2.4848584   -3.6577030  -10.9910363  
H    2.2957798   -1.5365644  -12.8807103  
H    1.6215003    1.9267848  -13.0488405  
H    1.0986296    2.8494875  -10.2285384  
H    1.2734730    1.0765897   -8.7243243  
H    2.2660252   -4.0048754   -8.5206877  
C    2.3128798   -2.1207449   -5.9853291  
C    1.8202490   -1.6594121   -4.7865988  
C    0.7463179   -0.7716431   -5.0917846  
C    0.6288902   -0.7306954   -6.5047462  
N    1.5962670   -1.5596061   -7.0163180  
C   -0.3301656    0.0460747   -7.1617305  
C   -1.1864716    0.7949190   -6.3780533  
O   -2.1419342    1.5709316   -6.9678911  
C   -1.0847732    0.7675649   -4.9667678  
O   -2.0088871    1.5678194   -4.3272760  
C   -0.1387079    0.0017019   -4.3179684  
H    2.1902179   -1.9286749   -3.8121176  
H   -0.4247431    0.0817400   -8.2382921  
H   -2.6233439    2.0035649   -6.2507173  
H   -1.8718321    1.4918812   -3.3780379  
H    3.1196528   -2.8045578   -6.1865156  
C    3.3041273    0.0001178   -1.5420428  
C    2.5845373   -0.0004780   -0.3695851  
C    1.2040007   -0.0000007   -0.7283589  
C    1.1422374    0.0006038   -2.1454372  
N    2.4348641    0.0026111   -2.6077464  
C   -0.0655179    0.0008799   -2.8497918  
C   -1.2321766    0.0002325   -2.1101402  
O   -2.4392814    0.0001148   -2.7472522  
C   -1.1911209   -0.0000007   -0.6955266  
O   -2.4371528   -0.0002320   -0.1032862  
C    0.0000000    0.0000000    0.0000000  
H    3.0031533   -0.0000660    0.6222584  
H    2.7054631   -0.0071097   -3.5745261  
H   -3.1132988   -0.0000648   -2.0551787  
H   -2.3200282   -0.0004072    0.8516409  
H    4.3686625    0.0004073   -1.7024290  
C    2.5311839    2.1237619    3.0120429  
C    1.9795631    1.6616747    1.8395852  
C    0.9223175    0.7739173    2.1983588  
C    0.8753926    0.7337535    3.6154372  
N    1.8668922    1.5631002    4.0777464  
C   -0.0496243   -0.0427881    4.3197917  
C   -0.9437528   -0.7922060    3.5801400  
O   -1.8685244   -1.5680278    4.2172520  
C   -0.9124520   -0.7656372    2.1655264  
O   -1.8671164   -1.5663939    1.5732860  
C    0.0000000    0.0000000    1.4700000  
H    2.3005065    1.9304404    0.8477417  
H    2.0679347    1.7444845    5.0445261  
H   -0.0904770   -0.0778569    5.3997470  
H   -2.3849669   -2.0011402    3.5251786  
H   -1.7775064   -1.4909735    0.6183591  
H    3.3468514    2.8078103    3.1724291  
