62

C    0.5510305   -0.0006854   -8.8470384  
C    1.6112944   -0.6745070   -9.4076400  
C    1.6535648   -0.3110267  -10.7862966  
C    0.5856571    0.5951294  -11.0107524  
N   -0.0647219    0.7601885   -9.8130972  
C    0.3246552    1.1613753  -12.2621648  
C    1.1570454    0.8066304  -13.3059378  
O    0.9474602    1.3303818  -14.5488264  
C    2.2275928   -0.0962061  -13.1019009  
O    2.9654004   -0.3497804  -14.2397434  
C    2.4855019   -0.6554169  -11.8676848  
H    2.2722017   -1.3463234   -8.8871999  
H   -0.8588450    1.3553856   -9.6611405  
H   -0.4877327    1.8525124  -12.4398082  
H    1.6303353    0.9570371  -15.1211551  
H    3.6675859   -0.9680197  -14.0154236  
H    3.3127482   -1.3441204  -11.7418712  
C    1.8844582   -2.1024766   -5.2000022  
C    1.7579316   -1.6369215   -6.4693819  
C    0.6249278   -0.7419059   -6.4785610  
C    0.0979865   -0.7240445   -5.1005898  
N    0.9053925   -1.5695645   -4.3752748  
C   -0.9736297    0.0040464   -4.6965763  
C   -1.6535189    0.8247011   -5.6849139  
O   -2.6280811    1.5162659   -5.4198322  
C   -1.1127787    0.8208468   -7.1503118  
O   -1.6771972    1.5075994   -7.9911822  
C    0.0504537   -0.0048503   -7.4649009  
H    2.3864457   -1.8915806   -7.3040868  
H    2.6104400   -2.7902101   -4.7976799  
H    0.8008848   -1.7673171   -3.3970014  
C    1.1188642    0.0008222   -0.8003808  
C    0.0000000    0.0000000    0.0000000  
C   -1.1323862    0.0008899   -0.8673528  
C   -0.6382663    0.0019679   -2.1969280  
N    0.7324016    0.0038481   -2.1202242  
C   -1.4770914    0.0027318   -3.3154808  
C   -2.8395473    0.0020945   -3.0876857  
O   -3.7039201    0.0024425   -4.1440349  
C   -3.3517868    0.0013931   -1.7684331  
O   -4.7300497    0.0012366   -1.7073121  
C   -2.5248543    0.0009123   -0.6644817  
H    1.3576314   -0.0056167   -2.9057046  
H   -4.5940032    0.0021826   -3.7685128  
H   -4.9934602    0.0007259   -0.7819913  
H   -2.9462577    0.0005603    0.3339659  
H    2.1619895    0.0009355   -0.5342068  
C    0.8400945    0.7047457    2.2710304  
C    0.0000000    0.0000000    1.4700000  
C   -0.8844236   -0.7423113    2.3369512  
C   -0.4878984   -0.4098547    3.7186280  
N    0.5629682    0.4714286    3.6095011  
C   -1.0836927   -0.9095027    4.8308716  
C   -2.1891196   -1.8367527    4.6554461  
O   -2.7906899   -2.3413415    5.5944904  
C   -2.6257283   -2.2031529    3.2011665  
O   -3.5549479   -2.9829990    3.0410059  
C   -1.9068976   -1.5999348    2.0816745  
H   -0.7774656   -0.6525820    5.8354244  
H   -2.2155208   -1.8586617    1.0779135  
H    1.6384792    1.3747609    1.9961646  
H    1.0518368    0.8833920    4.3830260  
