62

C   -1.0406342    0.5644063   -9.0052726  
C   -0.0641026   -0.2749280   -9.4893923  
C   -0.1625263   -0.2511998  -10.9121887  
C   -1.2260028    0.6278228  -11.2412225  
N   -1.7386185    1.1042010  -10.0601608  
C   -1.6070890    0.8935120  -12.5599231  
C   -0.9015562    0.2605332  -13.5647795  
O   -1.2316586    0.4844594  -14.8701161  
C    0.1624139   -0.6202407  -13.2565242  
O    0.7662326   -1.1726626  -14.3671890  
C    0.5387359   -0.8830272  -11.9558118  
H    0.6326712   -0.8362003   -8.8906653  
H   -2.4968330    1.7571544   -9.9780406  
H   -2.4168093    1.5623207  -12.8173169  
H   -0.6241117   -0.0473749  -15.4004985  
H    1.4732675   -1.7542030  -14.0713562  
H    1.3576682   -1.5624995  -11.7505190  
C    0.6605682   -0.7024456   -5.1602328  
C   -0.1387079    0.0017019   -4.3179684  
C   -1.0653110    0.7443398   -5.1393888  
C   -0.7380199    0.4127268   -6.5392829  
N    0.3171094   -0.4684297   -6.4831128  
C   -1.3885281    0.9128902   -7.6201994  
C   -2.4839895    1.8398444   -7.3894272  
O   -3.1316438    2.3448508   -8.2970685  
C   -2.8477044    2.2053532   -5.9150055  
O   -3.7679149    2.9849435   -5.7083362  
C   -2.0739361    1.6016377   -4.8330337  
H   -2.3322391    1.8597480   -3.8150051  
H    1.4717489   -1.3724717   -4.9258386  
H    0.7669206   -0.8798730   -7.2802526  
C    3.3041273    0.0001178   -1.5420428  
C    2.5845373   -0.0004780   -0.3695851  
C    1.2040007   -0.0000007   -0.7283589  
C    1.1422374    0.0006038   -2.1454372  
N    2.4348641    0.0026111   -2.6077464  
C   -0.0655179    0.0008799   -2.8497918  
C   -1.2321766    0.0002325   -2.1101402  
O   -2.4392814    0.0001148   -2.7472522  
C   -1.1911209   -0.0000007   -0.6955266  
O   -2.4371528   -0.0002320   -0.1032862  
C    0.0000000    0.0000000    0.0000000  
H    3.0031533   -0.0000660    0.6222584  
H    2.7054631   -0.0071097   -3.5745261  
H   -3.1132988   -0.0000648   -2.0551787  
H   -2.3200282   -0.0004072    0.8516409  
H    4.3686625    0.0004073   -1.7024290  
C    0.8400945    0.7047457    2.2710304  
C    0.0000000    0.0000000    1.4700000  
C   -0.8844236   -0.7423113    2.3369512  
C   -0.4878984   -0.4098547    3.7186280  
N    0.5629682    0.4714286    3.6095011  
C   -1.0836927   -0.9095027    4.8308716  
C   -2.1891196   -1.8367527    4.6554461  
O   -2.7906899   -2.3413415    5.5944904  
C   -2.6257283   -2.2031529    3.2011665  
O   -3.5549479   -2.9829990    3.0410059  
C   -1.9068976   -1.5999348    2.0816745  
H   -0.7774656   -0.6525820    5.8354244  
H   -2.2155208   -1.8586617    1.0779135  
H    1.6384792    1.3747609    1.9961646  
H    1.0518368    0.8833920    4.3830260  
