60

C    5.0668717   -4.2851345   -8.8022921  
C    4.1104098   -3.4811766   -8.2267059  
C    4.2592539   -3.6035109   -6.8133839  
C    5.3317567   -4.5030163   -6.5841360  
N    5.7982934   -4.8994739   -7.8128680  
C    5.7592308   -4.8589844   -5.3014277  
C    5.0920602   -4.2964286   -4.2306373  
O    5.4686727   -4.6092577   -2.9565436  
C    4.0193365   -3.3971770   -4.4390310  
O    3.4569595   -2.9228163   -3.2719592  
C    3.5969099   -3.0457639   -5.7041758  
H    3.3928921   -2.8812904   -8.7599012  
H    6.5645650   -5.5295888   -7.9670162  
H    6.5758846   -5.5440830   -5.1199984  
H    4.8816175   -4.1155385   -2.3692846  
H    2.7408578   -2.3226886   -3.5014139  
H    5.2842726   -4.4700520   -9.8403198  
C    2.4782017   -2.1081874   -5.8783654  
C    1.9212504   -1.6438934   -7.0265428  
C    0.8545976   -0.7486147   -6.6450169  
C    0.8356627   -0.7292241   -5.1698703  
N    1.8439050   -1.5742004   -4.7669405  
C   -0.0307352   -0.0004646   -4.4215603  
C   -1.0100803    0.8193482   -5.1153366  
O   -1.8333384    1.5114170   -4.5308816  
C   -1.0083727    0.8138725   -6.6773134  
O   -1.8284266    1.4999054   -7.2724030  
C   -0.0251105   -0.0124247   -7.3732162  
H    2.2230608   -1.8995533   -8.0266247  
H   -0.0304448   -0.0104835   -8.4547392  
H    2.0835082   -1.7709325   -3.8125117  
C    3.2573670   -0.0002920   -1.5109380  
C    2.5379468   -0.0001709   -0.3591961  
C    1.1435043    0.0000332   -0.7338500  
C    1.1092609   -0.0000082   -2.2088477  
N    2.4227562    0.0001909   -2.6182613  
C   -0.0265532   -0.0002522   -2.9515663  
C   -1.3003035   -0.0002639   -2.2514981  
O   -2.3786784   -0.0004131   -2.8306429  
C   -1.2877725    0.0000312   -0.6895608  
O   -2.3539958    0.0003307   -0.0892036  
C    0.0000000    0.0000000    0.0000000  
H    2.9384091   -0.0000369    0.6389239  
H    4.3270394   -0.0004765   -1.6439446  
H    2.7280494   -0.0013406   -3.5742113  
C    0.8175213    0.6860729    2.3021913  
C    0.0000000    0.0000000    1.4700000  
C   -0.8887526   -0.7456559    2.3478473  
C   -0.4549825   -0.3816753    3.7138435  
N    0.5448156    0.4573574    3.6934124  
C   -1.0945674   -0.9182058    4.8835240  
C   -2.1210866   -1.7789155    4.6970523  
O   -2.8083856   -2.3554314    5.6976972  
C   -2.5824069   -2.1655116    3.3310774  
O   -3.5227682   -2.9541547    3.2362962  
C   -1.9100805   -1.6015804    2.1470656  
H   -0.7567140   -0.6349833    5.8697035  
H   -3.4728268   -2.9124471    5.2533954  
H   -2.2742832   -1.9066565    1.1752040  
H    1.6189533    1.3585343    2.0405121  
