60

C    2.1436208   -3.2575353   -9.9681084  
C    1.5511019   -2.5516604   -8.9467716  
C    1.4752606   -1.1915961   -9.3699425  
C    2.0415031   -1.1276620  -10.6688680  
N    2.4389736   -2.3989900  -11.0010724  
C    2.1336443    0.0629903  -11.3959474  
C    1.6449949    1.2099428  -10.8010542  
O    1.7095722    2.3997425  -11.4668022  
C    1.0767578    1.1664666   -9.5056652  
O    0.6355978    2.3919530   -9.0507970  
C    0.9857760   -0.0077410   -8.7876914  
H    1.2158949   -2.9658525   -8.0113176  
H    2.8664609   -2.6650518  -11.8696617  
H    2.5642189    0.1184022  -12.3862699  
H    1.3198929    3.0618449  -10.8811091  
H    0.2663750    2.2745725   -8.1701727  
H    2.3802227   -4.3052384  -10.0408927  
C    2.0577019   -2.1067617   -5.0538575  
C    2.0213371   -1.6421655   -6.3293585  
C    0.8918565   -0.7471753   -6.4193649  
C    0.2687259   -0.7282840   -5.0821507  
N    1.0227496   -1.5732438   -4.3008824  
C   -0.8287665    0.0000939   -4.7555305  
C   -1.4369816    0.8199928   -5.7901201  
O   -2.4278331    1.5117413   -5.5951874  
C   -0.7938994    0.8150427   -7.2135754  
O   -1.2973735    1.5011524   -8.0927953  
C    0.3886478   -0.0108725   -7.4444391  
H    2.7073334   -1.8974435   -7.1173024  
H    2.7533684   -2.7941800   -4.6006527  
H    0.8492697   -1.7702611   -3.3323080  
C    1.0672569   -0.0000698   -0.8321910  
C    0.0000000    0.0000000    0.0000000  
C   -1.1601223   -0.0000736   -0.8778472  
C   -0.5938729   -0.0000768   -2.2438435  
N    0.7113367   -0.0001553   -2.2234123  
C   -1.4286985   -0.0001877   -3.4135239  
C   -2.7683113   -0.0006798   -3.2270524  
O   -3.6653902   -0.0008302   -4.2276970  
C   -3.3702024   -0.0010610   -1.8610774  
O   -4.5974910   -0.0013779   -1.7662963  
C   -2.4926825   -0.0008943   -0.6770658  
H   -4.5324245   -0.0012258   -3.7833954  
H   -2.9677772   -0.0012974    0.2947961  
H    2.1134391   -0.0000547   -0.5705119  
C    2.5128556    2.1077716    2.9199648  
C    1.9592212    1.6432552    4.0696553  
C    0.8915788    0.7479214    3.6910360  
C    0.8684491    0.7287414    2.2159470  
N    1.8754542    1.5738793    1.8102719  
C    0.0000000    0.0000000    1.4700000  
C   -0.9772830   -0.8200135    2.1664417  
O   -1.8021297   -1.5120829    1.5842315  
C   -0.9711318   -0.8147624    3.7284083  
O   -1.7894187   -1.5009653    4.3257297  
C    0.0140216    0.0115358    4.4216297  
H    2.2638494    1.8988021    5.0689105  
H    0.0117648    0.0094386    5.5031631  
H    3.3327358    2.7953732    2.7900019  
H    2.1123206    1.7707734    0.8551938  
