62

C    0.0000000    0.0000000    0.0000000  
C    1.0521658   -0.0011915   -0.8862348  
C    0.4917204   -0.0011962   -2.1979134  
C   -0.9187438    0.0003156   -2.0478678  
N   -1.1833172   -0.0009399   -0.7007906  
C   -1.7951720    0.0010369   -3.1372081  
C   -1.2375860    0.0005237   -4.4010417  
O   -2.0474242    0.0015383   -5.4997568  
C    0.1673556   -0.0013570   -4.5711965  
O    0.5673491   -0.0020698   -5.8915554  
C    1.0325755   -0.0023424   -3.4969898  
H    2.0953050   -0.0030673   -0.6200571  
H   -2.0989779    0.0102395   -0.2891812  
H   -1.4634918    0.0006513   -6.2693586  
H    1.5290676   -0.0033171   -5.9180051  
H    2.1042130   -0.0039634   -3.6584468  
C   -4.3329808    2.1449891   -0.3175463  
C   -5.5711572    1.7385073   -0.6826093  
C   -5.3538080    0.8273651   -1.7957482  
C   -3.8860978    0.7997184   -1.9736433  
N   -3.2823588    1.5700994   -1.1099296  
C   -3.2578670    0.0024074   -2.9908491  
C   -4.0594148   -0.7341158   -3.7935875  
O   -3.6090807   -1.5234538   -4.7836302  
C   -5.5440578   -0.7276609   -3.6388152  
O   -6.2117031   -1.4223443   -4.4048992  
C   -6.1645263    0.0984905   -2.5879030  
H   -4.4116756   -1.9150295   -5.1730682  
H   -7.2431293    0.0755131   -2.5084157  
H   -4.0641993    2.8271115    0.4733005  
C   -6.9529691    5.6148943    0.7497729  
C   -8.2072796    5.3320115    1.1719826  
C   -8.3794147    3.9111963    0.9109215  
C   -7.0960850    3.4838868    0.3133784  
N   -6.2559562    4.4782615    0.2164671  
C   -6.8603848    2.1254410   -0.0917833  
C   -7.8610946    1.2343000    0.0920147  
O   -7.7790723   -0.0653975   -0.2397981  
C   -9.1675866    1.6347094    0.6927728  
O  -10.0336065    0.7708144    0.8303101  
C   -9.3849582    3.0342277    1.1002318  
H   -8.9268061    6.0044390    1.6069520  
H   -8.6430116   -0.4400623    0.0099771  
H  -10.3451060    3.2838383    1.5315571  
H   -6.4435397    6.5651569    0.7711301  
C    1.1188642   -0.0008217    2.2703808  
C    0.0000000    0.0000000    1.4700000  
C   -1.1323862   -0.0008904    2.3373528  
C   -0.6382662   -0.0019682    3.6669281  
N    0.7324016   -0.0038477    3.5902241  
C   -1.4770914   -0.0027325    4.7854808  
C   -2.8395474   -0.0020958    4.5576857  
O   -3.7039201   -0.0024443    5.6140350  
C   -3.3517868   -0.0013946    3.2384331  
O   -4.7300496   -0.0012389    3.1773122  
C   -2.5248543   -0.0009135    2.1344818  
H    1.3576314    0.0056174    4.3757045  
H   -1.1067570   -0.0036993    5.8013813  
H   -4.5940033   -0.0021850    5.2385129  
H   -4.9934601   -0.0007286    2.2519915  
H   -2.9462578   -0.0005617    1.1360343  
H    2.1619896   -0.0009344    2.0042067  
