62

C    0.0000000    0.0000000    0.0000000  
C    1.0521670   -0.0011903   -0.8862341  
C    0.4917223   -0.0011957   -2.1979133  
C   -0.9187419    0.0003148   -2.0478687  
N   -1.1833165   -0.0009412   -0.7007917  
C   -1.7951689    0.0010351   -3.1372100  
C   -1.2375821    0.0005225   -4.4010430  
O   -2.0474197    0.0015361   -5.4997589  
C    0.1673595   -0.0013567   -4.5711966  
O    0.5673540   -0.0020687   -5.8915551  
C    1.0325779   -0.0023413   -3.4969890  
H    2.0953065   -0.0030650   -0.6200556  
H   -2.0989773    0.0102372   -0.2891831  
H   -1.4634867    0.0006498   -6.2693597  
H    1.5290733   -0.0033154   -5.9180042  
H    2.1042160   -0.0039610   -3.6584451  
C   -3.2578643    0.0024039   -2.9908521  
C   -4.0046933    0.0033126   -1.8566910  
C   -5.3897511    0.0044627   -2.2646723  
C   -5.3886182    0.0041181   -3.7400671  
N   -4.0656842    0.0032564   -4.1178685  
C   -6.5062972    0.0045472   -4.5098061  
C   -7.7964663    0.0056318   -3.8404804  
O   -8.8606446    0.0061497   -4.4453152  
C   -7.8213898    0.0062655   -2.2786917  
O   -8.9017009    0.0074859   -1.7040725  
C   -6.5505216    0.0054372   -1.5584518  
H   -3.6282780    0.0033734   -0.8492560  
H   -6.4834491    0.0041525   -5.5907257  
H   -3.7375590    0.0012866   -5.0662233  
C   -6.5857685    0.0057646   -0.0888745  
C   -5.5397666    0.0051731    0.7698800  
C   -6.1418005    0.0058755    2.0942873  
C   -7.5987288    0.0069981    1.8414166  
N   -7.8650559    0.0068577    0.5635046  
C   -8.5568351    0.0078966    2.9124522  
C   -8.0810982    0.0072943    4.1785521  
O   -8.8606306    0.0080135    5.2732526  
C   -6.6163740    0.0057884    4.4662012  
O   -6.2547303    0.0054342    5.6428211  
C   -5.6536492    0.0049322    3.3503678  
H   -4.4893754    0.0042705    0.5337578  
H   -9.6156943    0.0089152    2.6986139  
H   -8.2369877    0.0072750    6.0217321  
H   -4.6012524    0.0037305    3.6007448  
C    3.3003543   -0.0005276    2.9438989  
C    2.5232812   -0.0003497    4.0790748  
C    1.1623199    0.0001319    3.6520102  
C    1.1711883   -0.0000583    2.2336141  
N    2.4852299    0.0014920    1.8362361  
C    0.0000000    0.0000000    1.4700000  
C   -1.2020384   -0.0000520    2.1506477  
O   -2.3759250   -0.0003494    1.4542253  
C   -1.2314658    0.0005113    3.5655508  
O   -2.5054393    0.0008037    4.0950179  
C   -0.0764518    0.0007272    4.3195194  
H    2.8919952    0.0005619    5.0905303  
H    2.8036267   -0.0088181    0.8841339  
H   -3.0835639   -0.0000348    2.1118817  
H   -2.4360050    0.0011527    5.0545920  
H   -0.1304098    0.0013421    5.4019087  
H    4.3715549   -0.0004895    2.8367138  
