64

C    0.9757159   -1.0721211   -9.5475654  
C    0.5183080    0.0274013   -8.8588733  
C    0.6278793    1.1448936   -9.7385355  
C    1.1627665    0.6619896  -10.9602664  
N    1.3640959   -0.6875931  -10.8095663  
C    1.4060561    1.4910439  -12.0594784  
C    1.1035912    2.8319616  -11.9229747  
O    1.3211185    3.6859375  -12.9652910  
C    0.5695828    3.3328003  -10.7118560  
O    0.3216891    4.6898014  -10.7328120  
C    0.3295666    2.5155444   -9.6269536  
H    1.7256264   -1.3028593  -11.5157705  
H    1.8136970    1.1291940  -12.9933391  
H    1.0465056    4.5613842  -12.6628923  
H   -0.0370933    4.9466781   -9.8778898  
H   -0.0799735    2.9278347   -8.7122023  
H    1.0569888   -2.0999723   -9.2379265  
C    1.8886554   -2.0886686   -5.2633577  
C    0.9763566   -1.6271610   -4.3696034  
C    0.1009362   -0.7303189   -5.0866450  
C    0.5814328   -0.7070199   -6.4814108  
N    1.6673588   -1.5508189   -6.5221211  
C    0.0179872    0.0235611   -7.4766416  
C   -1.1387598    0.8416956   -7.1524079  
O   -1.7168203    1.5352810   -7.9788982  
C   -1.6645101    0.8324701   -5.6815895  
O   -2.6375203    1.5175331   -5.3966331  
C   -0.9736297    0.0040464   -4.6965763  
H    0.9228833   -1.8853691   -3.3269707  
H    2.7041548   -2.7762787   -5.1083002  
H    2.2136191   -1.7473804   -7.3406622  
C    1.1188642    0.0008222   -0.8003808  
C    0.0000000    0.0000000    0.0000000  
C   -1.1323862    0.0008899   -0.8673528  
C   -0.6382663    0.0019679   -2.1969280  
N    0.7324016    0.0038481   -2.1202242  
C   -1.4770914    0.0027318   -3.3154808  
C   -2.8395473    0.0020945   -3.0876857  
O   -3.7039201    0.0024425   -4.1440349  
C   -3.3517868    0.0013931   -1.7684331  
O   -4.7300497    0.0012366   -1.7073121  
C   -2.5248543    0.0009123   -0.6644817  
H    1.3576314   -0.0056167   -2.9057046  
H   -4.5940032    0.0021826   -3.7685128  
H   -4.9934602    0.0007259   -0.7819913  
H   -2.9462577    0.0005603    0.3339659  
H    2.1619895    0.0009355   -0.5342068  
C    2.5311839    2.1237619    3.0120429  
C    1.9795631    1.6616747    1.8395852  
C    0.9223175    0.7739173    2.1983588  
C    0.8753926    0.7337535    3.6154372  
N    1.8668922    1.5631002    4.0777464  
C   -0.0496243   -0.0427881    4.3197917  
C   -0.9437528   -0.7922060    3.5801400  
O   -1.8685244   -1.5680278    4.2172520  
C   -0.9124520   -0.7656372    2.1655264  
O   -1.8671164   -1.5663939    1.5732860  
C    0.0000000    0.0000000    1.4700000  
H    2.3005065    1.9304404    0.8477417  
H    2.0679347    1.7444845    5.0445261  
H   -0.0904770   -0.0778569    5.3997470  
H   -2.3849669   -2.0011402    3.5251786  
H   -1.7775064   -1.4909735    0.6183591  
H    3.3468514    2.8078103    3.1724291  
