64

C    4.7848051   -1.0599256   -4.9721822  
C    5.6197354   -1.9467563   -4.3327379  
C    6.7112386   -2.2011878   -5.2150573  
C    6.4860861   -1.4350815   -6.3873685  
N    5.3069172   -0.7554980   -6.2075250  
C    7.3647723   -1.4407419   -7.4748737  
C    8.4914236   -2.2340022   -7.3770334  
O    9.3828955   -2.2764846   -8.4097413  
C    8.7333338   -3.0058222   -6.2157454  
O    9.8977770   -3.7436095   -6.2712835  
C    7.8667836   -3.0009334   -5.1426229  
H    5.4609870   -2.3603557   -3.3515514  
H    4.8952218   -0.1224087   -6.8691032  
H    7.1988063   -0.8592242   -8.3712524  
H   10.0854214   -2.8819324   -8.1392669  
H    9.9858418   -4.2352526   -5.4490096  
H    8.0784910   -3.6026872   -4.2665238  
C    2.9043666   -0.7136453   -3.3215827  
C    1.7334695    0.0049281   -3.2500363  
C    1.6178831    0.7351382   -4.4698857  
C    2.7571744    0.4192955   -5.2535849  
N    3.5185102   -0.4613568   -4.5259610  
C    2.9748795    0.9607492   -6.5241051  
C    2.0250236    1.8367721   -7.0125064  
O    2.1878117    2.3942862   -8.2476951  
C    0.8817970    2.1645729   -6.2454365  
O    0.0290284    3.0512977   -6.8698152  
C    0.6665129    1.6310030   -4.9918486  
H    3.8412008    0.7241713   -7.1263682  
H    1.4229306    2.9664849   -8.3919529  
H   -0.7162319    3.2195087   -6.2850967  
H   -0.2185375    1.9009315   -4.4276649  
H    3.3507356   -1.3850630   -2.6082023  
C    1.1319246    0.0015678   -0.8009268  
C    0.7969914    0.0034958   -2.1169401  
C   -0.6453340    0.0035696   -2.1842669  
C   -1.1266832    0.0015410   -0.7896025  
N    0.0000000    0.0000000    0.0000000  
C   -2.4346129    0.0013913   -0.4276292  
C   -3.4350111    0.0031335   -1.4820181  
O   -4.6384614    0.0030875   -1.2583914  
C   -2.9478961    0.0050442   -2.9661074  
O   -3.7809382    0.0062135   -3.8623773  
C   -1.5113825    0.0053055   -3.2312122  
H   -2.7664565    0.0000174    0.6013448  
H   -1.1823533    0.0068381   -4.2614848  
H    2.1104316    0.0009435   -0.3488059  
C    2.5311839    2.1237619    3.0120429  
C    1.9795631    1.6616747    1.8395852  
C    0.9223175    0.7739173    2.1983588  
C    0.8753926    0.7337535    3.6154372  
N    1.8668922    1.5631002    4.0777464  
C   -0.0496243   -0.0427881    4.3197917  
C   -0.9437528   -0.7922060    3.5801400  
O   -1.8685244   -1.5680278    4.2172520  
C   -0.9124520   -0.7656372    2.1655264  
O   -1.8671164   -1.5663939    1.5732860  
C    0.0000000    0.0000000    1.4700000  
H    2.3005065    1.9304404    0.8477417  
H    2.0679347    1.7444845    5.0445261  
H   -0.0904770   -0.0778569    5.3997470  
H   -2.3849669   -2.0011402    3.5251786  
H   -1.7775064   -1.4909735    0.6183591  
H    3.3468514    2.8078103    3.1724291  
