62

C    6.5595964   -3.4337353   -4.7411165  
C    7.6786803   -3.4361815   -5.5411870  
C    7.8433749   -2.1066089   -6.0307918  
C    6.7860791   -1.3303280   -5.4909406  
N    6.0240729   -2.1673090   -4.7141344  
C    6.6335988    0.0326893   -5.7624591  
C    7.5656032    0.6228736   -6.5938621  
O    7.4642234    1.9510283   -6.8917538  
C    8.6273783   -0.1350375   -7.1425161  
O    9.4723145    0.5963807   -7.9514983  
C    8.7782661   -1.4797889   -6.8753036  
H    8.2992627   -4.2913389   -5.7475274  
H    5.8298971    0.6298785   -5.3542569  
H    8.2036889    2.1564769   -7.4784787  
H   10.1607343    0.0105348   -8.2808412  
H    9.6015565   -2.0343514   -7.3101938  
H    6.1002179   -4.2354788   -4.1887239  
C    4.4649520   -2.1653177   -2.7120709  
C    4.8312418   -1.7687305   -3.9530906  
C    3.7831098   -0.8542234   -4.3792320  
C    2.8385953   -0.8140036   -3.2421922  
N    3.2330550   -1.5805083   -2.2619567  
C    1.6478437   -0.0100096   -3.2702997  
C    1.4116055    0.7208914   -4.3835425  
O    0.3400165    1.5153807   -4.5464032  
C    2.3459804    0.7017531   -5.5474751  
O    2.0677675    1.3918884   -6.5280524  
C    3.5606923   -0.1310630   -5.4944000  
H    0.4497510    1.9007545   -5.4344340  
H    4.2119804   -0.1172545   -6.3580334  
H    4.9801395   -2.8462761   -2.0533975  
C    1.1188642    0.0008224   -0.8003808  
C    0.0000000    0.0000000    0.0000000  
C   -1.1323861    0.0008899   -0.8673529  
C   -0.6382661    0.0019681   -2.1969282  
N    0.7324017    0.0038483   -2.1202240  
C   -1.4770912    0.0027320   -3.3154810  
C   -2.8395474    0.0020946   -3.0876860  
O   -3.7039199    0.0024426   -4.1440353  
C   -3.3517867    0.0013927   -1.7684331  
O   -4.7300496    0.0012363   -1.7073125  
C   -2.5248543    0.0009121   -0.6644818  
H   -1.1067568    0.0036992   -4.3313814  
H   -4.5940031    0.0021828   -3.7685133  
H   -4.9934602    0.0007260   -0.7819919  
H   -2.9462579    0.0005600    0.3339656  
H    2.1619896    0.0009357   -0.5342065  
C    2.4951002    2.0940188    2.9809380  
C    1.9440701    1.6314916    1.8291961  
C    0.8759964    0.7350050    2.2038498  
C    0.8497377    0.7130254    3.6788474  
N    1.8560616    1.5571714    4.0882609  
C   -0.0205033   -0.0168748    4.4215661  
C   -0.9962600   -0.8356168    3.7214979  
O   -1.8224391   -1.5286685    4.3006425  
C   -0.9864710   -0.8277881    2.1595606  
O   -1.8030528   -1.5133726    1.5592035  
C    0.0000000    0.0000000    1.4700000  
H    2.2509283    1.8888011    0.8310761  
H   -0.0229599   -0.0187323    5.5027230  
H    3.3143982    2.7817323    3.1139444  
H    2.0889452    1.7545833    5.0442112  
