64

C    7.3579187   -3.0629726   -1.9227634  
C    6.7838478   -1.8390909   -2.1777616  
C    7.8496261   -0.9055204   -2.3425699  
C    9.0614449   -1.6236181   -2.1759617  
N    8.7267618   -2.9302601   -1.9204414  
C   10.3183007   -1.0187312   -2.2719509  
C   10.3524610    0.3356855   -2.5413331  
O   11.5530890    0.9764388   -2.6459324  
C    9.1541990    1.0694391   -2.7104171  
O    9.3549760    2.4088333   -2.9732012  
C    7.9139231    0.4734104   -2.6155904  
H    9.3797932   -3.6776964   -1.7692120  
H   11.2455870   -1.5604358   -2.1458655  
H   11.3528326    1.9025807   -2.8341419  
H    8.4963784    2.8310857   -3.0737780  
H    7.0134225    1.0612742   -2.7497275  
H    6.8992266   -4.0197910   -1.7409409  
C    4.3849896   -2.1304615   -1.4422210  
C    3.1441139   -1.6666549   -1.8131356  
C    3.3426744   -0.7794829   -2.9122716  
C    4.7370042   -0.7414323   -3.1698021  
N    5.3406529   -1.5714195   -2.2580204  
C    5.2968251    0.0340155   -4.1896403  
C    4.4333178    0.7844917   -4.9637975  
O    4.9266825    1.5593199   -5.9733753  
C    3.0391176    0.7600316   -4.7220874  
O    2.3124332    1.5616240   -5.5780801  
C    2.4861704   -0.0045255   -3.7159919  
H    2.2107616   -1.9339275   -1.3479352  
H    6.3586917    0.0674736   -4.3909402  
H    4.1660274    1.9934381   -6.3810641  
H    1.3814042    1.4876307   -5.3471836  
H    4.6641025   -2.8147094   -0.6593675  
C    0.0000000    0.0000000    0.0000000  
C    1.0521669   -0.0011848   -0.8862341  
C    0.4917221   -0.0011931   -2.1979130  
C   -0.9187427    0.0003100   -2.0478683  
N   -1.1833170   -0.0009472   -0.7007915  
C   -1.7951698    0.0010259   -3.1372090  
C   -1.2375835    0.0005161   -4.4010425  
O   -2.0474208    0.0015256   -5.4997580  
C    0.1673584   -0.0013557   -4.5711962  
O    0.5673529   -0.0020659   -5.8915551  
C    1.0325773   -0.0023359   -3.4969890  
H    2.0953059   -0.0030542   -0.6200560  
H   -2.0989777    0.0102265   -0.2891825  
H   -2.8710930    0.0020274   -3.0295514  
H   -1.4634881    0.0006427   -6.2693593  
H    1.5290715   -0.0033076   -5.9180042  
C    0.0000000    0.0000000    1.4700000  
C    1.0662921    0.0000102    2.3034270  
C    0.4961870   -0.0000064    3.6418889  
C   -0.9663858    0.0000850    3.4240247  
N   -1.2632773    0.0000084    2.1528658  
C   -1.8985362    0.0000517    4.5177257  
C   -1.3925775   -0.0004564    5.7720543  
O   -2.1456383   -0.0005410    6.8851312  
C    0.0786232   -0.0009323    6.0245000  
O    0.4683759   -0.0012588    7.1921102  
C    1.0143166   -0.0008442    4.8859032  
H    2.1107198   -0.0000632    2.0421868  
H   -2.9622183    0.0003270    4.3293377  
H   -1.5042274   -0.0009692    7.6184419  
H    2.0724152   -0.0013148    5.1109744  
