62

C    7.4164689   -0.6112804   -5.1631706  
C    6.8910885    0.6327338   -5.4256054  
C    7.9926942    1.5245200   -5.5861767  
C    9.1751800    0.7613585   -5.4094382  
N    8.7893289   -0.5307624   -5.1522230  
C   10.4547571    1.3176510   -5.4989499  
C   10.5422175    2.6689063   -5.7721498  
O   11.7670304    3.2631510   -5.8707490  
C    9.3738901    3.4471878   -5.9513217  
O    9.6272297    4.7771105   -6.2167803  
C    8.1112271    2.8991127   -5.8628897  
H    9.4124277   -1.3020206   -4.9944585  
H   11.3599031    0.7414531   -5.3651358  
H   11.6034137    4.1956297   -6.0630427  
H    8.7860048    5.2314116   -6.3242761  
H    7.2346552    3.5203901   -6.0047164  
H    6.9205020   -1.5493513   -4.9815151  
C    3.4137021   -0.7170406   -3.0497332  
C    2.4521483    0.0014840   -3.7217481  
C    3.1199025    0.7307412   -4.7497988  
C    4.4993905    0.4143939   -4.6556562  
N    4.6433843   -0.4656285   -3.6118919  
C    5.4596855    0.9548847   -5.5161747  
C    5.0193326    1.8304459   -6.4896533  
O    5.9146525    2.3870198   -7.3566263  
C    3.6471001    2.1587381   -6.5992784  
O    3.3673157    3.0449044   -7.6189711  
C    2.6992267    1.6261177   -5.7505268  
H    5.5102029   -0.8745985   -3.3129774  
H    5.4052496    2.9590389   -7.9453270  
H    2.4201337    3.2135009   -7.6240651  
H    1.6553228    1.8964036   -5.8586422  
H    3.3198578   -1.3878673   -2.2129873  
C    0.0000000    0.0000000    0.0000000  
C    1.0662923   -0.0000101   -0.8334270  
C    0.4961873    0.0000065   -2.1718887  
C   -0.9663854   -0.0000848   -1.9540250  
N   -1.2632773   -0.0000083   -0.6828660  
C   -1.8985359   -0.0000514   -3.0477261  
C   -1.3925770    0.0004566   -4.3020547  
O   -2.1456378    0.0005414   -5.4151314  
C    0.0786240    0.0009326   -4.5545000  
O    0.4683767    0.0012591   -5.7221100  
C    1.0143171    0.0008444   -3.4159031  
H    2.1107200    0.0000633   -0.5721865  
H   -2.9622181   -0.0003268   -2.8593381  
H   -1.5042265    0.0009697   -6.1484419  
C    1.0672568    0.0000697    2.3021913  
C    0.0000000    0.0000000    1.4700000  
C   -1.1601224    0.0000736    2.3478473  
C   -0.5938729    0.0000769    3.7138435  
N    0.7113367    0.0001554    3.6934124  
C   -1.4286986    0.0001879    4.8835240  
C   -2.7683114    0.0006799    4.6970523  
O   -3.6653903    0.0008304    5.6976972  
C   -3.3702025    0.0010610    3.3310774  
O   -4.5974910    0.0013779    3.2362962  
C   -2.4926826    0.0008943    2.1470656  
H   -0.9878360   -0.0000190    5.8697035  
H   -4.5324246    0.0012261    5.2533954  
H   -2.9677772    0.0012974    1.1752040  
H    2.1134392    0.0000545    2.0405121  
