62

C    0.0000000    0.0000000    0.0000000  
C    1.0521661   -0.0011903   -0.8862347  
C    0.4917212   -0.0011956   -2.1979134  
C   -0.9187433    0.0003151   -2.0478682  
N   -1.1833174   -0.0009411   -0.7007909  
C   -1.7951708    0.0010353   -3.1372086  
C   -1.2375848    0.0005226   -4.4010421  
O   -2.0474230    0.0015361   -5.4997574  
C    0.1673567   -0.0013565   -4.5711966  
O    0.5673505   -0.0020686   -5.8915558  
C    1.0325763   -0.0023412   -3.4969895  
H    2.0953053   -0.0030651   -0.6200567  
H   -2.0989776    0.0102375   -0.2891818  
H   -1.4634905    0.0006503   -6.2693585  
H    1.5290694   -0.0033150   -5.9180049  
H    2.1042138   -0.0039610   -3.6584464  
C   -4.5107105    2.0951268   -0.3556521  
C   -3.4200326    1.6321240   -1.0190711  
C   -3.9000924    0.7371437   -2.0454180  
C   -5.3703974    0.7165662   -1.9247116  
N   -5.6767107    1.5600032   -0.8817947  
C   -6.1968239   -0.0116996   -2.7173986  
C   -5.5982305   -0.8300362   -3.7588145  
O   -6.2574707   -1.5216537   -4.5239086  
C   -4.0430726   -0.8236728   -3.9045785  
O   -3.5277087   -1.5089319   -4.7775515  
C   -3.2578661    0.0024043   -2.9908499  
H   -2.3960546    1.8881714   -0.8128611  
H   -7.2728553   -0.0125474   -2.6122007  
H   -6.6045198    1.7580529   -0.5546956  
C   -3.5536809    3.6460694    1.4100753  
C   -4.5789832    3.0319548    0.7750964  
C   -5.7762937    3.5004703    1.4558608  
C   -5.2752378    4.4154319    2.5038936  
N   -3.9731200    4.5048417    2.4818755  
C   -6.1618136    5.0954745    3.4075593  
C   -7.4886550    4.8719446    3.2702241  
O   -8.4294437    5.4394087    4.0441374  
C   -8.0252679    3.9544959    2.2221330  
O   -9.2443793    3.7980757    2.1549016  
C   -7.0954608    3.2686259    1.3072747  
H   -5.7681031    5.7583839    4.1641654  
H   -9.2731866    5.0885560    3.7062733  
H   -7.5239746    2.6123067    0.5617206  
H   -2.4985793    3.5613449    1.2037858  
C    0.0000000    0.0000000    1.4700000  
C    1.0521667    0.0011902    2.3562342  
C    0.4917218    0.0011957    3.6679131  
C   -0.9187428   -0.0003148    3.5178682  
N   -1.1833171    0.0009411    2.1707914  
C   -1.7951701   -0.0010350    4.6072090  
C   -1.2375837   -0.0005224    5.8710424  
O   -2.0474215   -0.0015360    6.9697579  
C    0.1673580    0.0013566    6.0411963  
O    0.5673524    0.0020687    7.3615553  
C    1.0325770    0.0023412    4.9669890  
H    2.0953057    0.0030649    2.0900562  
H   -2.0989778   -0.0102372    1.7591824  
H   -2.8710934   -0.0020419    4.4995513  
H   -1.4634884   -0.0006497    7.7393593  
H    1.5290710    0.0033153    7.3880045  
H    2.1042148    0.0039609    5.1284455  
