64

C    0.7401904   -0.3788486   -9.6593196  
C    1.5043564   -0.2313132  -10.7936715  
C    1.4319401    1.1430052  -11.1686435  
C    0.6025016    1.7907503  -10.2176516  
N    0.1978785    0.8375520   -9.3163689  
C    0.3091208    3.1565234  -10.2757941  
C    0.8633921    3.8816702  -11.3126763  
O    0.6098920    5.2188001  -11.4167660  
C    1.6931705    3.2532478  -12.2715131  
O    2.1682426    4.1103974  -13.2425659  
C    1.9828067    1.9058666  -12.2149289  
H    2.0463187   -1.0177390  -11.2904652  
H   -0.3224260    3.6561420   -9.5541766  
H    1.0859942    5.5268971  -12.1988581  
H    2.7193657    3.6068987  -13.8494907  
H    2.6215323    1.4522900  -12.9637785  
H    0.5379247   -1.2558040   -9.0685602  
C    0.2868086   -0.7145917   -5.1244006  
C    0.5709437   -0.4618085   -6.4464575  
C   -0.4158488    0.4546237   -6.9165559  
C   -1.2827316    0.7276168   -5.8275581  
N   -0.8287665    0.0000939   -4.7555305  
C   -2.3751512    1.5942451   -5.9293602  
C   -2.5963110    2.1964905   -7.1527026  
O   -3.6486642    3.0518607   -7.3073262  
C   -1.7427299    1.9364809   -8.2511614  
O   -2.0952730    2.6121525   -9.4011725  
C   -0.6650032    1.0814348   -8.1515273  
H    1.3881891   -0.8866264   -7.0038020  
H   -3.0396891    1.8063847   -5.1031715  
H   -3.6211411    3.3557246   -8.2239360  
H   -1.4688055    2.3811273  -10.0938263  
H    0.7908055   -1.3492512   -4.4157725  
C    1.0672569   -0.0000698   -0.8321910  
C    0.0000000    0.0000000    0.0000000  
C   -1.1601223   -0.0000736   -0.8778472  
C   -0.5938729   -0.0000768   -2.2438435  
N    0.7113367   -0.0001553   -2.2234123  
C   -1.4286985   -0.0001877   -3.4135239  
C   -2.7683113   -0.0006798   -3.2270524  
O   -3.6653902   -0.0008302   -4.2276970  
C   -3.3702024   -0.0010610   -1.8610774  
O   -4.5974910   -0.0013779   -1.7662963  
C   -2.4926825   -0.0008943   -0.6770658  
H   -4.5324245   -0.0012258   -3.7833954  
H   -2.9677772   -0.0012974    0.2947961  
H    2.1134391   -0.0000547   -0.5705119  
C    0.8576279    0.7185626    2.2703808  
C    0.0000000    0.0000000    1.4700000  
C   -0.8668858   -0.7285659    2.3373528  
C   -0.4876752   -0.4117774    3.6669281  
N    0.5635254    0.4678311    3.5902241  
C   -1.1297612   -0.9515493    4.7854808  
C   -2.1738724   -1.8268314    4.5576857  
O   -2.8357962   -2.3827064    5.6140350  
C   -2.5667212   -2.1555554    3.2384331  
O   -3.6226318   -3.0413663    3.1773122  
C   -1.9335634   -1.6236449    2.1344818  
H    1.0363952    0.8769718    4.3757045  
H   -0.8454472   -0.7142436    5.8013813  
H   -3.5178062   -2.9546422    5.2385129  
H   -3.8247440   -3.2102924    2.2519915  
H   -2.2566033   -1.8942483    1.1360343  
H    1.6567807    1.3889844    2.0042067  
