62

C    5.6303905   -1.1113500   -8.5457790  
C    6.1169078   -0.7357927   -9.7765211  
C    5.8894494    0.6665760   -9.9038959  
C    5.2559539    1.0956468   -8.7095312  
N    5.1118931   -0.0090902   -7.9073959  
C    4.8835079    2.4246583   -8.4863673  
C    5.1558026    3.3372037   -9.4870149  
O    4.8136326    4.6480822   -9.3210950  
C    5.7868574    2.9283387  -10.6859384  
O    5.9893674    3.9546020  -11.5854482  
C    6.1543170    1.6173540  -10.9068868  
H    6.5779246   -1.3920920  -10.4946625  
H    4.4002616    2.7580412   -7.5783317  
H    5.0884618    5.1060092  -10.1261014  
H    6.4197477    3.5938508  -12.3666234  
H    6.6360684    1.3339049  -11.8353538  
H    5.6109202   -2.0785329   -8.0734052  
C    6.1837010   -2.1071894   -4.1730100  
C    6.1473624   -1.6429265   -5.4486332  
C    5.0179318   -0.7478965   -5.5388751  
C    4.3948021   -0.7286186   -4.2016659  
N    5.1487785   -1.5734154   -3.4201754  
C    3.2973506   -0.0000934   -3.8752374  
C    2.6891816    0.8195676   -4.9100425  
O    1.6983689    1.5114228   -4.7152918  
C    3.3322636    0.8142071   -6.3334965  
O    2.8288281    1.5001137   -7.2128968  
C    4.5147646   -0.0118351   -6.5641428  
H    6.8333445   -1.8984502   -6.2365098  
H    6.8793287   -2.7945273   -3.7196245  
H    4.9752873   -1.7701682   -2.4515493  
C    3.3321174    0.0004714   -1.3379332  
C    2.6974186    0.0000115   -2.5332308  
C    1.2800441   -0.0002119   -2.2052838  
C    1.2395035    0.0000643   -0.7271293  
N    2.4394063    0.0005458   -0.2131034  
C    0.0000000    0.0000000    0.0000000  
C   -1.1468701    0.0000634   -0.7169542  
O   -2.3742201    0.0000072   -0.1695492  
C   -1.1388767    0.0001606   -2.2096354  
O   -2.2206229    0.0000903   -2.7970413  
C    0.1454526    0.0001815   -2.9324239  
H   -2.9844344    0.0001023   -0.9290168  
H    0.1083580    0.0003680   -4.0135594  
H    4.3940040    0.0007617   -1.1498630  
C    0.8576279    0.7185626    2.2703808  
C    0.0000000    0.0000000    1.4700000  
C   -0.8668858   -0.7285659    2.3373528  
C   -0.4876752   -0.4117774    3.6669281  
N    0.5635254    0.4678311    3.5902241  
C   -1.1297612   -0.9515493    4.7854808  
C   -2.1738724   -1.8268314    4.5576857  
O   -2.8357962   -2.3827064    5.6140350  
C   -2.5667212   -2.1555554    3.2384331  
O   -3.6226318   -3.0413663    3.1773122  
C   -1.9335634   -1.6236449    2.1344818  
H    1.0363952    0.8769718    4.3757045  
H   -0.8454472   -0.7142436    5.8013813  
H   -3.5178062   -2.9546422    5.2385129  
H   -3.8247440   -3.2102924    2.2519915  
H   -2.2566033   -1.8942483    1.1360343  
H    1.6567807    1.3889844    2.0042067  
