60

C    4.4078525   -0.9037537   -9.0099938  
C    3.9905199    0.1813347   -8.2745452  
C    4.0376512    1.3140406   -9.1401985  
C    4.4948981    0.8548653  -10.4019473  
N    4.7120876   -0.4958311  -10.2876432  
C    4.6626961    1.7036531  -11.5002147  
C    4.3631649    3.0402718  -11.3215843  
O    4.5088060    3.9128707  -12.3609944  
C    3.9060228    3.5175622  -10.0701727  
O    3.6507057    4.8732257  -10.0518941  
C    3.7405103    2.6808305   -8.9861926  
H    5.0302615   -1.0970169  -11.0261014  
H    5.0109578    1.3599323  -12.4644604  
H    4.2500375    4.7814792  -12.0265951  
H    3.3466133    5.1136031   -9.1713543  
H    3.3888745    3.0752925   -8.0400278  
H    4.5139344   -1.9361466   -8.7238629  
C    5.6703525   -2.0177346   -4.9085748  
C    4.8680133   -1.6338541   -3.8885421  
C    3.9117991   -0.7160921   -4.4884317  
C    4.2939630   -0.6601082   -5.9158072  
N    5.3241004   -1.4211364   -6.1680812  
C    3.5804909    0.1513597   -6.8632059  
C    2.5326218    0.8737501   -6.4055410  
O    1.7779987    1.6737360   -7.1779443  
C    2.1221162    0.8381010   -4.9708373  
O    1.1586084    1.5213824   -4.6244274  
C    2.8699641   -0.0020530   -4.0185824  
H    4.9187307   -1.9362135   -2.8565138  
H    1.1149868    2.0503428   -6.5715331  
H    6.5076563   -2.6965644   -4.8756220  
C    3.2573670   -0.0002921   -1.5109382  
C    2.5379468   -0.0001711   -0.3591962  
C    1.1435043    0.0000330   -0.7338498  
C    1.1092608   -0.0000085   -2.2088474  
N    2.4227562    0.0001906   -2.6182610  
C   -0.0265533   -0.0002525   -2.9515663  
C   -1.3003033   -0.0002641   -2.2514979  
O   -2.3786785   -0.0004132   -2.8306425  
C   -1.2877724    0.0000310   -0.6895608  
O   -2.3539956    0.0003306   -0.0892035  
C    0.0000000    0.0000000    0.0000000  
H    2.9384091   -0.0000370    0.6389240  
H   -0.0296290   -0.0004088   -4.0327231  
H    4.3270394   -0.0004767   -1.6439445  
C    2.5528530    2.1414826    2.8079335  
C    2.0663498    1.7338582    4.0032312  
C    0.9804344    0.8229586    3.6752840  
C    0.9495562    0.7966882    2.1971295  
N    1.8690446    1.5676019    1.6831036  
C    0.0000000    0.0000000    1.4700000  
C   -0.8785127   -0.7372425    2.1869543  
O   -1.8187535   -1.5261249    1.6395491  
C   -0.8723269   -0.7321790    3.6796354  
O   -1.7010379   -1.4274584    4.2670412  
C    0.1115397    0.0933559    4.4024240  
H    2.4028853    2.0163452    4.9860947  
H   -2.2861435   -1.9184361    2.3990168  
H    0.0832434    0.0693689    5.4835595  
H    3.3664920    2.8238276    2.6198634  
