64

C   -8.4281138    1.0905761   -2.2851587  
C   -9.7498415    0.7163873   -2.2110941  
C   -9.8003266   -0.6862852   -2.4651819  
C   -8.4675371   -1.1169429   -2.6890874  
N   -7.6598464   -0.0128202   -2.5743482  
C   -8.1395781   -2.4466582   -2.9703144  
C   -9.1759086   -3.3582887   -3.0262342  
O   -8.9118016   -4.6697954   -3.2968088  
C  -10.5122729   -2.9478387   -2.8060545  
O  -11.4307276   -3.9733471   -2.8961449  
C  -10.8365757   -1.6361592   -2.5288360  
H  -10.5760978    1.3737690   -2.0009909  
H   -7.1257987   -2.7812502   -3.1420707  
H   -9.7628398   -5.1268969   -3.2892503  
H  -12.3074226   -3.6115324   -2.7345863  
H  -11.8693195   -1.3514940   -2.3648730  
H   -7.9727791    2.0575021   -2.1559954  
C   -4.5109061    2.0977189   -0.3577879  
C   -3.4201849    1.6341429   -1.0207351  
C   -3.9001607    0.7380706   -2.0461681  
C   -5.3704639    0.7174771   -1.9254392  
N   -5.6768567    1.5619484   -0.8833829  
C   -6.1968217   -0.0116748   -2.7173826  
C   -5.5981518   -0.8310167   -3.7579633  
O   -6.2573275   -1.5234763   -4.5223509  
C   -4.0429941   -0.8246549   -3.9037354  
O   -3.5275665   -1.5107550   -4.7760092  
C   -3.2578655    0.0024282   -2.9908505  
H   -2.3962310    1.8904976   -0.8147872  
H   -4.5610332    2.7855092    0.4706573  
H   -6.6046839    1.7602441   -0.5564855  
C    0.0000000    0.0000000    0.0000000  
C    1.0521666   -0.0011982   -0.8862343  
C    0.4917215   -0.0011996   -2.1979132  
C   -0.9187429    0.0003215   -2.0478682  
N   -1.1833171   -0.0009323   -0.7007913  
C   -1.7951703    0.0010483   -3.1372089  
C   -1.2375841    0.0005313   -4.4010422  
O   -2.0474218    0.0015510   -5.4997578  
C    0.1673576   -0.0013585   -4.5711963  
O    0.5673520   -0.0020735   -5.8915554  
C    1.0325768   -0.0023493   -3.4969892  
H    2.0953056   -0.0030808   -0.6200564  
H   -2.0989778    0.0102529   -0.2891822  
H   -1.4634888    0.0006601   -6.2693595  
H    1.5290707   -0.0033271   -5.9180047  
H    2.1042146   -0.0039770   -3.6584456  
C    3.3041272   -0.0001177    3.0120429  
C    2.5845372    0.0004780    1.8395852  
C    1.2040006    0.0000008    2.1983588  
C    1.1422373   -0.0006037    3.6154372  
N    2.4348639   -0.0026109    4.0777464  
C   -0.0655181   -0.0008797    4.3197917  
C   -1.2321768   -0.0002324    3.5801400  
O   -2.4392816   -0.0001146    4.2172520  
C   -1.1911209    0.0000007    2.1655264  
O   -2.4371527    0.0002320    1.5732860  
C    0.0000000    0.0000000    1.4700000  
H    3.0031534    0.0000661    0.8477417  
H    2.7054629    0.0071099    5.0445261  
H   -0.1193549   -0.0014844    5.3997470  
H   -3.1132988    0.0000648    3.5251786  
H   -2.3200282    0.0004071    0.6183591  
H    4.3686625   -0.0004071    3.1724291  
