60

C    3.8285780    2.1213113   -6.4722379  
C    4.7307163    1.6591251   -5.5421860  
C    5.6142223    0.7712199   -6.2245652  
C    5.1988017    0.7310722   -7.5801983  
N    4.1110590    1.5605705   -7.6958084  
C    5.8451179   -0.0455924   -8.5465602  
C    6.9307594   -0.7951519   -8.1370217  
O    7.5986611   -1.5710976   -9.0397002  
C    7.3601568   -0.7686018   -6.7887897  
O    8.4552192   -1.5695063   -6.5383271  
C    6.7228594   -0.0028431   -5.8348544  
H    4.7490002    1.9279212   -4.4998773  
H    3.6072280    1.7419994   -8.5450538  
H    5.5333423   -0.0806497   -9.5813391  
H    8.3116581   -2.0042964   -8.5526277  
H    8.6803154   -1.4940887   -5.6059928  
H    3.0050988    2.8054807   -6.3593084  
C    4.5679461   -0.0016854   -2.0086701  
C    5.6245801   -0.0018696   -1.1556757  
C    6.8197131   -0.0025284   -1.9659186  
C    6.3695110   -0.0026849   -3.3709484  
N    4.9943549   -0.0025528   -3.3281076  
C    7.1998311   -0.0028670   -4.4443876  
C    8.6325203   -0.0031378   -4.1995661  
O    9.4620769   -0.0033772   -5.0996411  
C    9.1316831   -0.0032304   -2.7194844  
O   10.3356443   -0.0037644   -2.5009918  
C    8.1403753   -0.0027354   -1.6465625  
H    5.5727016   -0.0017596   -0.0814682  
H    8.4942119   -0.0025976   -0.6245433  
H    4.3931135   -0.0010540   -4.1315711  
C    3.1301149   -0.0010311   -1.7028252  
C    2.5367768   -0.0002767   -0.4864665  
C    1.1089904    0.0001028   -0.7656183  
C    1.0177872   -0.0004148   -2.2415132  
N    2.1993578   -0.0011611   -2.7963820  
C   -0.2459209   -0.0002877   -2.9257118  
C   -1.3675319   -0.0000605   -2.1698524  
O   -2.6129313    0.0000867   -2.6748490  
C   -1.3083584    0.0000910   -0.6783232  
O   -2.3693261    0.0004206   -0.0541692  
C    0.0000000    0.0000000    0.0000000  
H    3.0096017   -0.0001007    0.4807525  
H   -0.2829630   -0.0004687   -4.0053125  
H   -3.1967441    0.0002094   -1.8949034  
C    2.5528530    2.1414826    2.8079335  
C    2.0663498    1.7338582    4.0032312  
C    0.9804344    0.8229586    3.6752840  
C    0.9495562    0.7966882    2.1971295  
N    1.8690446    1.5676019    1.6831036  
C    0.0000000    0.0000000    1.4700000  
C   -0.8785127   -0.7372425    2.1869543  
O   -1.8187535   -1.5261249    1.6395491  
C   -0.8723269   -0.7321790    3.6796354  
O   -1.7010379   -1.4274584    4.2670412  
C    0.1115397    0.0933559    4.4024240  
H    2.4028853    2.0163452    4.9860947  
H   -2.2861435   -1.9184361    2.3990168  
H    0.0832434    0.0693689    5.4835595  
H    3.3664920    2.8238276    2.6198634  
