64

C    9.9592104    0.7075485   -1.5040447  
C   11.2252751    0.4558731   -1.0284328  
C   11.0873958   -0.4539322    0.0614495  
C    9.7024151   -0.7242117    0.2053326  
N    9.0457537   -0.0015086   -0.7596096  
C    9.1975271   -1.5843701    1.1851306  
C   10.1073685   -2.1828169    2.0349702  
O    9.6685863   -3.0318368    3.0094688  
C   11.4931201   -1.9254245    1.9074676  
O   12.2702328   -2.5966964    2.8287899  
C   11.9918912   -1.0767596    0.9412783  
H   12.1360576    0.8771621   -1.4182856  
H    8.1430759   -1.7944119    1.3000966  
H   10.4547601   -3.3339617    3.4826669  
H   13.1917394   -2.3678266    2.6737139  
H   13.0584036   -0.8988289    0.8679833  
H    9.6353806    1.3378537   -2.3144820  
C    6.6264025    0.0033836   -4.4617166  
C    5.3881254    0.0033500   -3.8624359  
C    5.6076651    0.0015729   -2.4530392  
C    7.0115531    0.0008607   -2.2504938  
N    7.6002636    0.0000421   -3.4906695  
C    7.5921590   -0.0005664   -0.9786122  
C    6.7400256   -0.0009805    0.1086071  
O    7.2537887   -0.0020107    1.3731471  
C    5.3365289   -0.0006589   -0.0730884  
O    4.6231718   -0.0015683    1.1077863  
C    4.7630507    0.0004755   -1.3275395  
H    4.4428892    0.0033634   -4.3777240  
H    8.5891809    0.0099810   -3.6636589  
H    6.4980460   -0.0024350    1.9749099  
H    3.6846508   -0.0012501    0.8961678  
H    6.8919807    0.0040809   -5.5049934  
C    3.3003548    0.0005276   -1.4738982  
C    2.5232817    0.0003497   -2.6090743  
C    1.1623204   -0.0001319   -2.1820101  
C    1.1711886    0.0000583   -0.7636140  
N    2.4852302   -0.0014919   -0.3662356  
C    0.0000000    0.0000000    0.0000000  
C   -1.2020379    0.0000520   -0.6806479  
O   -2.3759249    0.0003495    0.0157742  
C   -1.2314652   -0.0005112   -2.0955511  
O   -2.5054384   -0.0008036   -2.6250184  
C   -0.0764510   -0.0007271   -2.8495195  
H    2.8919962   -0.0005619   -3.6205297  
H    2.8036267    0.0088181    0.5858667  
H   -3.0835636    0.0000348   -0.6418823  
H   -2.4360038   -0.0011526   -3.5845925  
H   -0.1304090   -0.0013420   -3.9319089  
C    2.5128556    2.1077716    2.9199648  
C    1.9592212    1.6432552    4.0696553  
C    0.8915788    0.7479214    3.6910360  
C    0.8684491    0.7287414    2.2159470  
N    1.8754542    1.5738793    1.8102719  
C    0.0000000    0.0000000    1.4700000  
C   -0.9772830   -0.8200135    2.1664417  
O   -1.8021297   -1.5120829    1.5842315  
C   -0.9711318   -0.8147624    3.7284083  
O   -1.7894187   -1.5009653    4.3257297  
C    0.0140216    0.0115358    4.4216297  
H    2.2638494    1.8988021    5.0689105  
H    0.0117648    0.0094386    5.5031631  
H    3.3327358    2.7953732    2.7900019  
H    2.1123206    1.7707734    0.8551938  
