60

C    5.2244297   -2.9438281   -8.7424091  
C    4.4993617   -1.9819350   -8.0779505  
C    4.6920628   -0.7557402   -8.7807411  
C    5.5512049   -1.0335600   -9.8746404  
N    5.8570468   -2.3707854   -9.8207268  
C    5.9565968   -0.0536129  -10.7857660  
C    5.4858752    1.2301160  -10.5891978  
O    5.8501677    2.2253375  -11.4493366  
C    4.6281433    1.5270950   -9.5034188  
O    4.2457344    2.8512861   -9.4432100  
C    4.2280221    0.5609077   -8.6040238  
H    3.9055899   -2.1438788   -7.1946617  
H    6.4408752   -2.8594397  -10.4752051  
H    6.6113390   -0.2588824  -11.6214567  
H    5.4177358    3.0299182  -11.1348261  
H    3.6683556    2.9668293   -8.6823637  
H    5.3415281   -3.9930290   -8.5316387  
C    4.1774648   -0.7039258   -4.3991482  
C    3.1006054    0.0006263   -3.9654951  
C    2.5992402    0.7428151   -5.0980253  
C    3.4785677    0.4104974   -6.2351876  
N    4.4147929   -0.4705967   -5.7452437  
C    3.3361161    0.9100879   -7.4889113  
C    2.2439823    1.8371251   -7.7346382  
O    2.0321276    2.3416470   -8.8295708  
C    1.3005628    2.2033754   -6.5448385  
O    0.3778221    2.9830422   -6.7395981  
C    1.5546719    1.6002372   -5.2388884  
H    0.8967558    1.8588594   -4.4203627  
H    4.8177812   -1.3738064   -3.8485622  
H    5.1550885   -0.8824329   -6.2832025  
C    3.2798083    0.0005857   -1.4499652  
C    2.5571142    0.0005565   -2.5996556  
C    1.1637432    0.0001548   -2.2210361  
C    1.1336964   -0.0000200   -0.7459473  
N    2.4483512   -0.0001428   -0.3402723  
C    0.0000000    0.0000000    0.0000000  
C   -1.2757368   -0.0000186   -0.6964415  
O   -2.3524598   -0.0000639   -0.1142311  
C   -1.2676497   -0.0000872   -2.2584083  
O   -2.3355766   -0.0004101   -2.8557295  
C    0.0181558    0.0001758   -2.9516296  
H    0.0150788    0.0003319   -4.0331631  
H    4.3498547    0.0008612   -1.3200026  
H    2.7563626    0.0012823    0.6148059  
C    2.4951002    2.0940188    2.9809380  
C    1.9440701    1.6314916    1.8291961  
C    0.8759964    0.7350050    2.2038498  
C    0.8497377    0.7130254    3.6788474  
N    1.8560616    1.5571714    4.0882609  
C   -0.0205033   -0.0168748    4.4215661  
C   -0.9962600   -0.8356168    3.7214979  
O   -1.8224391   -1.5286685    4.3006425  
C   -0.9864710   -0.8277881    2.1595606  
O   -1.8030528   -1.5133726    1.5592035  
C    0.0000000    0.0000000    1.4700000  
H    2.2509283    1.8888011    0.8310761  
H   -0.0229599   -0.0187323    5.5027230  
H    3.3143982    2.7817323    3.1139444  
H    2.0889452    1.7545833    5.0442112  
