60

C    0.0879427    0.6898293   -9.3297408  
C    1.1874943   -0.1271335   -9.4563362  
C    1.6174714   -0.0392184  -10.8135357  
C    0.7346848    0.8540999  -11.4727750  
N   -0.1831076    1.2768864  -10.5435136  
C    0.8596253    1.1791269  -12.8268564  
C    1.8947702    0.5918874  -13.5281423  
O    2.0629092    0.8745744  -14.8528416  
C    2.7856654   -0.3022434  -12.8881012  
O    3.7637040   -0.8042017  -13.7216616  
C    2.6628447   -0.6235574  -11.5523618  
H    1.6250976   -0.7150701   -8.6677758  
H   -0.9290995    1.9257193  -10.7181353  
H    0.1900084    1.8591302  -13.3351966  
H    2.8312204    0.3670064  -15.1449690  
H    4.3222889   -1.3987261  -13.2116349  
H    3.3603160   -1.3118671  -11.0894991  
C    0.2315709   -0.7260330   -5.1498923  
C    0.4808482   -0.5092810   -6.4670690  
C   -0.5209812    0.4176789   -6.9381511  
C   -1.3804947    0.7254270   -5.7791354  
N   -0.8712826    0.0001710   -4.7267111  
C   -2.4455050    1.5658368   -5.8133218  
C   -2.7667995    2.2100971   -7.0759516  
O   -3.7062213    2.9834465   -7.2090631  
C   -1.8701899    1.8985556   -8.3164506  
O   -2.1311487    2.4348231   -9.3848971  
C   -0.7493901    0.9755953   -8.1558114  
H    1.2756989   -0.9487542   -7.0429935  
H   -3.0629936    1.7780166   -4.9515805  
H    0.7606207   -1.3553541   -4.4527900  
C    1.0965514    0.0001359   -0.8010305  
C    0.0000000    0.0000000    0.0000000  
C   -1.1546563    0.0001470   -0.8669513  
C   -0.6372014    0.0003519   -2.2486282  
N    0.7342871    0.0007337   -2.1395014  
C   -1.4147739    0.0001352   -3.3608717  
C   -2.8576049   -0.0001048   -3.1854462  
O   -3.6427779   -0.0002494   -4.1244907  
C   -3.4275840   -0.0000725   -1.7311666  
O   -4.6406831    0.0000333   -1.5710060  
C   -2.4891867   -0.0001091   -0.6116744  
H   -2.8919122   -0.0002918    0.3920866  
H    2.1388272    0.0000663   -0.5261648  
H    1.3735872   -0.0006099   -2.9130262  
C    2.4951002    2.0940188    2.9809380  
C    1.9440701    1.6314916    1.8291961  
C    0.8759964    0.7350050    2.2038498  
C    0.8497377    0.7130254    3.6788474  
N    1.8560616    1.5571714    4.0882609  
C   -0.0205033   -0.0168748    4.4215661  
C   -0.9962600   -0.8356168    3.7214979  
O   -1.8224391   -1.5286685    4.3006425  
C   -0.9864710   -0.8277881    2.1595606  
O   -1.8030528   -1.5133726    1.5592035  
C    0.0000000    0.0000000    1.4700000  
H    2.2509283    1.8888011    0.8310761  
H   -0.0229599   -0.0187323    5.5027230  
H    3.3143982    2.7817323    3.1139444  
H    2.0889452    1.7545833    5.0442112  
