64

C    2.8170691   -0.7299971   -3.3539672  
C    1.6478449   -0.0100095   -3.2702991  
C    1.5099616    0.7041930   -4.4972886  
C    2.6345517    0.3775763   -5.2976292  
N    3.4089730   -0.4938070   -4.5726605  
C    2.8289283    0.9022212   -6.5789389  
C    1.8704254    1.7721994   -7.0612129  
O    2.0105491    2.3133921   -8.3063998  
C    0.7415973    2.1105566   -6.2775819  
O   -0.1223372    2.9894075   -6.8977269  
C    0.5493306    1.5935718   -5.0133480  
H    4.2679779   -0.9069769   -4.8879102  
H    1.2432645    2.8840006   -8.4440392  
H   -0.8566616    3.1656147   -6.3016374  
H   -0.3251156    1.8712821   -4.4365474  
H    3.2763599   -1.3922060   -2.6401817  
C    1.1188646    0.0008228   -0.8003807  
C    0.0000000    0.0000000    0.0000000  
C   -1.1323857    0.0008896   -0.8673536  
C   -0.6382653    0.0019676   -2.1969283  
N    0.7324026    0.0038483   -2.1202238  
C   -1.4770896    0.0027312   -3.3154815  
C   -2.8395463    0.0020933   -3.0876869  
O   -3.7039181    0.0024411   -4.1440365  
C   -3.3517861    0.0013918   -1.7684344  
O   -4.7300492    0.0012349   -1.7073139  
C   -2.5248540    0.0009114   -0.6644827  
H   -1.1067549    0.0036981   -4.3313820  
H   -4.5940015    0.0021810   -3.7685148  
H   -4.9934596    0.0007243   -0.7819937  
H   -2.9462580    0.0005594    0.3339645  
H    2.1619899    0.0009362   -0.5342062  
C    4.5629924   -0.6764851   -7.5314070  
C    3.9913190    0.5693473   -7.4149674  
C    4.7401817    1.4507536   -8.2497889  
C    5.7649317    0.6796755   -8.8558026  
N    5.6298118   -0.6069536   -8.3965144  
C    6.6961574    1.2248070   -9.7448682  
C    6.5908021    2.5728315  -10.0275475  
O    7.4739968    3.1562746  -10.8892751  
C    5.5754440    3.3588936   -9.4325920  
O    5.6030497    4.6843182   -9.8144723  
C    4.6565928    2.8218320   -8.5552080  
H    6.2106620   -1.3817826   -8.6615290  
H    7.4796325    0.6425356  -10.2099803  
H    7.2259996    4.0882985  -10.9448942  
H    4.8855798    5.1444194   -9.3682129  
H    3.8901104    3.4488786   -8.1149847  
H    4.2950420   -1.6088725   -7.0646996  
C    0.8681109    0.7263879    2.2709268  
C    0.6127770    0.5096195    3.5869401  
C   -0.4920590   -0.4175482    3.6542670  
C   -0.8620974   -0.7254003    2.2596025  
N    0.0000000    0.0000000    1.4700000  
C   -1.8641242   -1.5660088    1.8976294  
C   -2.6293522   -2.2103885    2.9520183  
O   -3.5512764   -2.9839180    2.7283916  
C   -2.2549728   -1.8987399    4.4361073  
O   -2.8923672   -2.4351063    5.3323774  
C   -1.1543735   -0.9755647    4.7012123  
H    1.1382914    0.9492124    4.4159191  
H   -2.1192137   -1.7782617    0.8686553  
H   -0.9013378   -0.7652422    5.7314848  
H    1.6172880    1.3558399    1.8188057  
