64

C   -0.1373700   -0.5966889   -9.6303070  
C   -0.6141455    0.6530452   -9.3088765  
C   -0.2176638    1.5327944  -10.3593260  
C    0.5041617    0.7567337  -11.3019937  
N    0.5358869   -0.5311591  -10.8277122  
C    1.0470011    1.2990502  -12.4707573  
C    0.8574519    2.6493334  -12.6920806  
O    1.3660851    3.2302006  -13.8176466  
C    0.1404179    3.4403600  -11.7631257  
O    0.0376657    4.7675004  -12.1257332  
C   -0.3951506    2.9060754  -10.6097691  
H    0.9708149   -1.3092075  -11.2897300  
H    1.5982854    0.7129781  -13.1931206  
H    1.1237843    4.1644539  -13.7761092  
H   -0.4603619    5.2309790  -11.4454690  
H   -0.9393984    3.5369144   -9.9167214  
H   -0.2230598   -1.5293335   -9.0994675  
C   -0.2208272   -0.6524174   -5.1346212  
C   -1.2456329    0.0471727   -4.5828766  
C   -1.8635340    0.7999335   -5.6488904  
C   -1.1093178    0.4792270   -6.8757136  
N   -0.1268907   -0.4059225   -6.4959280  
C   -1.3831927    0.9908181   -8.1024867  
C   -2.4948519    1.9194408   -8.2225247  
O   -2.8209722    2.4343803   -9.2840256  
C   -3.3072320    2.2735255   -6.9362639  
O   -4.2451137    3.0544077   -7.0249357  
C   -2.9168444    1.6579632   -5.6703520  
H   -3.4845595    1.9082095   -4.7844627  
H    0.4738210   -1.3271519   -4.6612429  
H    0.5523182   -0.8120321   -7.1130151  
C    1.1243410    0.0099923   -0.7919003  
C    0.7474076    0.0234544   -2.1148543  
C   -0.6787381    0.0234490   -2.1414700  
C   -1.1201745    0.0098592   -0.7935546  
N    0.0000000    0.0000000    0.0000000  
C   -2.4730816    0.0063709   -0.4408240  
C   -3.3971958    0.0170982   -1.4675058  
O   -4.7313517    0.0146259   -1.1793471  
C   -2.9763648    0.0303504   -2.8186324  
O   -4.0166480    0.0395118   -3.7247624  
C   -1.6418562    0.0335260   -3.1673481  
H    1.4178717    0.0310972   -2.9571209  
H   -2.8160166   -0.0041111    0.5845966  
H   -5.1938818    0.0230867   -2.0274384  
H   -3.6464675    0.0482293   -4.6127343  
H    2.1062467    0.0052819   -0.3505407  
C    0.8676693    0.7151171    2.2619005  
C    0.5875920    0.4624972    3.5848544  
C   -0.5048400   -0.4542819    3.6114698  
C   -0.8517165   -0.7276451    2.2635546  
N    0.0000000    0.0000000    1.4700000  
C   -1.8902865   -1.5946756    1.9108239  
C   -2.5912627   -2.1969500    2.9375057  
O   -3.6148162   -3.0527051    2.6493466  
C   -2.2603868   -1.9365747    4.2886322  
O   -3.0513550   -2.6123276    5.1947621  
C   -1.2361111   -1.0811317    4.6373480  
H    1.1060808    0.8876438    4.4271209  
H   -2.1597133   -1.8070987    0.8854031  
H   -3.9636755   -3.3565188    3.4974381  
H   -2.7621927   -2.3810384    6.0827341  
H   -1.0058879   -0.9010589    5.6809233  
H    1.6167816    1.3499334    1.8205408  
