64

C   -4.7577192    0.0038513   -1.7610491  
C   -5.7908146    0.0072986   -0.8526608  
C   -7.0043588    0.0072403   -1.6022675  
C   -6.6458570    0.0033666   -2.9746332  
N   -5.2743969    0.0033374   -3.0355659  
C   -7.5924701    0.0019326   -4.0035695  
C   -8.9252679    0.0041482   -3.6404961  
O   -9.8910722    0.0025340   -4.6049831  
C   -9.3028312    0.0083944   -2.2765884  
O  -10.6680447    0.0105922   -2.0777693  
C   -8.3695129    0.0100843   -1.2609899  
H   -5.6830131    0.0106803    0.2184886  
H   -4.7309749   -0.0095756   -3.8796670  
H   -7.3257223   -0.0008725   -5.0514437  
H  -10.7390787    0.0048502   -4.1422258  
H  -10.8374766    0.0134018   -1.1307273  
C   -3.3041249    0.0029131   -1.5420450  
C   -2.5845349    0.0028487   -0.3695868  
C   -1.2039994    0.0011051   -0.7283595  
C   -1.1422358    0.0004440   -2.1454379  
N   -2.4348632   -0.0003776   -2.6077477  
C    0.0655194   -0.0009400   -2.8497912  
C    1.2321775   -0.0013629   -2.1101390  
O    2.4392831   -0.0023524   -2.7472501  
C    1.1911212   -0.0010919   -0.6955255  
O    2.4371519   -0.0020037   -0.1032845  
C    0.0000000    0.0000000    0.0000000  
H   -3.0031521    0.0028208    0.6222564  
H   -2.7054529    0.0095914   -3.5745276  
H    0.1193561   -0.0015941   -3.9297468  
H    3.1132988   -0.0027911   -2.0551766  
H    2.3200277   -0.0017211    0.8516425  
C   -8.2179185    0.7354855    1.1591957  
C   -8.8026280    0.0147579    0.1437483  
C   -9.8875729   -0.7106668    0.7192954  
C   -9.9165076   -0.3898190    2.1006516  
N   -8.8881789    0.4890804    2.3345188  
C  -10.8603884   -0.9257505    2.9819324  
C  -11.7922198   -1.8012947    2.4591608  
O  -12.7367517   -2.3535183    3.2752013  
C  -11.7793748   -2.1340392    1.0836851  
O  -12.7716047   -3.0195771    0.7167419  
C  -10.8483389   -1.6059187    0.2137504  
H   -8.6671767    0.9005089    3.2232630  
H  -10.8876945   -0.6853408    4.0358106  
H  -13.2786189   -2.9263463    2.7170679  
H  -12.6923410   -3.1913555   -0.2265571  
H  -10.8632267   -1.8795534   -0.8347636  
H   -7.3749079    1.4047074    1.1383501  
C    0.8175213    0.6860729    2.3021913  
C    0.0000000    0.0000000    1.4700000  
C   -0.8887526   -0.7456559    2.3478473  
C   -0.4549825   -0.3816753    3.7138435  
N    0.5448156    0.4573574    3.6934124  
C   -1.0945674   -0.9182058    4.8835240  
C   -2.1210866   -1.7789155    4.6970523  
O   -2.8083856   -2.3554314    5.6976972  
C   -2.5824069   -2.1655116    3.3310774  
O   -3.5227682   -2.9541547    3.2362962  
C   -1.9100805   -1.6015804    2.1470656  
H   -0.7567140   -0.6349833    5.8697035  
H   -3.4728268   -2.9124471    5.2533954  
H   -2.2742832   -1.9066565    1.1752040  
H    1.6189533    1.3585343    2.0405121  
