62

C    4.7283676   -0.7006413   -7.4296689  
C    4.1680873    0.5526793   -7.3416864  
C    4.9607756    1.4207581   -8.1495756  
C    5.9992942    0.6342084   -8.7105956  
N    5.8298071   -0.6484250   -8.2515281  
C    6.9721609    1.1635359   -9.5639029  
C    6.8950686    2.5113723   -9.8564289  
O    7.8193282    3.0797309  -10.6845147  
C    5.8665640    3.3127351   -9.3061462  
O    5.9260117    4.6358576   -9.6923540  
C    4.9066305    2.7912685   -8.4640490  
H    6.4110978   -1.4316146   -8.4896399  
H    7.7663258    0.5694262   -9.9946458  
H    7.5854195    4.0144555  -10.7540909  
H    5.1970248    5.1069041   -9.2772683  
H    4.1310016    3.4298195   -8.0576873  
H    4.4302940   -1.6273935   -6.9700595  
C    2.8279729   -0.7071295   -3.3541666  
C    1.6707636   -0.0012343   -3.2725974  
C    1.5420226    0.7399976   -4.5050083  
C    2.7275726    0.4056547   -5.3170904  
N    3.4672607   -0.4755791   -4.5626514  
C    2.9773525    0.9038683   -6.5544659  
C    2.0143742    1.8314548   -7.1243708  
O    2.1493679    2.3348416   -8.2319262  
C    0.7517065    2.1998421   -6.2818940  
O   -0.0658604    2.9799880   -6.7511674  
C    0.5920511    1.5980568   -4.9604493  
H   -0.2850560    1.8581560   -4.3835995  
H    3.2676543   -1.3768500   -2.6330256  
H    4.3364880   -0.8886230   -4.8470555  
C    1.0965514    0.0001358   -0.8010306  
C    0.0000000    0.0000000    0.0000000  
C   -1.1546565    0.0001470   -0.8669508  
C   -0.6372019    0.0003520   -2.2486278  
N    0.7342867    0.0007338   -2.1395012  
C   -1.4147744    0.0001354   -3.3608712  
C   -2.8576052   -0.0001047   -3.1854454  
O   -3.6427785   -0.0002490   -4.1244896  
C   -3.4275841   -0.0000727   -1.7311660  
O   -4.6406832    0.0000333   -1.5710049  
C   -2.4891868   -0.0001090   -0.6116739  
H   -1.0150456    0.0001617   -4.3654239  
H   -2.8919122   -0.0002919    0.3920871  
H    2.1388270    0.0000663   -0.5261650  
C    2.5311839    2.1237619    3.0120429  
C    1.9795631    1.6616747    1.8395852  
C    0.9223175    0.7739173    2.1983588  
C    0.8753926    0.7337535    3.6154372  
N    1.8668922    1.5631002    4.0777464  
C   -0.0496243   -0.0427881    4.3197917  
C   -0.9437528   -0.7922060    3.5801400  
O   -1.8685244   -1.5680278    4.2172520  
C   -0.9124520   -0.7656372    2.1655264  
O   -1.8671164   -1.5663939    1.5732860  
C    0.0000000    0.0000000    1.4700000  
H    2.3005065    1.9304404    0.8477417  
H    2.0679347    1.7444845    5.0445261  
H   -0.0904770   -0.0778569    5.3997470  
H   -2.3849669   -2.0011402    3.5251786  
H   -1.7775064   -1.4909735    0.6183591  
H    3.3468514    2.8078103    3.1724291  
