64

C    1.1188647    0.0008222   -0.8003809  
C    0.0000000    0.0000000    0.0000000  
C   -1.1323857    0.0008897   -0.8673532  
C   -0.6382652    0.0019677   -2.1969286  
N    0.7324024    0.0038479   -2.1202243  
C   -1.4770906    0.0027316   -3.3154814  
C   -2.8395469    0.0020943   -3.0876862  
O   -3.7039190    0.0024420   -4.1440356  
C   -3.3517863    0.0013927   -1.7684337  
O   -4.7300496    0.0012365   -1.7073126  
C   -2.5248540    0.0009121   -0.6644824  
H   -1.1067561    0.0036985   -4.3313816  
H   -4.5940026    0.0021825   -3.7685140  
H   -4.9934598    0.0007261   -0.7819920  
H   -2.9462577    0.0005600    0.3339653  
H    2.1619897    0.0009354   -0.5342068  
C    4.4769672   -2.1470636   -2.7027280  
C    4.8409695   -1.7539554   -3.9455261  
C    3.7877273   -0.8472134   -4.3756417  
C    2.8430657   -0.8072142   -3.2387166  
N    3.2418502   -1.5671438   -2.2551175  
C    1.6478441   -0.0100102   -3.2702999  
C    1.4074698    0.7146087   -4.3867594  
O    0.3314549    1.5023749   -4.5530624  
C    2.3418729    0.6955145   -5.5506700  
O    2.0597593    1.3797241   -6.5342808  
C    3.5612163   -0.1302662   -5.4939931  
H    5.7161646   -2.0434615   -4.5016698  
H    0.4389884    1.8844061   -5.4428045  
H    4.9959832   -2.8222039   -2.0410774  
C    4.4460574   -0.1117774   -6.6677117  
C    5.6311025   -0.7725479   -6.8946868  
C    6.0732473   -0.3986409   -8.1982594  
C    5.1094067    0.5001337   -8.7227989  
N    4.1339275    0.6509512   -7.7686970  
C    5.2222211    1.0733154   -9.9930450  
C    6.3283282    0.7332257  -10.7473944  
O    6.4882091    1.2642849  -11.9945627  
C    7.3006643   -0.1620578  -10.2415807  
O    8.3430111   -0.4010887  -11.1131996  
C    7.1898787   -0.7281048   -8.9886467  
H    6.1165326   -1.4425828   -6.2059168  
H    3.3242167    1.2383296   -7.8543556  
H    4.4910087    1.7588877  -10.3986575  
H    7.3129647    0.9008890  -12.3423928  
H    8.9544304   -1.0150349  -10.6950606  
H    7.9505094   -1.4107394   -8.6281893  
C    2.5311839    2.1237619    3.0120429  
C    1.9795631    1.6616747    1.8395852  
C    0.9223175    0.7739173    2.1983588  
C    0.8753926    0.7337535    3.6154372  
N    1.8668922    1.5631002    4.0777464  
C   -0.0496243   -0.0427881    4.3197917  
C   -0.9437528   -0.7922060    3.5801400  
O   -1.8685244   -1.5680278    4.2172520  
C   -0.9124520   -0.7656372    2.1655264  
O   -1.8671164   -1.5663939    1.5732860  
C    0.0000000    0.0000000    1.4700000  
H    2.3005065    1.9304404    0.8477417  
H    2.0679347    1.7444845    5.0445261  
H   -0.0904770   -0.0778569    5.3997470  
H   -2.3849669   -2.0011402    3.5251786  
H   -1.7775064   -1.4909735    0.6183591  
H    3.3468514    2.8078103    3.1724291  
