60

C   -3.2941079    0.0012875   -2.9038234  
C   -4.0470176    0.0024419   -1.7524792  
C   -5.4167001    0.0030193   -2.1506872  
C   -5.4378084    0.0018787   -3.5689535  
N   -4.1324585    0.0027951   -3.9940136  
C   -6.6248732    0.0017548   -4.3076459  
C   -7.8122590    0.0024946   -3.6017475  
O   -9.0006013    0.0020606   -4.2732058  
C   -7.8117785    0.0040117   -2.1865389  
O   -9.0742772    0.0050151   -1.6302675  
C   -6.6410880    0.0044080   -1.4571485  
H   -3.6570098    0.0039262   -0.7490426  
H   -3.8342571   -0.0082406   -4.9526250  
H   -6.6477250    0.0010321   -5.3887009  
H   -9.6941844    0.0030131   -3.6007419  
H   -8.9845805    0.0059860   -0.6723754  
H   -6.6721590    0.0057614   -0.3738613  
C    0.0000000    0.0000000    0.0000000  
C    1.0541686   -0.0001722   -0.8560393  
C    0.5103131   -0.0000453   -2.1935957  
C   -0.9576377    0.0002459   -2.0455727  
N   -1.2018463   -0.0001391   -0.6915965  
C   -1.8348318    0.0008318   -3.0810604  
C   -1.2972856    0.0009738   -4.4314602  
O   -2.0050684    0.0014267   -5.4301314  
C    0.2542612    0.0004186   -4.6117571  
O    0.7184659    0.0002259   -5.7439120  
C    1.0974545    0.0000875   -3.4189131  
H    2.0940750   -0.0005483   -0.5817985  
H   -2.1128195    0.0014912   -0.2706785  
C    3.4546592   -0.7051951   -2.8655888  
C    2.5562205   -0.0001551   -3.6003010  
C    3.3075540    0.7421839   -4.5848144  
C    4.7275379    0.4094227   -4.3618659  
N    4.7487492   -0.4720454   -3.3057155  
C    5.7578584    0.9090022   -5.0902649  
C    5.4475453    1.8364944   -6.1654388  
O    6.3052785    2.3410445   -6.8781969  
C    3.9505734    2.2032189   -6.4192001  
O    3.6771238    2.9832709   -7.3214224  
C    2.9282228    1.6000467   -5.5678286  
H    6.7924724    0.6518567   -4.9103768  
H    1.8940989    1.8589988   -5.7501918  
H    3.2802832   -1.3753190   -2.0395036  
H    5.5766088   -0.8842307   -2.9161012  
C    0.0000000    0.0000000    1.4700000  
C    1.0541688    0.0001722    2.3260392  
C    0.5103138    0.0000454    3.6635956  
C   -0.9576371   -0.0002459    3.5155732  
N   -1.2018458    0.0001392    2.1615969  
C   -1.8348311   -0.0008317    4.5510609  
C   -1.2972847   -0.0009736    5.9014604  
O   -2.0050672   -0.0014265    6.9001319  
C    0.2542623   -0.0004184    6.0817573  
O    0.7184670   -0.0002256    7.2139121  
C    1.0974552   -0.0000873    4.8889129  
H    2.0940752    0.0005483    2.0517982  
H   -2.9081052   -0.0011668    4.4207061  
H    2.1707277    0.0000911    5.0223670  
H   -2.1128194   -0.0014912    1.7406791  
