60

C    4.2488264   -3.5721619   -5.5070228  
C    5.1847252   -4.3457887   -6.1536011  
C    4.9665606   -4.1801341   -7.5534445  
C    3.8752776   -3.2862365   -7.7016890  
N    3.4620052   -2.9379061   -6.4397505  
C    3.3831772   -2.8940051   -8.9502011  
C    4.0042248   -3.4133865  -10.0694511  
O    3.5642360   -3.0633903  -11.3132062  
C    5.0942545   -4.3069269   -9.9420228  
O    5.6046739   -4.7368214  -11.1495010  
C    5.5800776   -4.6945194   -8.7106512  
H    5.9319647   -4.9554772   -5.6751595  
H    2.5517087   -2.2131769   -9.0699304  
H    4.1272172   -3.5312086  -11.9436529  
H    6.3366827   -5.3360299  -10.9742406  
H    6.4163781   -5.3805890   -8.6444210  
H    4.0793813   -3.4237351   -4.4543042  
C    2.3617623   -2.0132534   -6.1309080  
C    1.9111468   -1.6311561   -4.9133176  
C    0.8167587   -0.7132545   -5.1894898  
C    0.7423558   -0.6552471   -6.6651875  
N    1.6455077   -1.4153050   -7.2225180  
C   -0.2276453    0.1569480   -7.3467464  
C   -1.0846236    0.8781008   -6.5885501  
O   -2.0400755    1.6785700   -7.0909464  
C   -1.0349498    0.8404009   -5.0971509  
O   -1.8457776    1.5226371   -4.4707861  
C   -0.0307352   -0.0004646   -4.4215603  
H    2.2762462   -1.9347703   -3.9470896  
H   -0.2592112    0.1804607   -8.4262657  
H   -2.4850413    2.0539985   -6.3097857  
C    3.2573670   -0.0002920   -1.5109380  
C    2.5379468   -0.0001709   -0.3591961  
C    1.1435043    0.0000332   -0.7338500  
C    1.1092609   -0.0000082   -2.2088477  
N    2.4227562    0.0001909   -2.6182613  
C   -0.0265532   -0.0002522   -2.9515663  
C   -1.3003035   -0.0002639   -2.2514981  
O   -2.3786784   -0.0004131   -2.8306429  
C   -1.2877725    0.0000312   -0.6895608  
O   -2.3539958    0.0003307   -0.0892036  
C    0.0000000    0.0000000    0.0000000  
H    2.9384091   -0.0000369    0.6389239  
H    4.3270394   -0.0004765   -1.6439446  
H    2.7280494   -0.0013406   -3.5742113  
C    0.8400945    0.7047457    2.2710304  
C    0.0000000    0.0000000    1.4700000  
C   -0.8844236   -0.7423113    2.3369512  
C   -0.4878984   -0.4098547    3.7186280  
N    0.5629682    0.4714286    3.6095011  
C   -1.0836927   -0.9095027    4.8308716  
C   -2.1891196   -1.8367527    4.6554461  
O   -2.7906899   -2.3413415    5.5944904  
C   -2.6257283   -2.2031529    3.2011665  
O   -3.5549479   -2.9829990    3.0410059  
C   -1.9068976   -1.5999348    2.0816745  
H   -0.7774656   -0.6525820    5.8354244  
H   -2.2155208   -1.8586617    1.0779135  
H    1.6384792    1.3747609    1.9961646  
H    1.0518368    0.8833920    4.3830260  
