62

C   -7.4595894    5.3234319    1.0224581  
C   -6.5913976    4.4015265    0.4850552  
C   -7.2661775    3.1448356    0.4849400  
C   -8.5536786    3.3636957    1.0384425  
N   -8.6374621    4.6966815    1.3558500  
C   -9.4945447    2.3410139    1.1923334  
C   -9.1291363    1.0743779    0.7796737  
O  -10.0096226    0.0391894    0.9067318  
C   -7.8490074    0.8360247    0.2253506  
O   -7.6360529   -0.4780353   -0.1369200  
C   -6.9202186    1.8443968    0.0734841  
H   -5.5939819    4.6090289    0.1370641  
H   -9.4395291    5.1485781    1.7564191  
H  -10.4774284    2.5012744    1.6135923  
H   -9.5608089   -0.7446293    0.5640063  
H   -6.7490584   -0.5529838   -0.5019221  
H   -7.3313009    6.3781865    1.1956427  
C   -4.3991028    2.0926370   -0.0704356  
C   -3.3610094    1.6305297   -0.8140045  
C   -3.9159994    0.7341915   -1.8006144  
C   -5.3729682    0.7118418   -1.5692442  
N   -5.6007886    1.5556535   -0.5067144  
C   -6.2559171   -0.0180489   -2.2968193  
C   -5.7365717   -0.8363895   -3.3799325  
O   -6.4507762   -1.5294000   -4.0926375  
C   -4.1968645   -0.8281647   -3.6426857  
O   -3.7479705   -1.5134097   -4.5516380  
C   -3.3460097   -0.0004262   -2.7913647  
H   -2.3247245    1.8880235   -0.6858468  
H   -7.3209339   -0.0201814   -2.1106904  
H   -4.3873341    2.7801298    0.7596881  
C    0.0000000    0.0000000    0.0000000  
C    1.0662919   -0.0000103   -0.8334272  
C    0.4961868    0.0000066   -2.1718889  
C   -0.9663860   -0.0000849   -1.9540248  
N   -1.2632775   -0.0000084   -0.6828659  
C   -1.8985364   -0.0000515   -3.0477258  
C   -1.3925778    0.0004567   -4.3020543  
O   -2.1456385    0.0005412   -5.4151314  
C    0.0786229    0.0009326   -4.5544999  
O    0.4683756    0.0012594   -5.7221104  
C    1.0143162    0.0008443   -3.4159034  
H    2.1107195    0.0000631   -0.5721869  
H   -1.5042277    0.0009692   -6.1484420  
H    2.0724151    0.0013151   -3.6409746  
C    1.1243417   -0.0099156    2.2619005  
C    0.7474090   -0.0234034    3.5848544  
C   -0.6787367   -0.0234952    3.6114698  
C   -1.1201739   -0.0099357    2.2635546  
N    0.0000000    0.0000000    1.4700000  
C   -2.4730812   -0.0065396    1.9108239  
C   -3.3971947   -0.0173298    2.9375057  
O   -4.7313508   -0.0149487    2.6493466  
C   -2.9763630   -0.0305536    4.2886322  
O   -4.0166453   -0.0397858    5.1947621  
C   -1.6418541   -0.0336380    4.6373480  
H    1.4178735   -0.0310004    4.4271209  
H   -2.8160170    0.0039190    0.8854031  
H   -5.1938803   -0.0234410    3.4974381  
H   -3.6464643   -0.0484781    6.0827341  
H   -1.3497443   -0.0436789    5.6809233  
H    2.1062470   -0.0051382    1.8205408  
