64

C    3.9135223    0.7615428   -7.3866846  
C    5.0021781   -0.0579041   -7.1974695  
C    5.8065598    0.0407218   -8.3712851  
C    5.1528457    0.9428318   -9.2492267  
N    4.0056611    1.3603346   -8.6213133  
C    5.6644808    1.2795447  -10.5060662  
C    6.8579277    0.6951669  -10.8833779  
O    7.4023848    0.9891353  -12.0999962  
C    7.5249587   -0.2076107  -10.0214736  
O    8.7020710   -0.7053380  -10.5411068  
C    7.0206633   -0.5404536   -8.7815425  
H    5.1925151   -0.6543239   -6.3216568  
H    3.3425042    2.0131795   -8.9981383  
H    5.1710215    1.9662909  -11.1799202  
H    8.2220587    0.4816509  -12.1621260  
H    9.0888113   -1.3062550   -9.8969531  
H    7.5539404   -1.2351914   -8.1432376  
C    2.8405919   -0.6921323   -3.3577788  
C    3.4604999   -0.4644327   -4.5443467  
C    2.6384068    0.4700294   -5.2763160  
C    1.4804521    0.7702492   -4.4127189  
N    1.6628945    0.0339172   -3.2649299  
C    0.4714003    1.6144659   -4.7456112  
C    0.5296169    2.2710623   -6.0409979  
O   -0.3306321    3.0486891   -6.4328757  
C    1.7466584    1.9676547   -6.9718900  
O    1.8063723    2.5143249   -8.0649800  
C    2.7724704    1.0395745   -6.5026043  
H    4.3877438   -0.9013742   -4.8697905  
H   -0.3689152    1.8209773   -4.0974342  
H    3.1449039   -1.3294203   -2.5434397  
C    1.1243410    0.0100105   -0.7919003  
C    0.7474072    0.0234665   -2.1148542  
C   -0.6787384    0.0234379   -2.1414698  
C   -1.1201748    0.0098411   -0.7935547  
N    0.0000000    0.0000000    0.0000000  
C   -2.4730818    0.0063307   -0.4408240  
C   -3.3971962    0.0170429   -1.4675058  
O   -4.7313520    0.0145490   -1.1793468  
C   -2.9763654    0.0303020   -2.8186325  
O   -4.0166484    0.0394464   -3.7247625  
C   -1.6418567    0.0334992   -3.1673480  
H   -2.8160166   -0.0041569    0.5845966  
H   -5.1938823    0.0230023   -2.0274386  
H   -3.6464680    0.0481700   -4.6127343  
H   -1.3497475    0.0435647   -4.2109234  
H    2.1062466    0.0053162   -0.3505405  
C    2.5311839    2.1237619    3.0120429  
C    1.9795631    1.6616747    1.8395852  
C    0.9223175    0.7739173    2.1983588  
C    0.8753926    0.7337535    3.6154372  
N    1.8668922    1.5631002    4.0777464  
C   -0.0496243   -0.0427881    4.3197917  
C   -0.9437528   -0.7922060    3.5801400  
O   -1.8685244   -1.5680278    4.2172520  
C   -0.9124520   -0.7656372    2.1655264  
O   -1.8671164   -1.5663939    1.5732860  
C    0.0000000    0.0000000    1.4700000  
H    2.3005065    1.9304404    0.8477417  
H    2.0679347    1.7444845    5.0445261  
H   -0.0904770   -0.0778569    5.3997470  
H   -2.3849669   -2.0011402    3.5251786  
H   -1.7775064   -1.4909735    0.6183591  
H    3.3468514    2.8078103    3.1724291  
