62

C    1.5459707   -1.1455509   -9.4153807  
C    1.9996248   -0.7429800  -10.6501297  
C    1.7580510    0.6595710  -10.7454832  
C    1.1502119    1.0609084   -9.5283610  
N    1.0343283   -0.0598046   -8.7440205  
C    0.7727470    2.3823478   -9.2712465  
C    1.0135508    3.3156962  -10.2607170  
O    0.6651124    4.6203304  -10.0618885  
C    1.6186795    2.9346247  -11.4819549  
O    1.7912631    3.9791914  -12.3665110  
C    1.9910708    1.6311255  -11.7363957  
H    2.4483452   -1.3818494  -11.3914050  
H    0.3089497    2.6946310   -8.3457345  
H    0.9167786    5.0955182  -10.8644627  
H    2.2054927    3.6367302  -13.1644696  
H    2.4524841    1.3691354  -12.6813496  
H    1.5455811   -2.1215282   -8.9610383  
C    2.0485059   -2.1404838   -4.9352596  
C    2.0920573   -1.7327542   -6.2250031  
C    0.9665701   -0.8221932   -6.3687265  
C    0.3351125   -0.7962139   -5.0318758  
N    0.9649966   -1.5669927   -4.1874018  
C   -0.8287665    0.0000939   -4.7555305  
C   -1.3384137    0.7372507   -5.7685430  
O   -2.4204376    1.5257895   -5.6524722  
C   -0.7235766    0.7324748   -7.1287316  
O   -1.2406169    1.4276564   -8.0031532  
C    0.4698625   -0.0926719   -7.3871127  
H    2.8005017   -2.0149674   -6.9849629  
H   -2.5373015    1.9181275   -6.5365349  
H    2.7147577   -2.8226585   -4.4315535  
C    1.0672569   -0.0000698   -0.8321910  
C    0.0000000    0.0000000    0.0000000  
C   -1.1601223   -0.0000736   -0.8778472  
C   -0.5938729   -0.0000768   -2.2438435  
N    0.7113367   -0.0001553   -2.2234123  
C   -1.4286985   -0.0001877   -3.4135239  
C   -2.7683113   -0.0006798   -3.2270524  
O   -3.6653902   -0.0008302   -4.2276970  
C   -3.3702024   -0.0010610   -1.8610774  
O   -4.5974910   -0.0013779   -1.7662963  
C   -2.4926825   -0.0008943   -0.6770658  
H   -4.5324245   -0.0012258   -3.7833954  
H   -2.9677772   -0.0012974    0.2947961  
H    2.1134391   -0.0000547   -0.5705119  
C    0.8576279    0.7185626    2.2703808  
C    0.0000000    0.0000000    1.4700000  
C   -0.8668858   -0.7285659    2.3373528  
C   -0.4876752   -0.4117774    3.6669281  
N    0.5635254    0.4678311    3.5902241  
C   -1.1297612   -0.9515493    4.7854808  
C   -2.1738724   -1.8268314    4.5576857  
O   -2.8357962   -2.3827064    5.6140350  
C   -2.5667212   -2.1555554    3.2384331  
O   -3.6226318   -3.0413663    3.1773122  
C   -1.9335634   -1.6236449    2.1344818  
H    1.0363952    0.8769718    4.3757045  
H   -0.8454472   -0.7142436    5.8013813  
H   -3.5178062   -2.9546422    5.2385129  
H   -3.8247440   -3.2102924    2.2519915  
H   -2.2566033   -1.8942483    1.1360343  
H    1.6567807    1.3889844    2.0042067  
