60

C    7.0275667   -5.4707907   -4.5889041  
C    8.0078832   -5.0015321   -5.4322569  
C    7.7678234   -3.6073744   -5.6147285  
C    6.6180087   -3.2796417   -4.8515490  
N    6.1925598   -4.4342632   -4.2428951  
C    6.0906966   -1.9859490   -4.7959611  
C    6.7360471   -1.0051733   -5.5238204  
O    6.2635933    0.2752323   -5.5047864  
C    7.8844201   -1.3126210   -6.2916313  
O    8.4126937   -0.2277440   -6.9604446  
C    8.4050205   -2.5887163   -6.3471492  
H    8.7980863   -5.5917204   -5.8638249  
H    5.4022677   -4.5090596   -3.6282198  
H    6.8515071    0.7916520   -6.0712953  
H    9.1845503   -0.5211768   -7.4541431  
H    9.2858639   -2.7940711   -6.9441605  
H    6.8570772   -6.4631482   -4.2079618  
C    4.5939382   -2.1037472   -2.7696736  
C    4.8996526   -1.6376001   -4.0079464  
C    3.8355765   -0.7416508   -4.3950543  
C    2.8780295   -0.7238869   -3.2727447  
N    3.3957277   -1.5703485   -2.3196545  
C    1.7334695    0.0049281   -3.2500363  
C    1.4239148    0.8265213   -4.4083522  
O    0.4172710    1.5187840   -4.4841261  
C    2.4237222    0.8227865   -5.6084260  
O    2.1735667    1.5103259   -6.5892281  
C    3.6246410   -0.0037444   -5.5162756  
H    4.3119033   -0.0005912   -6.3513712  
H    5.1430571   -2.7922310   -2.1481048  
H    2.9698479   -1.7683917   -1.4328329  
C    1.1319246    0.0015678   -0.8009268  
C    0.7969914    0.0034958   -2.1169401  
C   -0.6453340    0.0035696   -2.1842669  
C   -1.1266832    0.0015410   -0.7896025  
N    0.0000000    0.0000000    0.0000000  
C   -2.4346129    0.0013913   -0.4276292  
C   -3.4350111    0.0031335   -1.4820181  
O   -4.6384614    0.0030875   -1.2583914  
C   -2.9478961    0.0050442   -2.9661074  
O   -3.7809382    0.0062135   -3.8623773  
C   -1.5113825    0.0053055   -3.2312122  
H   -2.7664565    0.0000174    0.6013448  
H   -1.1823533    0.0068381   -4.2614848  
H    2.1104316    0.0009435   -0.3488059  
C    0.0000000    0.0000000    1.4700000  
C    1.0541688    0.0001722    2.3260392  
C    0.5103138    0.0000454    3.6635956  
C   -0.9576371   -0.0002459    3.5155732  
N   -1.2018458    0.0001392    2.1615969  
C   -1.8348311   -0.0008317    4.5510609  
C   -1.2972847   -0.0009736    5.9014604  
O   -2.0050672   -0.0014265    6.9001319  
C    0.2542623   -0.0004184    6.0817573  
O    0.7184670   -0.0002256    7.2139121  
C    1.0974552   -0.0000873    4.8889129  
H    2.0940752    0.0005483    2.0517982  
H   -2.9081052   -0.0011668    4.4207061  
H    2.1707277    0.0000911    5.0223670  
H   -2.1128194   -0.0014912    1.7406791  
