60

C    4.3617190   -3.7129167   -6.4840074  
C    5.3043942   -4.5157565   -5.8846097  
C    5.1446194   -4.3645905   -4.4752762  
C    4.0799612   -3.4494575   -4.2728868  
N    3.6284256   -3.0718420   -5.5131045  
C    3.6452443   -3.0642678   -3.0011012  
C    4.2969694   -3.6131264   -1.9138172  
O    3.9127175   -3.2717732   -0.6493644  
C    5.3616699   -4.5276051   -2.0953600  
O    5.9087297   -4.9853159   -0.9144409  
C    5.7912366   -4.9078483   -3.3497179  
H    6.0199822   -5.1334293   -6.3997877  
H    2.8345053   -2.3671362   -2.8401283  
H    4.4892769   -3.7602904   -0.0475369  
H    6.6202611   -5.5973519   -1.1259544  
H    6.6095432   -5.6101550   -3.4575026  
H    4.1553511   -3.5457628   -7.5272862  
C    2.5185215   -2.1418780   -5.7664428  
C    2.0285777   -1.7344761   -6.9604104  
C    0.9435058   -0.8236405   -6.6295061  
C    0.9168304   -0.7971602   -5.1512739  
N    1.8378567   -1.5679052   -4.6397550  
C   -0.0307352   -0.0004646   -4.4215603  
C   -0.9113601    0.7365845   -5.1361187  
O   -1.8501211    1.5254496   -4.5861545  
C   -0.9094206    0.7313062   -6.6288105  
O   -1.7398708    1.4264157   -7.2139564  
C    0.0724707   -0.0942318   -7.3542764  
H    2.3623447   -2.0170704   -7.9441870  
H   -2.3197104    1.9176033   -5.3443459  
H    0.0410964   -0.0704039   -8.4353302  
C    3.2573670   -0.0002920   -1.5109380  
C    2.5379468   -0.0001709   -0.3591961  
C    1.1435043    0.0000332   -0.7338500  
C    1.1092609   -0.0000082   -2.2088477  
N    2.4227562    0.0001909   -2.6182613  
C   -0.0265532   -0.0002522   -2.9515663  
C   -1.3003035   -0.0002639   -2.2514981  
O   -2.3786784   -0.0004131   -2.8306429  
C   -1.2877725    0.0000312   -0.6895608  
O   -2.3539958    0.0003307   -0.0892036  
C    0.0000000    0.0000000    0.0000000  
H    2.9384091   -0.0000369    0.6389239  
H    4.3270394   -0.0004765   -1.6439446  
H    2.7280494   -0.0013406   -3.5742113  
C    0.0000000    0.0000000    1.4700000  
C    1.0662921    0.0000102    2.3034270  
C    0.4961870   -0.0000064    3.6418889  
C   -0.9663858    0.0000850    3.4240247  
N   -1.2632773    0.0000084    2.1528658  
C   -1.8985362    0.0000517    4.5177257  
C   -1.3925775   -0.0004564    5.7720543  
O   -2.1456383   -0.0005410    6.8851312  
C    0.0786232   -0.0009323    6.0245000  
O    0.4683759   -0.0012588    7.1921102  
C    1.0143166   -0.0008442    4.8859032  
H    2.1107198   -0.0000632    2.0421868  
H   -2.9622183    0.0003270    4.3293377  
H   -1.5042274   -0.0009692    7.6184419  
H    2.0724152   -0.0013148    5.1109744  
