64

C    6.5012974    0.0038874   -5.9163571  
C    7.5345004    0.0030148   -6.8246289  
C    6.9464615    0.0040428   -8.1241711  
C    5.5394831    0.0058273   -7.9443510  
N    5.3034349    0.0037336   -6.5919853  
C    4.6402318    0.0075150   -9.0149273  
C    5.1709852    0.0077062  -10.2902611  
O    4.3381103    0.0096760  -11.3716170  
C    6.5720168    0.0055682  -10.4900696  
O    6.9440198    0.0056399  -11.8185858  
C    7.4597433    0.0036292   -9.4343868  
H    8.5830306    0.0006832   -6.5805558  
H    4.3966802    0.0148779   -6.1611117  
H    3.5668238    0.0087356   -8.8845566  
H    4.9056492    0.0091532  -12.1533876  
H    7.9049643    0.0041552  -11.8653544  
H    8.5277289    0.0018333   -9.6184546  
C    6.5323619    0.0028964   -4.4466857  
C    7.6043853    0.0022110   -3.6131151  
C    7.0889182    0.0013271   -2.2643646  
C    5.6181665    0.0015261   -2.3813325  
N    5.3453997    0.0028890   -3.7298448  
C    4.7630507    0.0004755   -1.3275395  
C    5.3290143   -0.0007198    0.0111983  
O    4.6424941   -0.0016577    1.0246035  
C    6.8840247   -0.0006989    0.1586670  
O    7.3720510   -0.0013929    1.2807592  
C    7.7018218    0.0002121   -1.0517294  
H    8.6382649    0.0024954   -3.9092703  
H    8.7776749    0.0000151   -0.9409858  
H    4.4257341    0.0017848   -4.1314187  
C    3.3003548    0.0005276   -1.4738982  
C    2.5232817    0.0003497   -2.6090743  
C    1.1623204   -0.0001319   -2.1820101  
C    1.1711886    0.0000583   -0.7636140  
N    2.4852302   -0.0014919   -0.3662356  
C    0.0000000    0.0000000    0.0000000  
C   -1.2020379    0.0000520   -0.6806479  
O   -2.3759249    0.0003495    0.0157742  
C   -1.2314652   -0.0005112   -2.0955511  
O   -2.5054384   -0.0008036   -2.6250184  
C   -0.0764510   -0.0007271   -2.8495195  
H    2.8919962   -0.0005619   -3.6205297  
H    2.8036267    0.0088181    0.5858667  
H   -3.0835636    0.0000348   -0.6418823  
H   -2.4360038   -0.0011526   -3.5845925  
H   -0.1304090   -0.0013420   -3.9319089  
C    2.5285572    2.1210227    2.9438989  
C    1.9331703    1.6216660    4.0790748  
C    0.8903039    0.7472258    3.6520102  
C    0.8972198    0.7527806    2.2336141  
N    1.9028376    1.5986179    1.8362361  
C    0.0000000    0.0000000    1.4700000  
C   -0.9207814   -0.7726952    2.1506477  
O   -1.8198395   -1.5274828    1.4542253  
C   -0.9436862   -0.7911793    3.5655508  
O   -1.9197945   -1.6098497    4.0950179  
C   -0.0590329   -0.0485852    4.3195194  
H    2.2150357    1.8593692    5.0905303  
H    2.1533708    1.7953814    0.8841339  
H   -2.3621246   -1.9821033    2.1118817  
H   -1.8668290   -1.5649508    5.0545920  
H   -0.1007624   -0.0827977    5.4019087  
H    3.3491200    2.8096064    2.8367138  
