60

C   -7.6979663    0.0071297   -2.0094656  
C   -8.4334656    0.6813210   -1.0623782  
C   -9.7988135    0.3187853   -1.2598474  
C   -9.8353096   -0.5872021   -2.3506183  
N   -8.5431352   -0.7530731   -2.7835009  
C  -11.0228906   -1.1525862   -2.8247297  
C  -12.1949460   -0.7971373   -2.1858856  
O  -13.3830190   -1.3200335   -2.6078751  
C  -12.1790194    0.1055442   -1.0960559  
O  -13.4273872    0.3598883   -0.5666861  
C  -11.0078427    0.6639053   -0.6279732  
H   -8.0350556    1.3527713   -0.3211514  
H   -8.2561842   -1.3483631   -3.5393249  
H  -11.0574446   -1.8435905   -3.6557062  
H  -14.0648338   -0.9463062   -2.0345332  
H  -13.3278045    0.9779641    0.1638407  
H  -11.0269115    1.3525109    0.2086491  
C   -4.3359695    2.1064019   -0.0635820  
C   -5.5644951    1.6417188   -0.4083569  
C   -5.3776807    0.7467255   -1.5259088  
C   -3.9292261    0.7279266   -1.8059380  
N   -3.3543288    1.5729381   -0.8848846  
C   -3.3460097   -0.0004262   -2.7913647  
C   -4.2020390   -0.8203939   -3.6324361  
O   -3.7724544   -1.5121265   -4.5463637  
C   -5.7389983   -0.8155422   -3.3539782  
O   -6.4697262   -1.5017101   -4.0557400  
C   -6.2499650    0.0103542   -2.2628046  
H   -6.4953656    1.8969415    0.0659372  
H   -4.0651600    2.7938494    0.7212547  
H   -2.3726197    1.7700214   -0.8181561  
C    0.0000000    0.0000000    0.0000000  
C    1.0662919   -0.0000103   -0.8334272  
C    0.4961868    0.0000066   -2.1718889  
C   -0.9663860   -0.0000849   -1.9540248  
N   -1.2632775   -0.0000084   -0.6828659  
C   -1.8985364   -0.0000515   -3.0477258  
C   -1.3925778    0.0004567   -4.3020543  
O   -2.1456385    0.0005412   -5.4151314  
C    0.0786229    0.0009326   -4.5544999  
O    0.4683756    0.0012594   -5.7221104  
C    1.0143162    0.0008443   -3.4159034  
H    2.1107195    0.0000631   -0.5721869  
H   -1.5042277    0.0009692   -6.1484420  
H    2.0724151    0.0013151   -3.6409746  
C    1.1319247   -0.0015655    2.2709268  
C    0.7969915   -0.0034943    3.5869401  
C   -0.6453339   -0.0035710    3.6542670  
C   -1.1266833   -0.0015433    2.2596025  
N    0.0000000    0.0000000    1.4700000  
C   -2.4346130   -0.0013964    1.8976294  
C   -3.4350110   -0.0031408    2.9520183  
O   -4.6384611   -0.0030974    2.7283916  
C   -2.9478959   -0.0050506    4.4361073  
O   -3.7809380   -0.0062218    5.3323774  
C   -1.5113823   -0.0053090    4.7012123  
H    1.4821238   -0.0045407    4.4159191  
H   -2.7664565   -0.0000232    0.8686553  
H   -1.1823530   -0.0068408    5.7314848  
H    2.1104316   -0.0009391    1.8188057  
