62

C   -7.0359824    1.8524210   -0.4045281  
C   -7.4598850    2.6722773    0.6155746  
C   -8.8833301    2.5885316    0.6528549  
C   -9.2747725    1.6946579   -0.3765569  
N   -8.1288425    1.2675427   -1.0002825  
C  -10.6113983    1.3730719   -0.6311214  
C  -11.5703147    1.9643876    0.1682542  
O  -12.8905553    1.6851754   -0.0367314  
C  -11.1995641    2.8591377    1.2001376  
O  -12.2700030    3.3653446    1.9081351  
C   -9.8811610    3.1770584    1.4516635  
H   -6.8217315    3.2594165    1.2535569  
H   -8.0918296    0.6173518   -1.7643917  
H  -10.9162900    0.6926662   -1.4142507  
H  -13.3826361    2.1952383    0.6197421  
H  -11.9329769    3.9600046    2.5851854  
H   -9.6276591    3.8659415    2.2489431  
C   -4.5109061    2.0977187   -0.3577878  
C   -3.4201849    1.6341429   -1.0207351  
C   -3.9001605    0.7380705   -2.0461682  
C   -5.3704634    0.7174771   -1.9254393  
N   -5.6768558    1.5619482   -0.8833829  
C   -6.1968217   -0.0116748   -2.7173826  
C   -5.5981518   -0.8310169   -3.7579632  
O   -6.2573275   -1.5234763   -4.5223509  
C   -4.0429941   -0.8246548   -3.9037352  
O   -3.5275665   -1.5107550   -4.7760092  
C   -3.2578655    0.0024282   -2.9908505  
H   -2.3962307    1.8904974   -0.8147871  
H   -7.2728522   -0.0125173   -2.6121831  
H   -4.5610332    2.7855090    0.4706575  
C    0.0000000    0.0000000    0.0000000  
C    1.0521666   -0.0011982   -0.8862343  
C    0.4917215   -0.0011996   -2.1979132  
C   -0.9187429    0.0003215   -2.0478682  
N   -1.1833171   -0.0009323   -0.7007913  
C   -1.7951703    0.0010483   -3.1372089  
C   -1.2375841    0.0005313   -4.4010422  
O   -2.0474218    0.0015510   -5.4997578  
C    0.1673576   -0.0013585   -4.5711963  
O    0.5673520   -0.0020735   -5.8915554  
C    1.0325768   -0.0023493   -3.4969892  
H    2.0953056   -0.0030808   -0.6200564  
H   -2.0989778    0.0102529   -0.2891822  
H   -1.4634888    0.0006601   -6.2693595  
H    1.5290707   -0.0033271   -5.9180047  
H    2.1042146   -0.0039770   -3.6584456  
C    1.1319247   -0.0015655    2.2709268  
C    0.7969915   -0.0034943    3.5869401  
C   -0.6453339   -0.0035710    3.6542670  
C   -1.1266833   -0.0015433    2.2596025  
N    0.0000000    0.0000000    1.4700000  
C   -2.4346130   -0.0013964    1.8976294  
C   -3.4350110   -0.0031408    2.9520183  
O   -4.6384611   -0.0030974    2.7283916  
C   -2.9478959   -0.0050506    4.4361073  
O   -3.7809380   -0.0062218    5.3323774  
C   -1.5113823   -0.0053090    4.7012123  
H    1.4821238   -0.0045407    4.4159191  
H   -2.7664565   -0.0000232    0.8686553  
H   -1.1823530   -0.0068408    5.7314848  
H    2.1104316   -0.0009391    1.8188057  
