64

C   -6.9955857    1.9522765   -0.2871171  
C   -7.3662630    2.7840682    0.7439936  
C   -8.7895211    2.7368886    0.8258920  
C   -9.2357083    1.8519933   -0.1889002  
N   -8.1211491    1.3948246   -0.8472096  
C  -10.5874314    1.5644436   -0.4009125  
C  -11.5054355    2.1811951    0.4267725  
O  -12.8381518    1.9356503    0.2637133  
C  -11.0798235    3.0675004    1.4446795  
O  -12.1142937    3.6019099    2.1846943  
C   -9.7464966    3.3518488    1.6542313  
H   -6.6936561    3.3554918    1.3604905  
H   -8.1246990    0.7428965   -1.6107266  
H  -10.9339746    0.8910503   -1.1726975  
H  -13.2962498    2.4590214    0.9341572  
H  -11.7411544    4.1886228    2.8496294  
H   -9.4506423    4.0350528    2.4417473  
C   -4.4706944    2.1246862   -0.3281856  
C   -5.6599778    1.6264299   -0.8075742  
C   -5.3396889    0.7516502   -1.8877478  
C   -3.9276472    0.7558729   -2.0220872  
N   -3.4313258    1.6012783   -1.0610603  
C   -3.2578655    0.0024282   -2.9908505  
C   -4.0275335   -0.7695742   -3.8392613  
O   -3.4247947   -1.5249627   -4.8031641  
C   -5.4377033   -0.7867286   -3.7211788  
O   -6.0624941   -1.6048448   -4.6396926  
C   -6.0991482   -0.0434786   -2.7658798  
H   -2.4588260    1.7971334   -0.9065738  
H   -4.1336022   -1.9789340   -5.2772597  
H   -7.0119838   -1.5590482   -4.4914529  
H   -7.1803458   -0.0766728   -2.6996339  
H   -4.2816968    2.8131213    0.4776040  
C    0.0000000    0.0000000    0.0000000  
C    1.0521666   -0.0011982   -0.8862343  
C    0.4917215   -0.0011996   -2.1979132  
C   -0.9187429    0.0003215   -2.0478682  
N   -1.1833171   -0.0009323   -0.7007913  
C   -1.7951703    0.0010483   -3.1372089  
C   -1.2375841    0.0005313   -4.4010422  
O   -2.0474218    0.0015510   -5.4997578  
C    0.1673576   -0.0013585   -4.5711963  
O    0.5673520   -0.0020735   -5.8915554  
C    1.0325768   -0.0023493   -3.4969892  
H    2.0953056   -0.0030808   -0.6200564  
H   -2.0989778    0.0102529   -0.2891822  
H   -1.4634888    0.0006601   -6.2693595  
H    1.5290707   -0.0033271   -5.9180047  
H    2.1042146   -0.0039770   -3.6584456  
C    3.1301144    0.0010313    3.1728260  
C    2.5367765    0.0002768    1.9564670  
C    1.1089900   -0.0001027    2.2356185  
C    1.0177864    0.0004150    3.7115134  
N    2.1993570    0.0011613    4.2663826  
C   -0.2459220    0.0002880    4.3957118  
C   -1.3675327    0.0000606    3.6398520  
O   -2.6129319   -0.0000866    4.1448486  
C   -1.3083589   -0.0000910    2.1483229  
O   -2.3693264   -0.0004206    1.5241687  
C    0.0000000    0.0000000    1.4700000  
H    3.0096015    0.0001008    0.9892483  
H   -0.2829642    0.0004689    5.4753125  
H   -3.1967446   -0.0002093    3.3649027  
H    4.1849273    0.0015113    3.3971983  
