62

C    4.1548761   -3.6098664   -5.2092552  
C    5.1039320   -4.4152155   -5.7950646  
C    4.9125611   -4.3258281   -7.2057338  
C    3.8233103   -3.4436194   -7.4229125  
N    3.3854269   -3.0285937   -6.1897748  
C    3.3548815   -3.1204165   -8.6999816  
C    3.9979512   -3.6980888   -9.7774479  
O    3.5815821   -3.4166894  -11.0464879  
C    5.0863497   -4.5810671   -9.5810931  
O    5.6204081   -5.0743872  -10.7535958  
C    5.5488272   -4.9005774   -8.3215086  
H    5.8425234   -4.9965615   -5.2701701  
H    2.5250922   -2.4488597   -8.8722084  
H    4.1571295   -3.9166206  -11.6398506  
H    6.3495937   -5.6616635  -10.5322418  
H    6.3844841   -5.5802451   -8.2023166  
H    3.9650308   -3.4052118   -4.1695275  
C    2.2783844   -2.0910254   -5.9524496  
C    1.7853124   -1.6292409   -4.7744381  
C    0.6997746   -0.7327358   -5.0949402  
C    0.6001061   -0.7099358   -6.5667882  
N    1.5849247   -1.5536729   -7.0262771  
C   -0.3061446    0.0202239   -7.2648431  
C   -1.2459586    0.8383999   -6.5165965  
O   -2.1000525    1.5316277   -7.0534947  
C   -1.1584128    0.8296992   -4.9570884  
O   -1.9441938    1.5148019   -4.3164298  
C   -0.1387079    0.0017019   -4.3179684  
H    2.1415246   -1.8870539   -3.7929808  
H   -0.3624287    0.0226859   -8.3445354  
H    1.7699531   -1.7505084   -7.9927486  
C    3.3041273    0.0001178   -1.5420428  
C    2.5845373   -0.0004780   -0.3695851  
C    1.2040007   -0.0000007   -0.7283589  
C    1.1422374    0.0006038   -2.1454372  
N    2.4348641    0.0026111   -2.6077464  
C   -0.0655179    0.0008799   -2.8497918  
C   -1.2321766    0.0002325   -2.1101402  
O   -2.4392814    0.0001148   -2.7472522  
C   -1.1911209   -0.0000007   -0.6955266  
O   -2.4371528   -0.0002320   -0.1032862  
C    0.0000000    0.0000000    0.0000000  
H    3.0031533   -0.0000660    0.6222584  
H    2.7054631   -0.0071097   -3.5745261  
H   -3.1132988   -0.0000648   -2.0551787  
H   -2.3200282   -0.0004072    0.8516409  
H    4.3686625    0.0004073   -1.7024290  
C    2.4951002    2.0940188    2.9809380  
C    1.9440701    1.6314916    1.8291961  
C    0.8759964    0.7350050    2.2038498  
C    0.8497377    0.7130254    3.6788474  
N    1.8560616    1.5571714    4.0882609  
C   -0.0205033   -0.0168748    4.4215661  
C   -0.9962600   -0.8356168    3.7214979  
O   -1.8224391   -1.5286685    4.3006425  
C   -0.9864710   -0.8277881    2.1595606  
O   -1.8030528   -1.5133726    1.5592035  
C    0.0000000    0.0000000    1.4700000  
H    2.2509283    1.8888011    0.8310761  
H   -0.0229599   -0.0187323    5.5027230  
H    3.3143982    2.7817323    3.1139444  
H    2.0889452    1.7545833    5.0442112  
