62

C    1.1243397    0.0100937   -0.7919009  
C    0.7474045    0.0235218   -2.1148549  
C   -0.6787417    0.0233877   -2.1414696  
C   -1.1201757    0.0097582   -0.7935545  
N    0.0000000    0.0000000    0.0000000  
C   -2.4730825    0.0061478   -0.4408231  
C   -3.3971981    0.0167918   -1.4675049  
O   -4.7313537    0.0141995   -1.1793454  
C   -2.9763690    0.0300823   -2.8186313  
O   -4.0166530    0.0391497   -3.7247607  
C   -1.6418606    0.0333780   -3.1673476  
H   -2.8160158   -0.0043650    0.5845975  
H   -5.1938846    0.0226184   -2.0274359  
H   -3.6464738    0.0479005   -4.6127329  
H   -1.3497530    0.0434651   -4.2109229  
H    2.1062456    0.0054718   -0.3505416  
C    4.4934821   -2.1123067   -2.7414620  
C    4.8572484   -1.6933781   -3.9758655  
C    3.8033888   -0.7786837   -4.3872213  
C    2.8586651   -0.7628154   -3.2497550  
N    3.2579484   -1.5426072   -2.2820324  
C    1.6628904    0.0340401   -3.2649308  
C    1.4220460    0.7813811   -4.3662071  
O    0.3454885    1.5716640   -4.5162632  
C    2.3564972    0.7869632   -5.5302220  
O    2.0739375    1.4911325   -6.4995139  
C    3.5764129   -0.0389641   -5.4905469  
H    0.4527831    1.9720528   -5.3979261  
H    4.2275831   -0.0070812   -6.3537916  
H    5.0129474   -2.8005988   -2.0938643  
C    6.0525417   -2.0720835   -4.7431706  
C    7.0575580   -2.9183558   -4.3998918  
C    7.9857865   -2.9400882   -5.5056737  
C    7.4352334   -2.0305639   -6.5286336  
N    6.2624971   -1.5371147   -6.0051003  
C    8.0203528   -1.7763037   -7.7264192  
C    9.2760527   -2.4431008   -8.0283056  
O    9.8808329   -2.2799959   -9.0799409  
C    9.8772229   -3.4107518   -6.9596377  
O   10.9337939   -3.9780542   -7.2027171  
C    9.1543129   -3.6041008   -5.7050982  
H    7.1392319   -3.4651334   -3.4774075  
H    7.5998891   -1.1055217   -8.4627423  
H    9.5773759   -4.2755611   -4.9703308  
H    5.6539999   -0.8868079   -6.4675723  
C    2.5311839    2.1237619    3.0120429  
C    1.9795631    1.6616747    1.8395852  
C    0.9223175    0.7739173    2.1983588  
C    0.8753926    0.7337535    3.6154372  
N    1.8668922    1.5631002    4.0777464  
C   -0.0496243   -0.0427881    4.3197917  
C   -0.9437528   -0.7922060    3.5801400  
O   -1.8685244   -1.5680278    4.2172520  
C   -0.9124520   -0.7656372    2.1655264  
O   -1.8671164   -1.5663939    1.5732860  
C    0.0000000    0.0000000    1.4700000  
H    2.3005065    1.9304404    0.8477417  
H    2.0679347    1.7444845    5.0445261  
H   -0.0904770   -0.0778569    5.3997470  
H   -2.3849669   -2.0011402    3.5251786  
H   -1.7775064   -1.4909735    0.6183591  
H    3.3468514    2.8078103    3.1724291  
