60

C    2.8789095   -2.9293009   -5.4852531  
C    3.4133958   -3.6298185   -4.4288124  
C    4.5137573   -4.3795024   -4.9404563  
C    4.6034210   -4.0935989   -6.3268710  
N    3.5948674   -3.2112748   -6.6250969  
C    5.5775230   -4.6601910   -7.1544499  
C    6.4776916   -5.5310332   -6.5717779  
O    7.4495639   -6.1122854   -7.3337674  
C    6.4042247   -5.8291258   -5.1902720  
O    7.3711111   -6.7144199   -4.7604737  
C    5.4433472   -5.2707464   -4.3732952  
H    3.0536839   -3.6045430   -3.4144349  
H    3.4152821   -2.8201679   -7.5321610  
H    5.6511125   -4.4464892   -8.2118619  
H    7.9617930   -6.6759977   -6.7395334  
H    7.2509222   -6.8617982   -3.8173733  
H    5.4117918   -5.5181887   -3.3186605  
C    1.7371424   -2.0043750   -5.5274499  
C    0.9346266   -1.6238673   -4.5062931  
C   -0.0220096   -0.7047842   -5.1034810  
C    0.3601286   -0.6444245   -6.5306850  
N    1.3906159   -1.4042329   -6.7851956  
C   -0.3537166    0.1694992   -7.4756929  
C   -1.4019181    0.8900574   -7.0159061  
O   -2.1569094    1.6919656   -7.7859529  
C   -1.8124076    0.8499979   -5.5813138  
O   -2.7762296    1.5318134   -5.2328958  
C   -1.0641734    0.0073898   -4.6315339  
H    0.9854830   -1.9292388   -3.4751590  
H   -0.0524154    0.1947168   -8.5127516  
H   -2.8200949    2.0664814   -7.1784370  
C    1.1319248    0.0015675   -0.8009270  
C    0.7969916    0.0034959   -2.1169404  
C   -0.6453336    0.0035703   -2.1842672  
C   -1.1266831    0.0015415   -0.7896027  
N    0.0000000    0.0000000    0.0000000  
C   -2.4346129    0.0013924   -0.4276297  
C   -3.4350110    0.0031352   -1.4820184  
O   -4.6384610    0.0030897   -1.2583919  
C   -2.9478958    0.0050460   -2.9661075  
O   -3.7809377    0.0062160   -3.8623775  
C   -1.5113821    0.0053068   -3.2312125  
H    1.4821240    0.0045436   -2.9459192  
H   -2.7664565    0.0000185    0.6013447  
H    2.1104318    0.0009428   -0.3488058  
C    2.5128556    2.1077716    2.9199648  
C    1.9592212    1.6432552    4.0696553  
C    0.8915788    0.7479214    3.6910360  
C    0.8684491    0.7287414    2.2159470  
N    1.8754542    1.5738793    1.8102719  
C    0.0000000    0.0000000    1.4700000  
C   -0.9772830   -0.8200135    2.1664417  
O   -1.8021297   -1.5120829    1.5842315  
C   -0.9711318   -0.8147624    3.7284083  
O   -1.7894187   -1.5009653    4.3257297  
C    0.0140216    0.0115358    4.4216297  
H    2.2638494    1.8988021    5.0689105  
H    0.0117648    0.0094386    5.5031631  
H    3.3327358    2.7953732    2.7900019  
H    2.1123206    1.7707734    0.8551938  
