60

C    0.0950458    0.0004351   -4.4015596  
C    1.1162051    0.0003983   -5.3233520  
C    0.5111117    0.0000861   -6.6150416  
C   -0.8933793    0.0002293   -6.4167188  
N   -1.1116045   -0.0015105   -5.0613625  
C   -1.8066450    0.0003039   -7.4753665  
C   -1.2927241    0.0005396   -8.7575773  
O   -2.1397618    0.0009726   -9.8278760  
C    0.1055576    0.0000260   -8.9758068  
O    0.4600412   -0.0000780  -10.3091046  
C    1.0071038   -0.0003211   -7.9319000  
H    2.1678592   -0.0005304   -5.0931005  
H   -2.0126226    0.0087260   -4.6185953  
H   -2.8782450    0.0002691   -7.3308775  
H   -1.5825620    0.0007744  -10.6170477  
H    1.4202883   -0.0004054  -10.3685169  
H    2.0725757   -0.0008938   -8.1300089  
C    3.3321177    0.0004714   -1.3379329  
C    2.6974191    0.0000116   -2.5332309  
C    1.2800443   -0.0002118   -2.2052838  
C    1.2395035    0.0000643   -0.7271296  
N    2.4394066    0.0005460   -0.2131032  
C    0.0000000    0.0000000    0.0000000  
C   -1.1468697    0.0000634   -0.7169547  
O   -2.3742196    0.0000072   -0.1695495  
C   -1.1388763    0.0001605   -2.2096359  
O   -2.2206227    0.0000904   -2.7970417  
C    0.1454530    0.0001814   -2.9324241  
H    3.1367996   -0.0000651   -3.5160943  
H   -2.9844343    0.0001024   -0.9290175  
C    4.7795907    0.0008674   -1.0815719  
C    5.7862029    0.0008769   -1.9861780  
C    7.0047301    0.0013413   -1.1913879  
C    6.5351382    0.0016829    0.2107775  
N    5.2316827    0.0013266    0.2814352  
C    7.4495162    0.0021411    1.3193796  
C    8.7728601    0.0018640    1.0399236  
O    9.7375499    0.0022383    1.9755596  
C    9.2780075    0.0011454   -0.3647066  
O   10.4956960    0.0010511   -0.5448607  
C    8.3200402    0.0007292   -1.4846268  
H    5.7111091    0.0005126   -3.0601598  
H    7.0785139    0.0025903    2.3339075  
H   10.5714823    0.0018722    1.4718640  
H    8.7261902    0.0000957   -2.4872595  
C    2.5528530    2.1414826    2.8079335  
C    2.0663498    1.7338582    4.0032312  
C    0.9804344    0.8229586    3.6752840  
C    0.9495562    0.7966882    2.1971295  
N    1.8690446    1.5676019    1.6831036  
C    0.0000000    0.0000000    1.4700000  
C   -0.8785127   -0.7372425    2.1869543  
O   -1.8187535   -1.5261249    1.6395491  
C   -0.8723269   -0.7321790    3.6796354  
O   -1.7010379   -1.4274584    4.2670412  
C    0.1115397    0.0933559    4.4024240  
H    2.4028853    2.0163452    4.9860947  
H   -2.2861435   -1.9184361    2.3990168  
H    0.0832434    0.0693689    5.4835595  
H    3.3664920    2.8238276    2.6198634  
