62

C    8.1806994   -0.0314108   -2.5298575  
C    8.3843484   -0.0298754   -3.8903695  
C    9.7951731   -0.0419035   -4.1002013  
C   10.4062732   -0.0507722   -2.8201999  
N    9.3975208   -0.0421347   -1.8890926  
C   11.7932522   -0.0639207   -2.6444033  
C   12.5776152   -0.0685011   -3.7814750  
O   13.9376920   -0.0816107   -3.6673097  
C   11.9865377   -0.0594302   -5.0673069  
O   12.9016072   -0.0651200   -6.0997605  
C   10.6183231   -0.0461843   -5.2414854  
H    7.6111687   -0.0200534   -4.6394287  
H    9.5265319   -0.0560022   -0.8935303  
H   12.2652006   -0.0705857   -1.6715609  
H   14.2872945   -0.0823781   -4.5678887  
H   12.4203218   -0.0583524   -6.9327802  
H   10.1944489   -0.0392892   -6.2388618  
C    5.6607707   -0.0083663   -2.2933940  
C    6.9286310   -0.0216452   -1.7597083  
C    6.7831043   -0.0222194   -0.3407573  
C    5.3917947   -0.0091557   -0.0650528  
N    4.7390840    0.0009613   -1.2727298  
C    4.8785177   -0.0063138    1.2354579  
C    5.7862938   -0.0171586    2.2766122  
O    5.3393783   -0.0153087    3.5662933  
C    7.1783065   -0.0298928    2.0217500  
O    7.9524033   -0.0392501    3.1636914  
C    7.6853795   -0.0324303    0.7390199  
H    3.8192271    0.0037651    1.4522611  
H    6.1255194   -0.0237429    4.1276991  
H    8.8785331   -0.0475885    2.9032703  
H    8.7565641   -0.0421043    0.5748604  
H    5.3410166   -0.0033649   -3.3213489  
C    3.2798077    0.0005856   -1.4499661  
C    2.5571132    0.0005565   -2.5996564  
C    1.1637425    0.0001547   -2.2210366  
C    1.1336959   -0.0000200   -0.7459475  
N    2.4483509   -0.0001429   -0.3402730  
C    0.0000000    0.0000000    0.0000000  
C   -1.2757370   -0.0000187   -0.6964411  
O   -2.3524597   -0.0000640   -0.1142306  
C   -1.2676502   -0.0000874   -2.2584078  
O   -2.3355774   -0.0004102   -2.8557287  
C    0.0181551    0.0001758   -2.9516297  
H    2.9547342    0.0006074   -3.5989118  
H    0.0150776    0.0003317   -4.0331632  
H    2.7563626    0.0012823    0.6148051  
C    0.0000000    0.0000000    1.4700000  
C    1.0662921    0.0000102    2.3034270  
C    0.4961870   -0.0000064    3.6418889  
C   -0.9663858    0.0000850    3.4240247  
N   -1.2632773    0.0000084    2.1528658  
C   -1.8985362    0.0000517    4.5177257  
C   -1.3925775   -0.0004564    5.7720543  
O   -2.1456383   -0.0005410    6.8851312  
C    0.0786232   -0.0009323    6.0245000  
O    0.4683759   -0.0012588    7.1921102  
C    1.0143166   -0.0008442    4.8859032  
H    2.1107198   -0.0000632    2.0421868  
H   -2.9622183    0.0003270    4.3293377  
H   -1.5042274   -0.0009692    7.6184419  
H    2.0724152   -0.0013148    5.1109744  
