60

C    9.2085263   -0.0056109    0.3420974  
C    9.8821890   -0.0055715   -0.8573387  
C   11.2755792   -0.0068587   -0.5522776  
C   11.3921540   -0.0079354    0.8613472  
N   10.1183952   -0.0051891    1.3733526  
C   12.6262707   -0.0096496    1.5184181  
C   13.7634202   -0.0105954    0.7341559  
O   14.9942818   -0.0126258    1.3240597  
C   13.6676324   -0.0091705   -0.6778070  
O   14.8898030   -0.0099466   -1.3178404  
C   12.4504795   -0.0072060   -1.3267003  
H    9.4254911   -0.0036146   -1.8322320  
H    9.8854151   -0.0157501    2.3498716  
H   12.7218731   -0.0103329    2.5954794  
H   15.6410028   -0.0126749    0.6064125  
H   14.7358000   -0.0089146   -2.2675169  
H   12.4085280   -0.0059665   -2.4096207  
C    5.6706436   -0.0000109   -2.2998306  
C    6.9366746   -0.0017183   -1.8086710  
C    6.8296106   -0.0022729   -0.3687500  
C    5.3870841   -0.0007669   -0.0590646  
N    4.7390840    0.0009613   -1.2727298  
C    4.8700559   -0.0011615    1.1956809  
C    5.7961368   -0.0029798    2.3159070  
O    5.4290430   -0.0034065    3.4836152  
C    7.3281306   -0.0043428    2.0112798  
O    8.1174235   -0.0055710    2.9463067  
C    7.7645007   -0.0040404    0.6172090  
H    7.8422120   -0.0023175   -2.3888562  
H    3.8085777   -0.0001651    1.4010418  
H    5.3397978    0.0008358   -3.3257109  
C    3.2798077    0.0005856   -1.4499661  
C    2.5571132    0.0005565   -2.5996564  
C    1.1637425    0.0001547   -2.2210366  
C    1.1336959   -0.0000200   -0.7459475  
N    2.4483509   -0.0001429   -0.3402730  
C    0.0000000    0.0000000    0.0000000  
C   -1.2757370   -0.0000187   -0.6964411  
O   -2.3524597   -0.0000640   -0.1142306  
C   -1.2676502   -0.0000874   -2.2584078  
O   -2.3355774   -0.0004102   -2.8557287  
C    0.0181551    0.0001758   -2.9516297  
H    2.9547342    0.0006074   -3.5989118  
H    0.0150776    0.0003317   -4.0331632  
H    2.7563626    0.0012823    0.6148051  
C    0.0000000    0.0000000    1.4700000  
C    1.0662921    0.0000102    2.3034270  
C    0.4961870   -0.0000064    3.6418889  
C   -0.9663858    0.0000850    3.4240247  
N   -1.2632773    0.0000084    2.1528658  
C   -1.8985362    0.0000517    4.5177257  
C   -1.3925775   -0.0004564    5.7720543  
O   -2.1456383   -0.0005410    6.8851312  
C    0.0786232   -0.0009323    6.0245000  
O    0.4683759   -0.0012588    7.1921102  
C    1.0143166   -0.0008442    4.8859032  
H    2.1107198   -0.0000632    2.0421868  
H   -2.9622183    0.0003270    4.3293377  
H   -1.5042274   -0.0009692    7.6184419  
H    2.0724152   -0.0013148    5.1109744  
