60

C    4.3861475   -2.1172831   -5.9876815  
C    5.3699332   -1.6178852   -6.8094082  
C    4.7319955   -0.7445940   -7.7394602  
C    3.3469463   -0.7508594   -7.4336412  
N    3.1711018   -1.5959981   -6.3661967  
C    2.4108149    0.0007325   -8.1502690  
C    2.8814980    0.7729480   -9.1944523  
O    2.0106586    1.5265789   -9.9270463  
C    4.2597531    0.7921264   -9.5151746  
O    4.5709571    1.6101909  -10.5816007  
C    5.1837991    0.0507049   -8.8088045  
H    6.4182428   -1.8548254   -6.7469512  
H    2.2933592   -1.7930183   -5.9204039  
H    2.5388863    1.9810470  -10.5961503  
H    5.5201580    1.5658244  -10.7321082  
H    6.2330346    0.0854272   -9.0778326  
H    4.4548488   -2.8051866   -5.1624378  
C   -0.0307354   -0.0004645   -4.4215603  
C    1.0331815   -0.0004860   -5.2580174  
C    0.4592711   -0.0007213   -6.5948515  
C   -1.0026758   -0.0009313   -6.3728279  
N   -1.2959501   -0.0007014   -5.1008297  
C   -1.9379340   -0.0011519   -7.4638729  
C   -1.4355456   -0.0007729   -8.7196356  
O   -2.1917699   -0.0009264   -9.8305658  
C    0.0349312   -0.0001826   -8.9762653  
O    0.4213604    0.0000150  -10.1449796  
C    0.9738597   -0.0000102   -7.8403354  
H    2.0783481   -0.0002676   -4.9997493  
H   -3.0010760   -0.0015090   -7.2724597  
H   -1.5524475   -0.0005388  -10.5656984  
C    3.2573669   -0.0002919   -1.5109381  
C    2.5379467   -0.0001709   -0.3591962  
C    1.1435042    0.0000332   -0.7338501  
C    1.1092607   -0.0000081   -2.2088477  
N    2.4227561    0.0001910   -2.6182614  
C   -0.0265534   -0.0002522   -2.9515663  
C   -1.3003036   -0.0002639   -2.2514981  
O   -2.3786785   -0.0004131   -2.8306428  
C   -1.2877726    0.0000312   -0.6895608  
O   -2.3539957    0.0003306   -0.0892035  
C    0.0000000    0.0000000    0.0000000  
H    2.9384091   -0.0000368    0.6389238  
H    4.3270391   -0.0004764   -1.6439447  
H    2.7280492   -0.0013405   -3.5742114  
C    2.3971438    2.0127888    3.1728260  
C    1.9431056    1.6308205    1.9564670  
C    0.8496017    0.7127664    2.2356185  
C    0.7794028    0.6545384    3.7115134  
N    1.6840587    1.4146091    4.2663826  
C   -0.1885723   -0.1578550    4.3957118  
C   -1.0476298   -0.8789867    3.6398520  
O   -2.0015663   -1.6796266    4.1448486  
C   -1.0022026   -0.8410666    2.1483229  
O   -1.8147390   -1.5232959    1.5241687  
C    0.0000000    0.0000000    1.4700000  
H    2.3054237    1.9346118    0.9892483  
H   -0.2170646   -0.1815267    5.4753125  
H   -2.4487139   -2.0549881    3.3649027  
H    3.2048689    2.6911772    3.3971983  
