66

C    0.1916483   -0.8856839   -9.5474998  
C   -0.1931839    0.1825617   -8.7708259  
C   -0.1916443    1.3326965   -9.6145000  
C    0.2055751    0.9010215  -10.9059334  
N    0.4324393   -0.4507733  -10.8297714  
C    0.3173223    1.7725048  -11.9935088  
C    0.0224183    3.1039641  -11.7734505  
O    0.1148019    3.9979717  -12.8006949  
C   -0.3752554    3.5539594  -10.4919763  
O   -0.6338095    4.9078824  -10.4337971  
C   -0.4854492    2.6948274   -9.4185353  
H    0.7165062   -1.0355791  -11.5948138  
H    0.6196882    1.4497935  -12.9802372  
H   -0.1303321    4.8585495  -12.4365790  
H   -0.8957670    5.1291495   -9.5348958  
H   -0.7922247    3.0686196   -8.4486661  
H    0.3148030   -1.9231819   -9.2879040  
C    1.5862963   -2.0670322   -5.3411847  
C    1.3189952   -1.5555207   -6.5899330  
C    0.1997466   -0.6822137   -6.4513069  
C   -0.1759085   -0.7009549   -5.0836595  
N    0.6852545   -1.5532113   -4.4381564  
C   -1.2456329    0.0471727   -4.5828766  
C   -1.9487579    0.8286865   -5.4789955  
O   -3.0021411    1.5794496   -5.0433908  
C   -1.5894397    0.8603682   -6.8474632  
O   -2.3865862    1.6866038   -7.6124704  
C   -0.5344149    0.1223716   -7.3422465  
H    1.8630203   -1.7845991   -7.4902407  
H    0.6698564   -1.7594943   -3.4557148  
H   -3.3470236    2.0416479   -5.8184349  
H   -2.0769447    1.6504694   -8.5226459  
H    2.3474954   -2.7588385   -5.0234755  
C    1.1243410    0.0099923   -0.7919003  
C    0.7474076    0.0234544   -2.1148543  
C   -0.6787381    0.0234490   -2.1414700  
C   -1.1201745    0.0098592   -0.7935546  
N    0.0000000    0.0000000    0.0000000  
C   -2.4730816    0.0063709   -0.4408240  
C   -3.3971958    0.0170982   -1.4675058  
O   -4.7313517    0.0146259   -1.1793471  
C   -2.9763648    0.0303504   -2.8186324  
O   -4.0166480    0.0395118   -3.7247624  
C   -1.6418562    0.0335260   -3.1673481  
H    1.4178717    0.0310972   -2.9571209  
H   -2.8160166   -0.0041111    0.5845966  
H   -5.1938818    0.0230867   -2.0274384  
H   -3.6464675    0.0482293   -4.6127343  
H    2.1062467    0.0052819   -0.3505407  
C    2.5285572    2.1210227    2.9438989  
C    1.9331703    1.6216660    4.0790748  
C    0.8903039    0.7472258    3.6520102  
C    0.8972198    0.7527806    2.2336141  
N    1.9028376    1.5986179    1.8362361  
C    0.0000000    0.0000000    1.4700000  
C   -0.9207814   -0.7726952    2.1506477  
O   -1.8198395   -1.5274828    1.4542253  
C   -0.9436862   -0.7911793    3.5655508  
O   -1.9197945   -1.6098497    4.0950179  
C   -0.0590329   -0.0485852    4.3195194  
H    2.2150357    1.8593692    5.0905303  
H    2.1533708    1.7953814    0.8841339  
H   -2.3621246   -1.9821033    2.1118817  
H   -1.8668290   -1.5649508    5.0545920  
H   -0.1007624   -0.0827977    5.4019087  
H    3.3491200    2.8096064    2.8367138  
