60

C   10.1992274    2.1244221   -2.2671338  
C    9.1957157    1.6627037   -1.4472269  
C    9.8004126    0.7755693   -0.5081125  
C   11.1865301    0.7353884   -0.8064237  
N   11.3943376    1.5641252   -1.8809605  
C   12.0943798   -0.0406204   -0.0795078  
C   11.5938822   -0.7894778    0.9678184  
O   12.4364401   -1.5647649    1.7108124  
C   10.2139487   -0.7628826    1.2806967  
O    9.8711516   -1.5630468    2.3510096  
C    9.3177130    0.0022291    0.5638345  
H    8.1556072    1.9313083   -1.5180637  
H   12.2834183    1.7453579   -2.3106920  
H   13.1519749   -0.0756993   -0.3019091  
H   11.8904164   -1.9975450    2.3800087  
H    8.9230118   -1.4876501    2.4957490  
H   10.1568191    2.8079757   -3.0977453  
C    5.7851528    0.0009360   -1.9873452  
C    4.7795901    0.0008674   -1.0815733  
C    5.4416652    0.0014223    0.2138632  
C    6.8854798    0.0016738   -0.1054857  
N    7.0929836    0.0014713   -1.3942570  
C    7.8916463    0.0022759    0.9205334  
C    7.4744098    0.0030007    2.2070976  
O    8.3032740    0.0036099    3.2649370  
C    6.0244005    0.0031411    2.5615457  
O    5.7170387    0.0036916    3.7534974  
C    5.0115684    0.0024703    1.4909874  
H    7.7145743    0.0040689    4.0412004  
H    3.9717453    0.0027120    1.7893136  
H    5.7099328    0.0006295   -3.0631309  
C    3.3321168    0.0004716   -1.3379341  
C    2.6974177    0.0000118   -2.5332316  
C    1.2800432   -0.0002116   -2.2052842  
C    1.2395033    0.0000644   -0.7271298  
N    2.4394059    0.0005460   -0.2131041  
C    0.0000000    0.0000000    0.0000000  
C   -1.1468704    0.0000635   -0.7169542  
O   -2.3742206    0.0000074   -0.1695488  
C   -1.1388774    0.0001608   -2.2096352  
O   -2.2206238    0.0000906   -2.7970409  
C    0.1454514    0.0001818   -2.9324241  
H    3.1367978   -0.0000649   -3.5160956  
H   -2.9844350    0.0001027   -0.9290164  
H    0.1083567    0.0003684   -4.0135594  
C    0.0000000    0.0000000    1.4700000  
C    1.0662921    0.0000102    2.3034270  
C    0.4961870   -0.0000064    3.6418889  
C   -0.9663858    0.0000850    3.4240247  
N   -1.2632773    0.0000084    2.1528658  
C   -1.8985362    0.0000517    4.5177257  
C   -1.3925775   -0.0004564    5.7720543  
O   -2.1456383   -0.0005410    6.8851312  
C    0.0786232   -0.0009323    6.0245000  
O    0.4683759   -0.0012588    7.1921102  
C    1.0143166   -0.0008442    4.8859032  
H    2.1107198   -0.0000632    2.0421868  
H   -2.9622183    0.0003270    4.3293377  
H   -1.5042274   -0.0009692    7.6184419  
H    2.0724152   -0.0013148    5.1109744  
