64

C    6.6913553   -2.1297430   -1.7950925  
C    7.2163774   -2.9806529   -0.8502267  
C    8.6292942   -2.9983279   -1.0450467  
C    8.9104434   -2.1314686   -2.1319855  
N    7.7114641   -1.6221990   -2.5652395  
C   10.2072978   -1.9048742   -2.6027431  
C   11.2391595   -2.5651671   -1.9644224  
O   12.5249490   -2.3798224   -2.3832365  
C   10.9787131   -3.4343770   -0.8783937  
O   12.1114993   -4.0174262   -0.3490605  
C    9.6995588   -3.6586006   -0.4136216  
H    6.6504891   -3.5228722   -0.1121465  
H    7.5968213   -0.9687616   -3.3188028  
H   10.4282008   -1.2455258   -3.4307912  
H   13.0798767   -2.9254885   -1.8108997  
H   11.8477945   -4.5886503    0.3787908  
H    9.5309335   -4.3300969    0.4201263  
C    4.1863599   -2.1478775   -1.3903801  
C    5.2964345   -1.7420570   -2.0496411  
C    4.8117012   -0.8307217   -3.0748245  
C    3.3454829   -0.8022509   -2.8851474  
N    2.9730511   -1.5723544   -1.8991330  
C    2.4861704   -0.0045255   -3.7159919  
C    3.0653208    0.7316065   -4.6917114  
O    2.3851032    1.5212588   -5.5401181  
C    4.5422564    0.7243199   -4.9079753  
O    5.0006623    1.4186838   -5.8151370  
C    5.4023454   -0.1022442   -4.0425487  
H    3.0670367    1.9124161   -6.1155441  
H    6.4672339   -0.0798688   -4.2316050  
H    4.1206064   -2.8299028   -0.5576194  
C    0.0000000    0.0000000    0.0000000  
C    1.0521669   -0.0011848   -0.8862341  
C    0.4917221   -0.0011931   -2.1979130  
C   -0.9187427    0.0003100   -2.0478683  
N   -1.1833170   -0.0009472   -0.7007915  
C   -1.7951698    0.0010259   -3.1372090  
C   -1.2375835    0.0005161   -4.4010425  
O   -2.0474208    0.0015256   -5.4997580  
C    0.1673584   -0.0013557   -4.5711962  
O    0.5673529   -0.0020659   -5.8915551  
C    1.0325773   -0.0023359   -3.4969890  
H    2.0953059   -0.0030542   -0.6200560  
H   -2.0989777    0.0102265   -0.2891825  
H   -2.8710930    0.0020274   -3.0295514  
H   -1.4634881    0.0006427   -6.2693593  
H    1.5290715   -0.0033076   -5.9180042  
C    3.3003543   -0.0005276    2.9438989  
C    2.5232812   -0.0003497    4.0790748  
C    1.1623199    0.0001319    3.6520102  
C    1.1711883   -0.0000583    2.2336141  
N    2.4852299    0.0014920    1.8362361  
C    0.0000000    0.0000000    1.4700000  
C   -1.2020384   -0.0000520    2.1506477  
O   -2.3759250   -0.0003494    1.4542253  
C   -1.2314658    0.0005113    3.5655508  
O   -2.5054393    0.0008037    4.0950179  
C   -0.0764518    0.0007272    4.3195194  
H    2.8919952    0.0005619    5.0905303  
H    2.8036267   -0.0088181    0.8841339  
H   -3.0835639   -0.0000348    2.1118817  
H   -2.4360050    0.0011527    5.0545920  
H   -0.1304098    0.0013421    5.4019087  
H    4.3715549   -0.0004895    2.8367138  
