62

C    7.6927792    0.0032759   -6.6241710  
C    6.5739152    0.0019520   -5.8237903  
C    5.4415289    0.0024254   -6.6911434  
C    5.9356483    0.0037780   -8.0207187  
N    7.3063150    0.0062152   -7.9440138  
C    5.0968229    0.0042593   -9.1392710  
C    3.7343672    0.0030517   -8.9114755  
O    2.8699947    0.0031033   -9.9678255  
C    3.2221281    0.0020687   -7.5922239  
O    1.8438661    0.0013448   -7.5311032  
C    4.0490606    0.0018667   -6.4882725  
H    7.9315489   -0.0029508   -8.7294955  
H    5.4671573    0.0054331  -10.1551725  
H    1.9799120    0.0024587   -9.5923038  
H    1.5804555    0.0006761   -6.6057824  
H    3.6276576    0.0012878   -5.4898253  
H    8.7359043    0.0038018   -6.3579968  
C    6.5739150    0.0018721   -4.3537904  
C    7.6280837    0.0019470   -3.4977512  
C    7.0842294    0.0017737   -2.1601949  
C    5.6162780    0.0015611   -2.3082170  
N    5.3720693    0.0020316   -3.6621935  
C    4.7390840    0.0009613   -1.2727298  
C    5.2766305    0.0007201    0.0776698  
O    4.5688481    0.0002470    1.0763412  
C    6.8281773    0.0011907    0.2579666  
O    7.2923820    0.0012996    1.3901216  
C    7.6713703    0.0015461   -0.9348778  
H    8.6679908    0.0022879   -3.7719920  
H    8.7446428    0.0016655   -0.8014235  
H    4.4610955    0.0004680   -4.0831112  
C    3.2798077    0.0005856   -1.4499661  
C    2.5571132    0.0005565   -2.5996564  
C    1.1637425    0.0001547   -2.2210366  
C    1.1336959   -0.0000200   -0.7459475  
N    2.4483509   -0.0001429   -0.3402730  
C    0.0000000    0.0000000    0.0000000  
C   -1.2757370   -0.0000187   -0.6964411  
O   -2.3524597   -0.0000640   -0.1142306  
C   -1.2676502   -0.0000874   -2.2584078  
O   -2.3355774   -0.0004102   -2.8557287  
C    0.0181551    0.0001758   -2.9516297  
H    2.9547342    0.0006074   -3.5989118  
H    0.0150776    0.0003317   -4.0331632  
H    2.7563626    0.0012823    0.6148051  
C    2.5311839    2.1237619    3.0120429  
C    1.9795631    1.6616747    1.8395852  
C    0.9223175    0.7739173    2.1983588  
C    0.8753926    0.7337535    3.6154372  
N    1.8668922    1.5631002    4.0777464  
C   -0.0496243   -0.0427881    4.3197917  
C   -0.9437528   -0.7922060    3.5801400  
O   -1.8685244   -1.5680278    4.2172520  
C   -0.9124520   -0.7656372    2.1655264  
O   -1.8671164   -1.5663939    1.5732860  
C    0.0000000    0.0000000    1.4700000  
H    2.3005065    1.9304404    0.8477417  
H    2.0679347    1.7444845    5.0445261  
H   -0.0904770   -0.0778569    5.3997470  
H   -2.3849669   -2.0011402    3.5251786  
H   -1.7775064   -1.4909735    0.6183591  
H    3.3468514    2.8078103    3.1724291  
