62

C    2.5982151   -3.1644082   -8.0847427  
C    3.2800718   -3.1070484   -9.2781616  
C    3.2117876   -1.7565760   -9.7322103  
C    2.4695913   -1.0297709   -8.7663807  
N    2.1106077   -1.9150145   -7.7804345  
C    2.2041026    0.3374768   -8.8886051  
C    2.6970917    0.9828380  -10.0060340  
O    2.4673301    2.3176219  -10.1750738  
C    3.4394936    0.2748260  -10.9809067  
O    3.8613854    1.0580653  -12.0353669  
C    3.7015553   -1.0740625  -10.8611155  
H    3.7658697   -3.9367580   -9.7624919  
H    1.6389478    0.8971283   -8.1560801  
H    2.8915640    2.5644781  -11.0071511  
H    4.3547004    0.5037143  -12.6476891  
H    4.2729201   -1.5896249  -11.6241456  
H    2.4198991   -3.9979867   -7.4272403  
C    1.5647265   -2.0539606   -5.3222415  
C    1.3415396   -1.5772678   -6.5740504  
C    0.2114929   -0.6825501   -6.4885493  
C   -0.2083727   -0.6770014   -5.0741691  
N    0.6518900   -1.5286394   -4.4202953  
C   -1.2456329    0.0471727   -4.5828766  
C   -1.9989042    0.8763051   -5.5089746  
O   -2.9500475    1.5652089   -5.1639546  
C   -1.5719694    0.8855377   -7.0114550  
O   -2.1988660    1.5795073   -7.8005473  
C   -0.4365508    0.0630003   -7.4214648  
H   -0.1472075    0.0751442   -8.4635094  
H    2.3191289   -2.7449942   -4.9827737  
H    0.6225287   -1.7350432   -3.4386730  
C    1.1243410    0.0099923   -0.7919003  
C    0.7474076    0.0234544   -2.1148543  
C   -0.6787381    0.0234490   -2.1414700  
C   -1.1201745    0.0098592   -0.7935546  
N    0.0000000    0.0000000    0.0000000  
C   -2.4730816    0.0063709   -0.4408240  
C   -3.3971958    0.0170982   -1.4675058  
O   -4.7313517    0.0146259   -1.1793471  
C   -2.9763648    0.0303504   -2.8186324  
O   -4.0166480    0.0395118   -3.7247624  
C   -1.6418562    0.0335260   -3.1673481  
H    1.4178717    0.0310972   -2.9571209  
H   -2.8160166   -0.0041111    0.5845966  
H   -5.1938818    0.0230867   -2.0274384  
H   -3.6464675    0.0482293   -4.6127343  
H    2.1062467    0.0052819   -0.3505407  
C    2.3971438    2.0127888    3.1728260  
C    1.9431056    1.6308205    1.9564670  
C    0.8496017    0.7127664    2.2356185  
C    0.7794028    0.6545384    3.7115134  
N    1.6840587    1.4146091    4.2663826  
C   -0.1885723   -0.1578550    4.3957118  
C   -1.0476298   -0.8789867    3.6398520  
O   -2.0015663   -1.6796266    4.1448486  
C   -1.0022026   -0.8410666    2.1483229  
O   -1.8147390   -1.5232959    1.5241687  
C    0.0000000    0.0000000    1.4700000  
H    2.3054237    1.9346118    0.9892483  
H   -0.2170646   -0.1815267    5.4753125  
H   -2.4487139   -2.0549881    3.3649027  
H    3.2048689    2.6911772    3.3971983  
