62

C    7.3114386   -3.2423727   -1.9280996  
C    8.6854156   -3.1960092   -1.8780486  
C    9.0669433   -1.8497496   -2.1548524  
C    7.8729645   -1.1140620   -2.3672295  
N    6.8258252   -1.9902023   -2.2240697  
C    7.8691961    0.2520297   -2.6648340  
C    9.0930233    0.8870816   -2.7492890  
O    9.1470382    2.2202788   -3.0368312  
C   10.2952620    0.1701035   -2.5410044  
O   11.4314473    0.9436107   -2.6598002  
C   10.2997445   -1.1776518   -2.2476412  
H    9.3330762   -4.0301629   -1.6689625  
H    6.9626607    0.8184179   -2.8279310  
H   10.0829476    2.4594636   -3.0481285  
H   12.1982169    0.3836304   -2.5045918  
H   11.2365424   -1.7002328   -2.0933812  
H    6.6394862   -4.0698751   -1.7775056  
C    4.3939408   -2.1065673   -1.5664979  
C    5.4031210   -1.6413498   -2.3470119  
C    4.8103423   -0.7457937   -3.3121173  
C    3.3627144   -0.7272473   -3.0278283  
N    3.1757285   -1.5729269   -1.9588325  
C    2.4521483    0.0014840   -3.7217481  
C    2.9297306    0.8221548   -4.8221798  
O    2.1884027    1.5142699   -5.5075341  
C    4.4587975    0.8175815   -5.1411450  
O    4.8725560    1.5043408   -6.0654969  
C    5.3421068   -0.0087721   -4.3221483  
H    6.3995022   -0.0062035   -4.5493762  
H    4.4376453   -2.7945223   -0.7378260  
H    2.2909017   -1.7703225   -1.5285258  
C    0.0000000    0.0000000    0.0000000  
C    1.0662923   -0.0000101   -0.8334270  
C    0.4961873    0.0000065   -2.1718887  
C   -0.9663854   -0.0000848   -1.9540250  
N   -1.2632773   -0.0000083   -0.6828660  
C   -1.8985359   -0.0000514   -3.0477261  
C   -1.3925770    0.0004566   -4.3020547  
O   -2.1456378    0.0005414   -5.4151314  
C    0.0786240    0.0009326   -4.5545000  
O    0.4683767    0.0012591   -5.7221100  
C    1.0143171    0.0008444   -3.4159031  
H    2.1107200    0.0000633   -0.5721865  
H   -2.9622181   -0.0003268   -2.8593381  
H   -1.5042265    0.0009697   -6.1484419  
C    0.0000000    0.0000000    1.4700000  
C    1.0521667    0.0011902    2.3562342  
C    0.4917218    0.0011957    3.6679131  
C   -0.9187428   -0.0003148    3.5178682  
N   -1.1833171    0.0009411    2.1707914  
C   -1.7951701   -0.0010350    4.6072090  
C   -1.2375837   -0.0005224    5.8710424  
O   -2.0474215   -0.0015360    6.9697579  
C    0.1673580    0.0013566    6.0411963  
O    0.5673524    0.0020687    7.3615553  
C    1.0325770    0.0023412    4.9669890  
H    2.0953057    0.0030649    2.0900562  
H   -2.0989778   -0.0102372    1.7591824  
H   -2.8710934   -0.0020419    4.4995513  
H   -1.4634884   -0.0006497    7.7393593  
H    1.5290710    0.0033153    7.3880045  
H    2.1042148    0.0039609    5.1284455  
