60

C    9.8590081   -0.7204035   -2.2439549  
C    8.8957170   -0.0032601   -2.9149553  
C    9.5607158    0.7233652   -3.9466490  
C   10.9403909    0.4069095   -3.8556712  
N   11.0871453   -0.4706401   -2.8102108  
C   11.8983616    0.9451005   -4.7202130  
C   11.4554476    1.8184295   -5.6945342  
O   12.3484283    2.3727038   -6.5653840  
C   10.0829858    2.1467909   -5.8010432  
O    9.8005104    3.0305752   -6.8220602  
C    9.1374061    1.6164399   -4.9483231  
H   11.9547156   -0.8791020   -2.5127828  
H   12.9513962    0.7080386   -4.6560186  
H   11.8374887    2.9434319   -7.1540046  
H    8.8533583    3.1993894   -6.8248648  
H    8.0932625    1.8867189   -5.0541173  
H    9.7673866   -1.3891972   -1.4053374  
C    6.6685705   -0.0005967    0.8976877  
C    7.6427397   -0.0013904   -0.0483931  
C    6.9825040   -0.0021114   -1.3324973  
C    5.5334436   -0.0016403   -1.0549829  
N    5.4101705   -0.0011223    0.3153062  
C    4.5679461   -0.0016854   -2.0086701  
C    4.9837200   -0.0024605   -3.4013893  
O    4.1902296   -0.0026237   -4.3334163  
C    6.5131876   -0.0032214   -3.7184584  
O    6.8752465   -0.0041838   -4.8872921  
C    7.4587612   -0.0028165   -2.6050208  
H    8.7028558   -0.0016449    0.1326238  
H    6.7640839    0.0001114    1.9713575  
H    4.5400777    0.0008356    0.8152884  
C    3.1301149   -0.0010311   -1.7028252  
C    2.5367768   -0.0002767   -0.4864665  
C    1.1089904    0.0001028   -0.7656183  
C    1.0177872   -0.0004148   -2.2415132  
N    2.1993578   -0.0011611   -2.7963820  
C   -0.2459209   -0.0002877   -2.9257118  
C   -1.3675319   -0.0000605   -2.1698524  
O   -2.6129313    0.0000867   -2.6748490  
C   -1.3083584    0.0000910   -0.6783232  
O   -2.3693261    0.0004206   -0.0541692  
C    0.0000000    0.0000000    0.0000000  
H    3.0096017   -0.0001007    0.4807525  
H   -0.2829630   -0.0004687   -4.0053125  
H   -3.1967441    0.0002094   -1.8949034  
C    2.5128556    2.1077716    2.9199648  
C    1.9592212    1.6432552    4.0696553  
C    0.8915788    0.7479214    3.6910360  
C    0.8684491    0.7287414    2.2159470  
N    1.8754542    1.5738793    1.8102719  
C    0.0000000    0.0000000    1.4700000  
C   -0.9772830   -0.8200135    2.1664417  
O   -1.8021297   -1.5120829    1.5842315  
C   -0.9711318   -0.8147624    3.7284083  
O   -1.7894187   -1.5009653    4.3257297  
C    0.0140216    0.0115358    4.4216297  
H    2.2638494    1.8988021    5.0689105  
H    0.0117648    0.0094386    5.5031631  
H    3.3327358    2.7953732    2.7900019  
H    2.1123206    1.7707734    0.8551938  
