62

C   -5.8235073    4.5612109   -0.5974188  
C   -7.0203016    4.3511485    0.0475820  
C   -7.3820969    2.9901264   -0.1789606  
C   -6.3591062    2.4145358   -0.9752715  
N   -5.4293225    3.3962094   -1.2128356  
C   -6.3858402    1.0803171   -1.3923268  
C   -7.4647832    0.3130968   -0.9980793  
O   -7.5409165   -0.9959375   -1.3770869  
C   -8.4955448    0.8694422   -0.2038317  
O   -9.5014156   -0.0225161    0.1059689  
C   -8.4699613    2.1856784    0.2077427  
H   -7.5660340    5.0885065    0.6110299  
H   -4.5842056    3.2792792   -1.7420667  
H   -8.3607813   -1.3418412   -1.0010054  
H  -10.1565614    0.4326526    0.6437515  
H   -9.2740155    2.5839345    0.8154978  
H   -5.2205993    5.4502700   -0.6683646  
C   -3.9706102    0.7078764   -2.0752017  
C   -3.2578655    0.0024282   -2.9908505  
C   -4.2092624   -0.7390177   -3.7845365  
C   -5.5442816   -0.4052874   -3.2524289  
N   -5.3302405    0.4758319   -2.2176802  
C   -6.7107872   -0.9038563   -3.7345062  
C   -6.6471652   -1.8312063   -4.8518739  
O   -7.6419115   -2.3348780   -5.3569422  
C   -5.2439265   -2.1989459   -5.4310929  
O   -5.1778108   -2.9788878   -6.3716141  
C   -4.0578612   -1.5968208   -4.8273160  
H   -7.6796177   -0.6460107   -3.3297931  
H   -3.0900589   -1.8564714   -5.2343345  
H   -3.6169908    1.3775867   -1.3081744  
C    0.0000000    0.0000000    0.0000000  
C    1.0521666   -0.0011982   -0.8862343  
C    0.4917215   -0.0011996   -2.1979132  
C   -0.9187429    0.0003215   -2.0478682  
N   -1.1833171   -0.0009323   -0.7007913  
C   -1.7951703    0.0010483   -3.1372089  
C   -1.2375841    0.0005313   -4.4010422  
O   -2.0474218    0.0015510   -5.4997578  
C    0.1673576   -0.0013585   -4.5711963  
O    0.5673520   -0.0020735   -5.8915554  
C    1.0325768   -0.0023493   -3.4969892  
H    2.0953056   -0.0030808   -0.6200564  
H   -2.0989778    0.0102529   -0.2891822  
H   -1.4634888    0.0006601   -6.2693595  
H    1.5290707   -0.0033271   -5.9180047  
H    2.1042146   -0.0039770   -3.6584456  
C    3.2798086   -0.0005857    2.9199648  
C    2.5571146   -0.0005566    4.0696553  
C    1.1637436   -0.0001548    3.6910360  
C    1.1336965    0.0000200    2.2159470  
N    2.4483514    0.0001428    1.8102719  
C    0.0000000    0.0000000    1.4700000  
C   -1.2757367    0.0000186    2.1664417  
O   -2.3524596    0.0000640    1.5842315  
C   -1.2676493    0.0000873    3.7284083  
O   -2.3355761    0.0004100    4.3257297  
C    0.0181563   -0.0001760    4.4216297  
H    2.9547357   -0.0006076    5.0689105  
H    0.0150794   -0.0003319    5.5031631  
H    4.3498549   -0.0008612    2.7900019  
H    2.7563627   -0.0012824    0.8551938  
