64

C    4.6651893   -0.6143174   -8.8773824  
C    5.4446768   -0.5422784  -10.0086111  
C    5.4068521    0.8120192  -10.4547581  
C    4.5817526    1.5259216   -9.5484028  
N    4.1463349    0.6296484   -8.6040918  
C    4.3194116    2.8928718   -9.6803661  
C    4.9008365    3.5511962  -10.7465425  
O    4.6782252    4.8863063  -10.9224349  
C    5.7267906    2.8561715  -11.6617246  
O    6.2312585    3.6514118  -12.6699143  
C    5.9858127    1.5075853  -11.5323096  
H    5.9743926   -1.3649067  -10.4576950  
H    3.6913381    3.4427245   -8.9930624  
H    5.1694891    5.1431227  -11.7136182  
H    6.7776055    3.1053630  -13.2434482  
H    6.6223804    1.0021359  -12.2490945  
H    4.4371216   -1.4549234   -8.2446703  
C    4.1935185   -0.7177393   -4.3920614  
C    3.1006054    0.0006263   -3.9654951  
C    2.6156860    0.7290725   -5.0919140  
C    3.4596598    0.4124174   -6.1870685  
N    4.4081829   -0.4669997   -5.7271260  
C    3.2765215    0.9521232   -7.4637702  
C    2.2220064    1.8272008   -7.6381678  
O    1.9974349    2.3830030   -8.8644086  
C    1.3691749    2.1557893   -6.5576472  
O    0.3653173    3.0414015   -6.8912722  
C    1.5494147    1.6239438   -5.2978137  
H    5.1380334   -0.8760155   -6.2821089  
H    1.2248027    2.9547944   -8.7676627  
H   -0.1646173    3.2102460   -6.1062470  
H    0.8800653    1.8944399   -4.4895553  
H    4.8377625   -1.3880253   -3.8492672  
C    3.2798083    0.0005857   -1.4499652  
C    2.5571142    0.0005565   -2.5996556  
C    1.1637432    0.0001548   -2.2210361  
C    1.1336964   -0.0000200   -0.7459473  
N    2.4483512   -0.0001428   -0.3402723  
C    0.0000000    0.0000000    0.0000000  
C   -1.2757368   -0.0000186   -0.6964415  
O   -2.3524598   -0.0000639   -0.1142311  
C   -1.2676497   -0.0000872   -2.2584083  
O   -2.3355766   -0.0004101   -2.8557295  
C    0.0181558    0.0001758   -2.9516296  
H    0.0150788    0.0003319   -4.0331631  
H    4.3498547    0.0008612   -1.3200026  
H    2.7563626    0.0012823    0.6148059  
C    2.5311839    2.1237619    3.0120429  
C    1.9795631    1.6616747    1.8395852  
C    0.9223175    0.7739173    2.1983588  
C    0.8753926    0.7337535    3.6154372  
N    1.8668922    1.5631002    4.0777464  
C   -0.0496243   -0.0427881    4.3197917  
C   -0.9437528   -0.7922060    3.5801400  
O   -1.8685244   -1.5680278    4.2172520  
C   -0.9124520   -0.7656372    2.1655264  
O   -1.8671164   -1.5663939    1.5732860  
C    0.0000000    0.0000000    1.4700000  
H    2.3005065    1.9304404    0.8477417  
H    2.0679347    1.7444845    5.0445261  
H   -0.0904770   -0.0778569    5.3997470  
H   -2.3849669   -2.0011402    3.5251786  
H   -1.7775064   -1.4909735    0.6183591  
H    3.3468514    2.8078103    3.1724291  
