60

C    0.2568233   -3.0304653  -10.4443813  
C    0.1658440   -2.3476348   -9.2536111  
C   -0.0833184   -0.9805700   -9.5755622  
C   -0.1348314   -0.8888127  -10.9900779  
N    0.0775553   -2.1510241  -11.4863962  
C   -0.3643595    0.3156317  -11.6619544  
C   -0.5454819    1.4480240  -10.8918509  
O   -0.7733202    2.6502957  -11.4965376  
C   -0.4972628    1.3767720   -9.4792590  
O   -0.6960326    2.5905898   -8.8543756  
C   -0.2706014    0.1889450   -8.8157701  
H    0.2677489   -2.7812898   -8.2735344  
H    0.0866108   -2.3980822  -12.4594642  
H   -0.4046481    0.3922471  -12.7397809  
H   -0.8700329    3.2987873  -10.7870523  
H   -0.6480115    2.4544623   -7.9031828  
H    0.4368296   -4.0749852  -10.6328880  
C    2.3617620   -2.0132534   -6.1309085  
C    1.9111467   -1.6311559   -4.9133181  
C    0.8167584   -0.7132544   -5.1894898  
C    0.7423551   -0.6552468   -6.6651875  
N    1.6455071   -1.4153047   -7.2225185  
C   -0.2276461    0.1569485   -7.3467464  
C   -1.0846242    0.8781011   -6.5885501  
O   -2.0400760    1.6785701   -7.0909459  
C   -1.0349500    0.8404012   -5.0971505  
O   -1.8457778    1.5226373   -4.4707857  
C   -0.0307352   -0.0004646   -4.4215603  
H    2.2762462   -1.9347703   -3.9470904  
H   -2.4850415    2.0539986   -6.3097853  
H    3.1689154   -2.6915916   -6.3574800  
C    3.2573670   -0.0002920   -1.5109380  
C    2.5379468   -0.0001709   -0.3591961  
C    1.1435043    0.0000332   -0.7338500  
C    1.1092609   -0.0000082   -2.2088477  
N    2.4227562    0.0001909   -2.6182613  
C   -0.0265532   -0.0002522   -2.9515663  
C   -1.3003035   -0.0002639   -2.2514981  
O   -2.3786784   -0.0004131   -2.8306429  
C   -1.2877725    0.0000312   -0.6895608  
O   -2.3539958    0.0003307   -0.0892036  
C    0.0000000    0.0000000    0.0000000  
H    2.9384091   -0.0000369    0.6389239  
H    4.3270394   -0.0004765   -1.6439446  
H    2.7280494   -0.0013406   -3.5742113  
C    2.5528530    2.1414826    2.8079335  
C    2.0663498    1.7338582    4.0032312  
C    0.9804344    0.8229586    3.6752840  
C    0.9495562    0.7966882    2.1971295  
N    1.8690446    1.5676019    1.6831036  
C    0.0000000    0.0000000    1.4700000  
C   -0.8785127   -0.7372425    2.1869543  
O   -1.8187535   -1.5261249    1.6395491  
C   -0.8723269   -0.7321790    3.6796354  
O   -1.7010379   -1.4274584    4.2670412  
C    0.1115397    0.0933559    4.4024240  
H    2.4028853    2.0163452    4.9860947  
H   -2.2861435   -1.9184361    2.3990168  
H    0.0832434    0.0693689    5.4835595  
H    3.3664920    2.8238276    2.6198634  
