64

C   -0.0886282   -0.6346068   -9.5850530  
C    0.6315667   -0.6128407  -10.7569370  
C    0.5893726    0.7261486  -11.2467609  
C   -0.1771554    1.4829548  -10.3239362  
N   -0.5750655    0.6258366   -9.3281279  
C   -0.4269309    2.8486631  -10.4889892  
C    0.1070779    3.4616099  -11.6058189  
O   -0.1057668    4.7934007  -11.8156827  
C    0.8742613    2.7233588  -12.5381454  
O    1.3363697    3.4762840  -13.5978176  
C    1.1208456    1.3759684  -12.3760948  
H    1.1255385   -1.4583067  -11.2043435  
H   -1.0104669    3.4310830   -9.7893649  
H    0.3469883    5.0157621  -12.6395958  
H    1.8443010    2.9027695  -14.1797892  
H    1.7119412    0.8367990  -13.1071074  
H   -0.2950098   -1.4498143   -8.9128905  
C   -0.2341631   -0.6333943   -5.1705301  
C   -1.2456329    0.0471727   -4.5828766  
C   -1.8647654    0.8033909   -5.6605167  
C   -1.0789139    0.4509138   -6.8625074  
N   -0.1217520   -0.3910230   -6.5814860  
C   -1.3794716    1.0000396   -8.1560343  
C   -2.4181305    1.8618048   -8.2448126  
O   -2.8101923    2.4494763   -9.3880398  
C   -3.2305035    2.2369725   -7.0500487  
O   -4.1614903    3.0272888   -7.2045956  
C   -2.9022834    1.6602244   -5.7341623  
H   -3.5697153    3.0041715   -9.1338933  
H   -3.5149163    1.9572673   -4.8935214  
H    0.4669732   -1.3104608   -4.7090521  
C    1.1243410    0.0099923   -0.7919003  
C    0.7474076    0.0234544   -2.1148543  
C   -0.6787381    0.0234490   -2.1414700  
C   -1.1201745    0.0098592   -0.7935546  
N    0.0000000    0.0000000    0.0000000  
C   -2.4730816    0.0063709   -0.4408240  
C   -3.3971958    0.0170982   -1.4675058  
O   -4.7313517    0.0146259   -1.1793471  
C   -2.9763648    0.0303504   -2.8186324  
O   -4.0166480    0.0395118   -3.7247624  
C   -1.6418562    0.0335260   -3.1673481  
H    1.4178717    0.0310972   -2.9571209  
H   -2.8160166   -0.0041111    0.5845966  
H   -5.1938818    0.0230867   -2.0274384  
H   -3.6464675    0.0482293   -4.6127343  
H    2.1062467    0.0052819   -0.3505407  
C    2.5311839    2.1237619    3.0120429  
C    1.9795631    1.6616747    1.8395852  
C    0.9223175    0.7739173    2.1983588  
C    0.8753926    0.7337535    3.6154372  
N    1.8668922    1.5631002    4.0777464  
C   -0.0496243   -0.0427881    4.3197917  
C   -0.9437528   -0.7922060    3.5801400  
O   -1.8685244   -1.5680278    4.2172520  
C   -0.9124520   -0.7656372    2.1655264  
O   -1.8671164   -1.5663939    1.5732860  
C    0.0000000    0.0000000    1.4700000  
H    2.3005065    1.9304404    0.8477417  
H    2.0679347    1.7444845    5.0445261  
H   -0.0904770   -0.0778569    5.3997470  
H   -2.3849669   -2.0011402    3.5251786  
H   -1.7775064   -1.4909735    0.6183591  
H    3.3468514    2.8078103    3.1724291  
