62

C    9.1590289   -0.0046807    0.4781866  
C    9.8668028   -0.0088323    1.6578082  
C   11.2508710   -0.0103241    1.3129177  
C   11.3268702   -0.0066265   -0.1034639  
N   10.0389519   -0.0052068   -0.5787356  
C   12.5416405   -0.0065784   -0.7956505  
C   13.7008065   -0.0100245   -0.0443206  
O   14.9142507   -0.0097901   -0.6692741  
C   13.6455401   -0.0141175    1.3698030  
O   14.8855579   -0.0176445    1.9745251  
C   12.4474923   -0.0144407    2.0533285  
H    9.4382413   -0.0116768    2.6453914  
H    9.7780964    0.0079310   -1.5481493  
H   12.6063239   -0.0039148   -1.8750074  
H   15.5812800   -0.0127971    0.0295306  
H   14.7588446   -0.0202521    2.9282237  
H   12.4366028   -0.0178036    3.1370020  
C    6.7370867   -0.0041642    1.2348614  
C    5.4910176   -0.0032946    0.6950595  
C    5.6537434   -0.0009387   -0.7396357  
C    7.1071781   -0.0005331   -0.9932447  
N    7.7077096   -0.0021559    0.2445957  
C    7.6723922    0.0010932   -2.2270335  
C    6.7903706    0.0027669   -3.3822698  
O    7.2023938    0.0043595   -4.5348910  
C    5.2477320    0.0026236   -3.1371780  
O    4.4952269    0.0043300   -4.1020584  
C    4.7577216    0.0005129   -1.7610467  
H    4.5636981   -0.0040178    1.2397542  
H    8.7410248    0.0012322   -2.3911479  
H    7.0279705   -0.0058863    2.2727791  
C    3.3041270    0.0001177   -1.5420435  
C    2.5845370   -0.0004780   -0.3695856  
C    1.2040004   -0.0000007   -0.7283590  
C    1.1422370    0.0006038   -2.1454373  
N    2.4348634    0.0026110   -2.6077469  
C   -0.0655187    0.0008799   -2.8497918  
C   -1.2321769    0.0002326   -2.1101398  
O   -2.4392822    0.0001149   -2.7472517  
C   -1.1911211   -0.0000007   -0.6955263  
O   -2.4371526   -0.0002319   -0.1032858  
C    0.0000000    0.0000000    0.0000000  
H    3.0031534   -0.0000661    0.6222578  
H    2.7054623   -0.0071098   -3.5745266  
H   -0.1193555    0.0014846   -3.9297472  
H   -3.1132992   -0.0000646   -2.0551783  
H   -2.3200279   -0.0004070    0.8516411  
C    0.0000000    0.0000000    1.4700000  
C    1.0541688    0.0001722    2.3260392  
C    0.5103138    0.0000454    3.6635956  
C   -0.9576371   -0.0002459    3.5155732  
N   -1.2018458    0.0001392    2.1615969  
C   -1.8348311   -0.0008317    4.5510609  
C   -1.2972847   -0.0009736    5.9014604  
O   -2.0050672   -0.0014265    6.9001319  
C    0.2542623   -0.0004184    6.0817573  
O    0.7184670   -0.0002256    7.2139121  
C    1.0974552   -0.0000873    4.8889129  
H    2.0940752    0.0005483    2.0517982  
H   -2.9081052   -0.0011668    4.4207061  
H    2.1707277    0.0000911    5.0223670  
H   -2.1128194   -0.0014912    1.7406791  
