64

C    0.2025362   -0.8895189   -9.5456102  
C   -0.1830258    0.1780072   -8.7683087  
C   -0.1810546    1.3288579   -9.6110063  
C    0.2171672    0.8983409  -10.9025164  
N    0.4441878   -0.4534827  -10.8273379  
C    0.3295660    1.7707642  -11.9892705  
C    0.0342945    3.1019905  -11.7682972  
O    0.1272818    3.9968840  -12.7947144  
C   -0.3643776    3.5508357  -10.4867293  
O   -0.6231860    4.9046689  -10.4275892  
C   -0.4752149    2.6907763   -9.4140983  
H    0.7289002   -1.0375945  -11.5926703  
H    0.6326968    1.4489378  -12.9760535  
H   -0.1182498    4.8571138  -12.4300476  
H   -0.8858285    5.1251317   -9.5286903  
H   -0.7827511    3.0636974   -8.4441345  
H    0.3256651   -1.9272176   -9.2868060  
C    1.6071931   -2.0691457   -5.4061220  
C    0.7600336   -1.6164454   -4.4213122  
C   -0.1612455   -0.7224870   -5.0431507  
C    0.1755313   -0.6690405   -6.4199772  
N    1.2548209   -1.4967874   -6.6059504  
C   -0.5252820    0.1165513   -7.3400284  
C   -1.5855711    0.8615301   -6.8615194  
O   -2.3042728    1.6457775   -7.7167616  
C   -1.9367273    0.8217439   -5.4911462  
O   -3.0155713    1.6195947   -5.1704052  
C   -1.2456329    0.0471727   -4.5828766  
H    0.8017170   -1.8952901   -3.3823217  
H    1.7089811   -1.6697419   -7.4844757  
H   -2.9880780    2.0738672   -7.1853339  
H   -3.1866799    1.5350660   -4.2274413  
H    2.4357996   -2.7539194   -5.3473447  
C    1.1243410    0.0099923   -0.7919003  
C    0.7474076    0.0234544   -2.1148543  
C   -0.6787381    0.0234490   -2.1414700  
C   -1.1201745    0.0098592   -0.7935546  
N    0.0000000    0.0000000    0.0000000  
C   -2.4730816    0.0063709   -0.4408240  
C   -3.3971958    0.0170982   -1.4675058  
O   -4.7313517    0.0146259   -1.1793471  
C   -2.9763648    0.0303504   -2.8186324  
O   -4.0166480    0.0395118   -3.7247624  
C   -1.6418562    0.0335260   -3.1673481  
H    1.4178717    0.0310972   -2.9571209  
H   -2.8160166   -0.0041111    0.5845966  
H   -5.1938818    0.0230867   -2.0274384  
H   -3.6464675    0.0482293   -4.6127343  
H    2.1062467    0.0052819   -0.3505407  
C    0.8400945    0.7047457    2.2710304  
C    0.0000000    0.0000000    1.4700000  
C   -0.8844236   -0.7423113    2.3369512  
C   -0.4878984   -0.4098547    3.7186280  
N    0.5629682    0.4714286    3.6095011  
C   -1.0836927   -0.9095027    4.8308716  
C   -2.1891196   -1.8367527    4.6554461  
O   -2.7906899   -2.3413415    5.5944904  
C   -2.6257283   -2.2031529    3.2011665  
O   -3.5549479   -2.9829990    3.0410059  
C   -1.9068976   -1.5999348    2.0816745  
H   -0.7774656   -0.6525820    5.8354244  
H   -2.2155208   -1.8586617    1.0779135  
H    1.6384792    1.3747609    1.9961646  
H    1.0518368    0.8833920    4.3830260  
