64

C    2.1639591   -1.8274875   -8.4512954  
C    3.1199676   -2.6340457   -9.0239905  
C    2.9626628   -2.5268921  -10.4376282  
C    1.8860726   -1.6331006  -10.6700427  
N    1.4226225   -1.2285525   -9.4427812  
C    1.4505529   -1.2913502  -11.9539120  
C    2.1141259   -1.8620418  -13.0226312  
O    1.7301188   -1.5626212  -14.2977383  
C    3.1903491   -2.7563571  -12.8110622  
O    3.7478748   -3.2406969  -13.9763620  
C    3.6203616   -3.0941643  -11.5447682  
H    3.8412032   -3.2275737   -8.4886978  
H    0.6681700   -0.5837580   -9.2910509  
H    0.6305641   -0.6108917  -12.1377516  
H    2.3154048   -2.0605562  -14.8832006  
H    4.4668204   -3.8365982  -13.7447963  
H    4.4474010   -3.7821747  -11.4139037  
C    2.5409786   -2.1228913   -5.9711679  
C    1.9926482   -1.6610300   -4.7970794  
C    0.9342951   -0.7733298   -5.1527156  
C    0.8833348   -0.7329668   -6.5696486  
N    1.8736002   -1.5621447   -7.0348961  
C   -0.0437619    0.0435811   -7.2712567  
C   -0.9358594    0.7928002   -6.5289556  
O   -1.8625197    1.5686188   -7.1633227  
C   -0.9005316    0.7660310   -5.1144410  
O   -1.8535897    1.5666042   -4.5193714  
C    0.0139741    0.0003876   -4.4216236  
H    2.3164396   -1.9299054   -3.8061918  
H   -0.0876906    0.0788013   -8.3510857  
H   -2.3770355    2.0015783   -6.4697198  
H   -1.7612551    1.4910552   -3.5647142  
H    3.3562569   -2.8068330   -6.1339727  
C    3.2798085    0.0005853   -1.4499648  
C    2.5571144    0.0005562   -2.5996554  
C    1.1637436    0.0001546   -2.2210360  
C    1.1336965   -0.0000201   -0.7459470  
N    2.4483513   -0.0001430   -0.3402717  
C    0.0000000    0.0000000    0.0000000  
C   -1.2757367   -0.0000188   -0.6964414  
O   -2.3524597   -0.0000640   -0.1142313  
C   -1.2676494   -0.0000875   -2.2584081  
O   -2.3355762   -0.0004102   -2.8557294  
C    0.0181562    0.0001757   -2.9516296  
H    2.9547357    0.0006072   -3.5989105  
H    4.3498550    0.0008609   -1.3200021  
H    2.7563627    0.0012824    0.6148063  
C    2.5285572    2.1210227    2.9438989  
C    1.9331703    1.6216660    4.0790748  
C    0.8903039    0.7472258    3.6520102  
C    0.8972198    0.7527806    2.2336141  
N    1.9028376    1.5986179    1.8362361  
C    0.0000000    0.0000000    1.4700000  
C   -0.9207814   -0.7726952    2.1506477  
O   -1.8198395   -1.5274828    1.4542253  
C   -0.9436862   -0.7911793    3.5655508  
O   -1.9197945   -1.6098497    4.0950179  
C   -0.0590329   -0.0485852    4.3195194  
H    2.2150357    1.8593692    5.0905303  
H    2.1533708    1.7953814    0.8841339  
H   -2.3621246   -1.9821033    2.1118817  
H   -1.8668290   -1.5649508    5.0545920  
H   -0.1007624   -0.0827977    5.4019087  
H    3.3491200    2.8096064    2.8367138  
