64

C    7.5638862   -0.3806665   -4.7964934  
C    8.9300596   -0.2337160   -4.7298122  
C    9.2139593    1.1405885   -4.9853255  
C    7.9712047    1.7889284   -5.2024510  
N    6.9902307    0.8360833   -5.0824788  
C    7.8696417    3.1548559   -5.4830181  
C    9.0440054    3.8795474   -5.5452362  
O    9.0023871    5.2168025   -5.8154770  
C   10.2936560    3.2505282   -5.3318721  
O   11.3707533    4.1072759   -5.4277234  
C   10.3946213    1.9029953   -5.0553091  
H    9.6353371   -1.0205126   -4.5235905  
H    6.9255164    3.6549267   -5.6496228  
H    9.9181195    5.5245235   -5.8128506  
H   12.1751159    3.6033857   -5.2705601  
H   11.3657817    1.4489582   -4.8966402  
H    6.9533756   -1.2574252   -4.6640960  
C    3.4490067   -0.7155100   -2.8370507  
C    4.7273360   -0.4630731   -3.2782042  
C    4.6191140    0.4538380   -4.3654770  
C    3.2387464    0.7274664   -4.5433513  
N    2.5562217   -0.0001543   -3.6003001  
C    2.7607144    1.5946843   -5.5303701  
C    3.6931623    2.1968774   -6.3526125  
O    3.2810596    3.0528073   -7.3326983  
C    5.0747446    1.9362386   -6.1910118  
O    5.8764709    2.6119402   -7.0876748  
C    5.5470307    1.0806102   -5.2176811  
H    5.6270676   -0.8884229   -2.8676513  
H    1.7099225    1.8073103   -5.6711867  
H    4.0796771    3.3565257   -7.7835091  
H    6.7932960    2.3804695   -6.9103158  
H    3.1033416   -1.3503469   -2.0392681  
C    0.0000000    0.0000000    0.0000000  
C    1.0541688   -0.0001719   -0.8560391  
C    0.5103141   -0.0000449   -2.1935955  
C   -0.9576367    0.0002461   -2.0455733  
N   -1.2018459   -0.0001392   -0.6915970  
C   -1.8348306    0.0008319   -3.0810611  
C   -1.2972842    0.0009739   -4.4314605  
O   -2.0050664    0.0014267   -5.4301321  
C    0.2542628    0.0004190   -4.6117571  
O    0.7184677    0.0002263   -5.7439119  
C    1.0974556    0.0000880   -3.4189127  
H    2.0940752   -0.0005479   -0.5817978  
H   -2.9081050    0.0011669   -2.9507065  
H   -2.1128195    0.0014911   -0.2706793  
C    3.3003543   -0.0005276    2.9438989  
C    2.5232812   -0.0003497    4.0790748  
C    1.1623199    0.0001319    3.6520102  
C    1.1711883   -0.0000583    2.2336141  
N    2.4852299    0.0014920    1.8362361  
C    0.0000000    0.0000000    1.4700000  
C   -1.2020384   -0.0000520    2.1506477  
O   -2.3759250   -0.0003494    1.4542253  
C   -1.2314658    0.0005113    3.5655508  
O   -2.5054393    0.0008037    4.0950179  
C   -0.0764518    0.0007272    4.3195194  
H    2.8919952    0.0005619    5.0905303  
H    2.8036267   -0.0088181    0.8841339  
H   -3.0835639   -0.0000348    2.1118817  
H   -2.4360050    0.0011527    5.0545920  
H   -0.1304098    0.0013421    5.4019087  
H    4.3715549   -0.0004895    2.8367138  
