64

C    4.2614386    0.1603187   -6.7140578  
C    5.4476705   -0.4860262   -6.9739802  
C    5.8712785   -0.0728323   -8.2718347  
C    4.8954283    0.8339349   -8.7590881  
N    3.9309356    0.9515365   -7.7892746  
C    4.9889107    1.4432216  -10.0140070  
C    6.0876755    1.1316863  -10.7910787  
O    6.2287673    1.6985309  -12.0246888  
C    7.0717649    0.2289896  -10.3225464  
O    8.1046926    0.0213389  -11.2132138  
C    6.9800535   -0.3726670   -9.0847572  
H    5.9457681   -1.1718965   -6.3102979  
H    3.1165827    1.5357492   -7.8484893  
H    4.2484689    2.1350710  -10.3912243  
H    7.0513938    1.3504563  -12.3926489  
H    8.7250625   -0.6000527  -10.8199997  
H    7.7493324   -1.0601209   -8.7529508  
C    4.5582359   -2.0922257   -2.8633939  
C    4.7995864   -1.5811256   -4.1175842  
C    3.7180585   -0.7032882   -4.4246651  
C    2.8401176   -0.7189697   -3.3107077  
N    3.3790681   -1.5738355   -2.3815396  
C    1.6628945    0.0339172   -3.2649299  
C    1.3667033    0.8171317   -4.3635760  
O    0.2298885    1.5725146   -4.3714926  
C    2.2299646    0.8458163   -5.4846354  
O    1.7963533    1.6742724   -6.4990247  
C    3.3913531    0.1031249   -5.5305970  
H    5.6499298   -1.8133769   -4.7356203  
H    2.9820495   -1.7789141   -1.4824843  
H    0.2153766    2.0351560   -5.2194412  
H    2.4353779    1.6358690   -7.2172006  
H    5.1331932   -2.7866332   -2.2750226  
C    1.1243410    0.0100105   -0.7919003  
C    0.7474072    0.0234665   -2.1148542  
C   -0.6787384    0.0234379   -2.1414698  
C   -1.1201748    0.0098411   -0.7935547  
N    0.0000000    0.0000000    0.0000000  
C   -2.4730818    0.0063307   -0.4408240  
C   -3.3971962    0.0170429   -1.4675058  
O   -4.7313520    0.0145490   -1.1793468  
C   -2.9763654    0.0303020   -2.8186325  
O   -4.0166484    0.0394464   -3.7247625  
C   -1.6418567    0.0334992   -3.1673480  
H   -2.8160166   -0.0041569    0.5845966  
H   -5.1938823    0.0230023   -2.0274386  
H   -3.6464680    0.0481700   -4.6127343  
H   -1.3497475    0.0435647   -4.2109234  
H    2.1062466    0.0053162   -0.3505405  
C    2.3971438    2.0127888    3.1728260  
C    1.9431056    1.6308205    1.9564670  
C    0.8496017    0.7127664    2.2356185  
C    0.7794028    0.6545384    3.7115134  
N    1.6840587    1.4146091    4.2663826  
C   -0.1885723   -0.1578550    4.3957118  
C   -1.0476298   -0.8789867    3.6398520  
O   -2.0015663   -1.6796266    4.1448486  
C   -1.0022026   -0.8410666    2.1483229  
O   -1.8147390   -1.5232959    1.5241687  
C    0.0000000    0.0000000    1.4700000  
H    2.3054237    1.9346118    0.9892483  
H   -0.2170646   -0.1815267    5.4753125  
H   -2.4487139   -2.0549881    3.3649027  
H    3.2048689    2.6911772    3.3971983  
