60

C    1.4751621   -0.0000335   -7.8706057  
C    0.3179252    0.0009696   -7.1267848  
C   -0.7699832    0.0010942   -8.0493122  
C   -0.2104345   -0.0001542   -9.3527039  
N    1.1547325    0.0011365   -9.2080185  
C   -0.9926676   -0.0006985  -10.5115401  
C   -2.3647571   -0.0002764  -10.3516964  
O   -3.1755961   -0.0011266  -11.4496730  
C   -2.9418889    0.0013416   -9.0595147  
O   -4.3214861    0.0019934   -9.0669256  
C   -2.1708088    0.0021527   -7.9158537  
H    0.2644546    0.0026463   -6.0515495  
H    1.8181976   -0.0098749   -9.9614592  
H   -0.5723331   -0.0015054  -11.5077922  
H   -4.0832321   -0.0003412  -11.1188243  
H   -4.6305314    0.0030603   -8.1558310  
H   -2.6412828    0.0035738   -6.9395701  
C    3.2973507   -0.0000930   -3.8752373  
C    4.6090968    0.0000005   -4.2265165  
C    4.6584749   -0.0001365   -5.6695683  
C    3.2579284   -0.0002896   -6.1335299  
N    2.4824025   -0.0006539   -4.9971105  
C    2.8797120   -0.0000495   -7.4368546  
C    3.9215751    0.0001629   -8.4502930  
O    3.6829943    0.0003252   -9.6508680  
C    5.4116105    0.0000756   -7.9816786  
O    6.2974484   -0.0000538   -8.8258060  
C    5.6945664    0.0000910   -6.5485741  
H    5.4465358   -0.0000337   -3.5517507  
H    6.7288538    0.0002356   -6.2323876  
H    1.4789637    0.0007241   -4.9846260  
C    3.3321175    0.0004715   -1.3379331  
C    2.6974186    0.0000117   -2.5332308  
C    1.2800441   -0.0002117   -2.2052838  
C    1.2395036    0.0000644   -0.7271292  
N    2.4394065    0.0005460   -0.2131033  
C    0.0000000    0.0000000    0.0000000  
C   -1.1468701    0.0000635   -0.7169542  
O   -2.3742199    0.0000073   -0.1695491  
C   -1.1388766    0.0001607   -2.2096354  
O   -2.2206227    0.0000905   -2.7970412  
C    0.1454526    0.0001817   -2.9324239  
H   -2.9844344    0.0001026   -0.9290168  
H    0.1083579    0.0003683   -4.0135594  
H    4.3940038    0.0007619   -1.1498630  
C    0.8681109    0.7263879    2.2709268  
C    0.6127770    0.5096195    3.5869401  
C   -0.4920590   -0.4175482    3.6542670  
C   -0.8620974   -0.7254003    2.2596025  
N    0.0000000    0.0000000    1.4700000  
C   -1.8641242   -1.5660088    1.8976294  
C   -2.6293522   -2.2103885    2.9520183  
O   -3.5512764   -2.9839180    2.7283916  
C   -2.2549728   -1.8987399    4.4361073  
O   -2.8923672   -2.4351063    5.3323774  
C   -1.1543735   -0.9755647    4.7012123  
H    1.1382914    0.9492124    4.4159191  
H   -2.1192137   -1.7782617    0.8686553  
H   -0.9013378   -0.7652422    5.7314848  
H    1.6172880    1.3558399    1.8188057  
