62

C    8.1095235   -0.0125747   -1.0772940  
C    8.4329404   -0.0146904    0.2598162  
C    9.8567654   -0.0312514    0.3437649  
C   10.3520075   -0.0384209   -0.9853744  
N    9.2646962   -0.0286989   -1.8233939  
C   11.7179133   -0.0543970   -1.2834263  
C   12.5999466   -0.0629906   -0.2203547  
O   13.9445250   -0.0782854   -0.4546354  
C   12.1251591   -0.0564215    1.1128182  
O   13.1281020   -0.0668849    2.0600977  
C   10.7777945   -0.0409348    1.4075962  
H    7.7291917   -0.0065409    1.0744718  
H    9.3051726   -0.0201532   -2.8265237  
H   12.1017727   -0.0600763   -2.2942785  
H   14.3725540   -0.0823401    0.4114135  
H   12.7225441   -0.0614880    2.9325063  
H   10.4439794   -0.0364131    2.4386274  
C    5.5836005   -0.0008282   -1.0808163  
C    4.5679461   -0.0016854   -2.0086701  
C    5.1807168   -0.0015774   -3.2967354  
C    6.5840020   -0.0009183   -3.0900574  
N    6.7941555    0.0014752   -1.7334266  
C    7.5035533   -0.0009455   -4.1432502  
C    6.9972727   -0.0019578   -5.4284959  
O    7.8506655   -0.0023820   -6.4937341  
C    5.6003149   -0.0022512   -5.6550446  
O    5.2537729   -0.0028622   -6.9904296  
C    4.6925710   -0.0019514   -4.6165225  
H    8.5742737   -0.0003012   -3.9923864  
H    7.2981735   -0.0027858   -7.2862092  
H    4.2938967   -0.0030529   -7.0555555  
H    3.6282967   -0.0020065   -4.8209694  
H    5.5402815   -0.0002318   -0.0051389  
C    3.1301149   -0.0010311   -1.7028252  
C    2.5367768   -0.0002767   -0.4864665  
C    1.1089904    0.0001028   -0.7656183  
C    1.0177872   -0.0004148   -2.2415132  
N    2.1993578   -0.0011611   -2.7963820  
C   -0.2459209   -0.0002877   -2.9257118  
C   -1.3675319   -0.0000605   -2.1698524  
O   -2.6129313    0.0000867   -2.6748490  
C   -1.3083584    0.0000910   -0.6783232  
O   -2.3693261    0.0004206   -0.0541692  
C    0.0000000    0.0000000    0.0000000  
H    3.0096017   -0.0001007    0.4807525  
H   -0.2829630   -0.0004687   -4.0053125  
H   -3.1967441    0.0002094   -1.8949034  
C    0.8400945    0.7047457    2.2710304  
C    0.0000000    0.0000000    1.4700000  
C   -0.8844236   -0.7423113    2.3369512  
C   -0.4878984   -0.4098547    3.7186280  
N    0.5629682    0.4714286    3.6095011  
C   -1.0836927   -0.9095027    4.8308716  
C   -2.1891196   -1.8367527    4.6554461  
O   -2.7906899   -2.3413415    5.5944904  
C   -2.6257283   -2.2031529    3.2011665  
O   -3.5549479   -2.9829990    3.0410059  
C   -1.9068976   -1.5999348    2.0816745  
H   -0.7774656   -0.6525820    5.8354244  
H   -2.2155208   -1.8586617    1.0779135  
H    1.6384792    1.3747609    1.9961646  
H    1.0518368    0.8833920    4.3830260  
