64

C    4.5104720   -0.9970806   -8.9022113  
C    4.8087232   -0.5832291  -10.1798029  
C    4.5552803    0.8194632  -10.2329162  
C    4.1006997    1.2092567   -8.9470927  
N    4.0834643    0.0818329   -8.1639980  
C    3.7557260    2.5275998   -8.6344362  
C    3.8720523    3.4696644   -9.6380096  
O    3.5487634    4.7717553   -9.3868990  
C    4.3234096    3.1001634  -10.9274139  
O    4.3847374    4.1524091  -11.8175614  
C    4.6636500    1.7997251  -11.2366421  
H    5.1640735   -1.2148602  -10.9758951  
H    3.4084699    2.8311007   -7.6564268  
H    3.6994410    5.2541615  -10.2102135  
H    4.6984833    3.8175579  -12.6631632  
H    5.0060848    1.5466697  -12.2332271  
H    4.5671885   -1.9767691   -8.4595459  
C    5.7490607   -2.1284786   -4.7144778  
C    4.8671664   -1.6645343   -3.7660657  
C    3.9696975   -0.7771949   -4.4307298  
C    4.3561281   -0.7391882   -5.7949708  
N    5.4407941   -1.5693622   -5.9325542  
C    3.6896895    0.0363916   -6.7484506  
C    2.6133592    0.7870479   -6.3169351  
O    1.9266966    1.5620107   -7.2062836  
C    2.2128025    0.7626344   -4.9598146  
O    1.1236813    1.5644120   -4.6872124  
C    2.8699641   -0.0020530   -4.0185824  
H    4.8709993   -1.9318255   -2.7232165  
H    5.9263183   -1.7522465   -6.7920894  
H    1.2244403    1.9962427   -6.7047423  
H    0.9184891    1.4904381   -3.7501808  
H    6.5744611   -2.8128715   -4.6181479  
C    3.2573670   -0.0002921   -1.5109382  
C    2.5379468   -0.0001711   -0.3591962  
C    1.1435043    0.0000330   -0.7338498  
C    1.1092608   -0.0000085   -2.2088474  
N    2.4227562    0.0001906   -2.6182610  
C   -0.0265533   -0.0002525   -2.9515663  
C   -1.3003033   -0.0002641   -2.2514979  
O   -2.3786785   -0.0004132   -2.8306425  
C   -1.2877724    0.0000310   -0.6895608  
O   -2.3539956    0.0003306   -0.0892035  
C    0.0000000    0.0000000    0.0000000  
H    2.9384091   -0.0000370    0.6389240  
H   -0.0296290   -0.0004088   -4.0327231  
H    4.3270394   -0.0004767   -1.6439445  
C    2.5311839    2.1237619    3.0120429  
C    1.9795631    1.6616747    1.8395852  
C    0.9223175    0.7739173    2.1983588  
C    0.8753926    0.7337535    3.6154372  
N    1.8668922    1.5631002    4.0777464  
C   -0.0496243   -0.0427881    4.3197917  
C   -0.9437528   -0.7922060    3.5801400  
O   -1.8685244   -1.5680278    4.2172520  
C   -0.9124520   -0.7656372    2.1655264  
O   -1.8671164   -1.5663939    1.5732860  
C    0.0000000    0.0000000    1.4700000  
H    2.3005065    1.9304404    0.8477417  
H    2.0679347    1.7444845    5.0445261  
H   -0.0904770   -0.0778569    5.3997470  
H   -2.3849669   -2.0011402    3.5251786  
H   -1.7775064   -1.4909735    0.6183591  
H    3.3468514    2.8078103    3.1724291  
