62

C    1.1243405    0.0099912   -0.7919011  
C    0.7474067    0.0234534   -2.1148549  
C   -0.6787392    0.0234491   -2.1414699  
C   -1.1201751    0.0098600   -0.7935544  
N    0.0000000    0.0000000    0.0000000  
C   -2.4730819    0.0063728   -0.4408235  
C   -3.3971964    0.0171005   -1.4675046  
O   -4.7313522    0.0146296   -1.1793451  
C   -2.9763662    0.0303526   -2.8186311  
O   -4.0166493    0.0395145   -3.7247609  
C   -1.6418577    0.0335267   -3.1673478  
H    1.4178701    0.0310953   -2.9571214  
H   -2.8160167   -0.0041088    0.5845978  
H   -5.1938829    0.0230908   -2.0274364  
H   -3.6464695    0.0482315   -4.6127330  
H    2.1062461    0.0052800   -0.3505414  
C    1.5731279   -2.0887113   -5.2038816  
C    1.4268543   -1.6686911   -6.4820702  
C    0.2928339   -0.7579339   -6.4501487  
C   -0.1353193   -0.7453028   -5.0348361  
N    0.6115040   -1.5234452   -4.2994868  
C   -1.2456350    0.0471728   -4.5828762  
C   -1.8983059    0.7934183   -5.5029156  
O   -2.9512088    1.5797315   -5.2215851  
C   -1.4900133    0.8021949   -6.9386669  
O   -2.1296486    1.5051417   -7.7209414  
C   -0.3478302   -0.0192593   -7.3774781  
H    2.0158241   -1.9429533   -7.3405402  
H   -3.1965514    1.9803418   -6.0750904  
H    2.3058872   -2.7749763   -4.8100823  
C    0.3974000   -1.0274457   -9.5656729  
C    0.0111349    0.0270769   -8.8022229  
C    0.0223545    1.1914417   -9.6560168  
C    0.4498562    0.7254812  -10.9890258  
N    0.6618723   -0.6284243  -10.8670473  
C    0.5861474    1.5261940  -12.0762189  
C    0.2923846    2.9414066  -11.9232085  
O    0.3851298    3.7441566  -12.8426056  
C   -0.1617465    3.4568409  -10.5203904  
O   -0.4115345    4.6463722  -10.3793906  
C   -0.2721048    2.4974887   -9.4243447  
H    0.9009321    1.1642425  -13.0451416  
H   -0.5873665    2.8623892   -8.4562629  
H    0.5113112   -2.0624705   -9.2870376  
H    0.9605609   -1.2338028  -11.6095765  
C    2.5311839    2.1237619    3.0120429  
C    1.9795631    1.6616747    1.8395852  
C    0.9223175    0.7739173    2.1983588  
C    0.8753926    0.7337535    3.6154372  
N    1.8668922    1.5631002    4.0777464  
C   -0.0496243   -0.0427881    4.3197917  
C   -0.9437528   -0.7922060    3.5801400  
O   -1.8685244   -1.5680278    4.2172520  
C   -0.9124520   -0.7656372    2.1655264  
O   -1.8671164   -1.5663939    1.5732860  
C    0.0000000    0.0000000    1.4700000  
H    2.3005065    1.9304404    0.8477417  
H    2.0679347    1.7444845    5.0445261  
H   -0.0904770   -0.0778569    5.3997470  
H   -2.3849669   -2.0011402    3.5251786  
H   -1.7775064   -1.4909735    0.6183591  
H    3.3468514    2.8078103    3.1724291  
