64

C    4.5354159    0.6282781   -8.4663311  
C    5.6317219   -0.2022900   -8.4934954  
C    6.1596126   -0.1518120   -9.8176488  
C    5.3371449    0.7337425  -10.5601216  
N    4.3595664    1.1881136   -9.7101198  
C    5.5633325    1.0243206  -11.9088962  
C    6.6395786    0.4099763  -12.5191866  
O    6.9062370    0.6585235  -13.8345306  
C    7.4715100   -0.4769392  -11.7952476  
O    8.5013444   -1.0087060  -12.5435856  
C    7.2488054   -0.7642751  -10.4646973  
H    6.0043867   -0.7750362   -7.6615843  
H    3.6356895    1.8397746   -9.9536806  
H    4.9400962    1.6982316  -12.4804066  
H    7.6877256    0.1364467  -14.0580850  
H    9.0147132   -1.5960361  -11.9804703  
H    7.9030103   -1.4478746   -9.9363161  
C    4.4071358   -0.7184473   -4.2557784  
C    3.2973506   -0.0000934   -3.8752374  
C    2.8597416    0.7281418   -5.0210000  
C    3.7486368    0.4113759   -6.0799854  
N    4.6772281   -0.4679011   -5.5807786  
C    3.6188210    0.9508690   -7.3632954  
C    2.5724317    1.8258436   -7.5816212  
O    2.3991149    2.3814382   -8.8162432  
C    1.6752954    2.1545401   -6.5376279  
O    0.6861538    3.0400281   -6.9129337  
C    1.8029175    1.6229045   -5.2712935  
H    5.4295967   -0.8769513   -6.1048024  
H    1.6230854    2.9531893   -8.7518670  
H    0.1239576    3.2089576   -6.1506989  
H    1.1004528    1.8934791   -4.4916712  
H    5.0282462   -1.3886023   -3.6865041  
C    3.3321174    0.0004714   -1.3379332  
C    2.6974186    0.0000115   -2.5332308  
C    1.2800441   -0.0002119   -2.2052838  
C    1.2395035    0.0000643   -0.7271293  
N    2.4394063    0.0005458   -0.2131034  
C    0.0000000    0.0000000    0.0000000  
C   -1.1468701    0.0000634   -0.7169542  
O   -2.3742201    0.0000072   -0.1695492  
C   -1.1388767    0.0001606   -2.2096354  
O   -2.2206229    0.0000903   -2.7970413  
C    0.1454526    0.0001815   -2.9324239  
H   -2.9844344    0.0001023   -0.9290168  
H    0.1083580    0.0003680   -4.0135594  
H    4.3940040    0.0007617   -1.1498630  
C    0.0000000    0.0000000    1.4700000  
C    1.0521667    0.0011902    2.3562342  
C    0.4917218    0.0011957    3.6679131  
C   -0.9187428   -0.0003148    3.5178682  
N   -1.1833171    0.0009411    2.1707914  
C   -1.7951701   -0.0010350    4.6072090  
C   -1.2375837   -0.0005224    5.8710424  
O   -2.0474215   -0.0015360    6.9697579  
C    0.1673580    0.0013566    6.0411963  
O    0.5673524    0.0020687    7.3615553  
C    1.0325770    0.0023412    4.9669890  
H    2.0953057    0.0030649    2.0900562  
H   -2.0989778   -0.0102372    1.7591824  
H   -2.8710934   -0.0020419    4.4995513  
H   -1.4634884   -0.0006497    7.7393593  
H    1.5290710    0.0033153    7.3880045  
H    2.1042148    0.0039609    5.1284455  
