60

C    5.6593000   -1.1445228   -8.5492053  
C    5.1604424   -0.0611451   -7.8637113  
C    5.3012287    1.0726889   -8.7176431  
C    5.8970022    0.6159326   -9.9211177  
N    6.1029608   -0.7344672   -9.7846678  
C    6.1841871    1.4663670  -10.9930679  
C    5.8638316    2.8021753  -10.8475804  
O    6.1223970    3.6763062  -11.8634801  
C    5.2692739    3.2770589   -9.6543484  
O    5.0106615    4.6321910   -9.6632784  
C    4.9859254    2.4387022   -8.5963318  
H    6.5025944   -1.3341362  -10.4837182  
H    6.6383052    1.1244927  -11.9129042  
H    5.8262005    4.5439990  -11.5591099  
H    4.6099706    4.8709107   -8.8218139  
H    4.5303594    2.8313327   -7.6947894  
H    5.7350520   -2.1770458   -8.2540505  
C    6.1745030   -2.1408798   -4.0544033  
C    6.2180775   -1.7334918   -5.3442539  
C    5.0926412   -0.8229053   -5.4882168  
C    4.4611851   -0.7965392   -4.1513731  
N    5.0910257   -1.5671311   -3.3066964  
C    3.2973506   -0.0000934   -3.8752374  
C    2.7877448    0.7368256   -4.8884437  
O    1.7057652    1.5254556   -4.7725803  
C    3.4025818    0.7316575   -6.2486310  
O    2.8855808    1.4266381   -7.1232352  
C    4.5959747   -0.0936239   -6.5067949  
H    6.9265058   -2.0159442   -6.1041390  
H    1.5889234    1.9175676   -5.6567462  
H    6.8407164   -2.8229591   -3.5505178  
C    3.3321174    0.0004714   -1.3379332  
C    2.6974186    0.0000115   -2.5332308  
C    1.2800441   -0.0002119   -2.2052838  
C    1.2395035    0.0000643   -0.7271293  
N    2.4394063    0.0005458   -0.2131034  
C    0.0000000    0.0000000    0.0000000  
C   -1.1468701    0.0000634   -0.7169542  
O   -2.3742201    0.0000072   -0.1695492  
C   -1.1388767    0.0001606   -2.2096354  
O   -2.2206229    0.0000903   -2.7970413  
C    0.1454526    0.0001815   -2.9324239  
H   -2.9844344    0.0001023   -0.9290168  
H    0.1083580    0.0003680   -4.0135594  
H    4.3940040    0.0007617   -1.1498630  
C    0.8175213    0.6860729    2.3021913  
C    0.0000000    0.0000000    1.4700000  
C   -0.8887526   -0.7456559    2.3478473  
C   -0.4549825   -0.3816753    3.7138435  
N    0.5448156    0.4573574    3.6934124  
C   -1.0945674   -0.9182058    4.8835240  
C   -2.1210866   -1.7789155    4.6970523  
O   -2.8083856   -2.3554314    5.6976972  
C   -2.5824069   -2.1655116    3.3310774  
O   -3.5227682   -2.9541547    3.2362962  
C   -1.9100805   -1.6015804    2.1470656  
H   -0.7567140   -0.6349833    5.8697035  
H   -3.4728268   -2.9124471    5.2533954  
H   -2.2742832   -1.9066565    1.1752040  
H    1.6189533    1.3585343    2.0405121  
