64

C    9.8889185    0.7090082   -1.1068306  
C   11.2332708    0.4584271   -1.2564718  
C   11.6048702   -0.4512047   -0.2225065  
C   10.4355952   -0.7225108    0.5332154  
N    9.4124367   -0.0005594   -0.0294132  
C   10.4300980   -1.5828056    1.6353277  
C   11.6267127   -2.1803356    1.9806524  
O   11.6777387   -3.0294425    3.0480915  
C   12.8041072   -1.9219119    1.2391826  
O   13.9148413   -2.5923509    1.7083593  
C   12.8103249   -1.0731120    0.1519726  
H   11.8682467    0.8803153   -2.0166094  
H    9.5423340   -1.7936276    2.2155264  
H   12.5932257   -3.3308423    3.1137136  
H   14.6659008   -2.3628134    1.1526382  
H   13.7277452   -0.8943810   -0.3965456  
H    9.2325467    1.3388568   -1.6825264  
C    5.6973667    0.0015109   -2.3066369  
C    4.7630507    0.0004755   -1.3275395  
C    5.5210300   -0.0005636   -0.0857804  
C    6.9366168   -0.0000808   -0.5132123  
N    7.0462388    0.0012153   -1.8139700  
C    8.0173667   -0.0007896    0.4339227  
C    7.6984454   -0.0015399    1.7483133  
O    8.6048006   -0.0022612    2.7405624  
C    6.2793308   -0.0016714    2.2112121  
O    6.0628274   -0.0024954    3.4229655  
C    5.1885716   -0.0009781    1.2201682  
H    8.0763815   -0.0026582    3.5590521  
H    4.1742365   -0.0009835    1.5961403  
H    5.5411496    0.0024804   -3.3736741  
C    3.3003548    0.0005276   -1.4738982  
C    2.5232817    0.0003497   -2.6090743  
C    1.1623204   -0.0001319   -2.1820101  
C    1.1711886    0.0000583   -0.7636140  
N    2.4852302   -0.0014919   -0.3662356  
C    0.0000000    0.0000000    0.0000000  
C   -1.2020379    0.0000520   -0.6806479  
O   -2.3759249    0.0003495    0.0157742  
C   -1.2314652   -0.0005112   -2.0955511  
O   -2.5054384   -0.0008036   -2.6250184  
C   -0.0764510   -0.0007271   -2.8495195  
H    2.8919962   -0.0005619   -3.6205297  
H    2.8036267    0.0088181    0.5858667  
H   -3.0835636    0.0000348   -0.6418823  
H   -2.4360038   -0.0011526   -3.5845925  
H   -0.1304090   -0.0013420   -3.9319089  
C    2.5285572    2.1210227    2.9438989  
C    1.9331703    1.6216660    4.0790748  
C    0.8903039    0.7472258    3.6520102  
C    0.8972198    0.7527806    2.2336141  
N    1.9028376    1.5986179    1.8362361  
C    0.0000000    0.0000000    1.4700000  
C   -0.9207814   -0.7726952    2.1506477  
O   -1.8198395   -1.5274828    1.4542253  
C   -0.9436862   -0.7911793    3.5655508  
O   -1.9197945   -1.6098497    4.0950179  
C   -0.0590329   -0.0485852    4.3195194  
H    2.2150357    1.8593692    5.0905303  
H    2.1533708    1.7953814    0.8841339  
H   -2.3621246   -1.9821033    2.1118817  
H   -1.8668290   -1.5649508    5.0545920  
H   -0.1007624   -0.0827977    5.4019087  
H    3.3491200    2.8096064    2.8367138  
