62

C    7.6941551   -1.1564374   -4.2493721  
C    6.8494035   -0.0718384   -4.2994542  
C    7.6459602    1.0608652   -4.6416236  
C    8.9800160    0.6021926   -4.7894019  
N    8.9743163   -0.7482124   -4.5424380  
C   10.0387147    1.4511180   -5.1259631  
C    9.7452940    2.7873599   -5.3171174  
O   10.7413936    3.6600720   -5.6475302  
C    8.4205442    3.2641466   -5.1738413  
O    8.2904761    4.6194781   -5.3963299  
C    7.3756639    2.4272792   -4.8415678  
H    9.7776404   -1.3490382   -4.5831878  
H   11.0576968    1.1077799   -5.2399578  
H   10.3265642    4.5283674   -5.7326377  
H    7.3661573    4.8595250   -5.2796455  
H    6.3713766    2.8213527   -4.7386609  
H    7.4850382   -2.1886708   -4.0263859  
C    4.1863608   -2.1478771   -1.3903805  
C    5.2964345   -1.7420569   -2.0496413  
C    4.8117016   -0.8307213   -3.0748247  
C    3.3454833   -0.8022508   -2.8851476  
N    2.9730514   -1.5723544   -1.8991330  
C    2.4861704   -0.0045255   -3.7159919  
C    3.0653211    0.7316065   -4.6917114  
O    2.3851028    1.5212589   -5.5401179  
C    4.5422564    0.7243200   -4.9079755  
O    5.0006622    1.4186844   -5.8151377  
C    5.4023458   -0.1022437   -4.0425490  
H    6.3180522   -2.0259915   -1.8632140  
H    3.0670367    1.9124161   -6.1155441  
H    4.1206068   -2.8299028   -0.5576195  
C    0.0000000    0.0000000    0.0000000  
C    1.0521669   -0.0011848   -0.8862341  
C    0.4917221   -0.0011931   -2.1979130  
C   -0.9187427    0.0003100   -2.0478683  
N   -1.1833170   -0.0009472   -0.7007915  
C   -1.7951698    0.0010259   -3.1372090  
C   -1.2375835    0.0005161   -4.4010425  
O   -2.0474208    0.0015256   -5.4997580  
C    0.1673584   -0.0013557   -4.5711962  
O    0.5673529   -0.0020659   -5.8915551  
C    1.0325773   -0.0023359   -3.4969890  
H    2.0953059   -0.0030542   -0.6200560  
H   -2.0989777    0.0102265   -0.2891825  
H   -2.8710930    0.0020274   -3.0295514  
H   -1.4634881    0.0006427   -6.2693593  
H    1.5290715   -0.0033076   -5.9180042  
C    3.2573670    0.0002920    2.9809380  
C    2.5379467    0.0001709    1.8291961  
C    1.1435042   -0.0000331    2.2038498  
C    1.1092607    0.0000083    3.6788474  
N    2.4227561   -0.0001909    4.0882609  
C   -0.0265533    0.0002524    4.4215661  
C   -1.3003036    0.0002640    3.7214979  
O   -2.3786784    0.0004133    4.3006425  
C   -1.2877726   -0.0000311    2.1595606  
O   -2.3539958   -0.0003306    1.5592035  
C    0.0000000    0.0000000    1.4700000  
H    2.9384090    0.0000368    0.8310761  
H   -0.0296291    0.0004086    5.5027230  
H    4.3270393    0.0004765    3.1139444  
H    2.7280493    0.0013407    5.0442112  
