62

C    9.8492856   -0.7223834   -2.2883471  
C    8.8863521   -0.0041285   -2.9586724  
C    9.5517142    0.7231363   -3.9896814  
C   10.9312312    0.4059076   -3.8990009  
N   11.0775480   -0.4726990   -2.8543673  
C   11.8894718    0.9444347   -4.7630353  
C   11.4469936    1.8189014   -5.7365341  
O   12.3402514    2.3735501   -6.6068613  
C   10.0746953    2.1480468   -5.8427345  
O    9.7926626    3.0329328   -6.8629193  
C    9.1288511    1.6173644   -4.9905147  
H   11.9449134   -0.8818731   -2.5573233  
H   12.9423877    0.7067876   -4.6990635  
H   11.8295962    2.9450868   -7.1949441  
H    8.8455943    3.2022214   -6.8655649  
H    8.0848419    1.8882635   -5.0960544  
H    9.7573299   -1.3919205   -1.4503598  
C    6.7235404   -0.0015094    0.8630518  
C    5.4473217   -0.0011276    0.3990038  
C    5.5236520   -0.0015784   -1.0428730  
C    6.9592472   -0.0022882   -1.3832517  
N    7.6329843   -0.0018115   -0.1836821  
C    7.4493969   -0.0032604   -2.6487383  
C    6.4996351   -0.0034065   -3.7489599  
O    6.8417413   -0.0041910   -4.9242315  
C    4.9744857   -0.0024119   -3.4117302  
O    4.1654306   -0.0022185   -4.3297118  
C    4.5679461   -0.0016854   -2.0086701  
H    4.5543636   -0.0004092    0.9983692  
H    7.0761901   -0.0013786    1.8816429  
H    8.6315326   -0.0036616   -0.0839617  
C    3.1301149   -0.0010311   -1.7028252  
C    2.5367768   -0.0002767   -0.4864665  
C    1.1089904    0.0001028   -0.7656183  
C    1.0177872   -0.0004148   -2.2415132  
N    2.1993578   -0.0011611   -2.7963820  
C   -0.2459209   -0.0002877   -2.9257118  
C   -1.3675319   -0.0000605   -2.1698524  
O   -2.6129313    0.0000867   -2.6748490  
C   -1.3083584    0.0000910   -0.6783232  
O   -2.3693261    0.0004206   -0.0541692  
C    0.0000000    0.0000000    0.0000000  
H    3.0096017   -0.0001007    0.4807525  
H   -0.2829630   -0.0004687   -4.0053125  
H   -3.1967441    0.0002094   -1.8949034  
C    2.5285572    2.1210227    2.9438989  
C    1.9331703    1.6216660    4.0790748  
C    0.8903039    0.7472258    3.6520102  
C    0.8972198    0.7527806    2.2336141  
N    1.9028376    1.5986179    1.8362361  
C    0.0000000    0.0000000    1.4700000  
C   -0.9207814   -0.7726952    2.1506477  
O   -1.8198395   -1.5274828    1.4542253  
C   -0.9436862   -0.7911793    3.5655508  
O   -1.9197945   -1.6098497    4.0950179  
C   -0.0590329   -0.0485852    4.3195194  
H    2.2150357    1.8593692    5.0905303  
H    2.1533708    1.7953814    0.8841339  
H   -2.3621246   -1.9821033    2.1118817  
H   -1.8668290   -1.5649508    5.0545920  
H   -0.1007624   -0.0827977    5.4019087  
H    3.3491200    2.8096064    2.8367138  
