60

C    9.6043807    0.0040371   -7.6065583  
C    8.9496407    0.0030055   -6.3966893  
C    7.5516306    0.0027097   -6.6798282  
C    7.4128665    0.0033133   -8.0914480  
N    8.6784273    0.0060637   -8.6233941  
C    6.1685819    0.0029225   -8.7290564  
C    5.0438895    0.0015965   -7.9270309  
O    3.8039126    0.0008105   -8.4975313  
C    5.1618420    0.0013524   -6.5167464  
O    3.9498750    0.0004012   -5.8575965  
C    6.3890371    0.0020110   -5.8870487  
H    9.4215946    0.0036306   -5.4290886  
H    8.8960366   -0.0034804   -9.6034624  
H    6.0560730    0.0035226   -9.8044837  
H    3.1685436    0.0002327   -7.7698144  
H    4.1187756    0.0002694   -4.9104554  
H   10.6586138    0.0049333   -7.8246194  
C    6.4690072    0.0019754   -4.4192254  
C    7.5790601    0.0025228   -3.6450408  
C    7.0826136    0.0021759   -2.2775463  
C    5.6103549    0.0015082   -2.4155215  
N    5.2447501    0.0013071   -3.6686466  
C    4.7390840    0.0009613   -1.2727298  
C    5.3125312    0.0006873   -0.0477836  
O    4.6211392    0.0001822    1.1046130  
C    6.7952868    0.0009743    0.1242526  
O    7.2479824    0.0008233    1.2689304  
C    7.6676528    0.0015789   -1.0635611  
H    8.6077290    0.0030016   -3.9627129  
H    5.3014936    0.0000716    1.8019441  
H    8.7364287    0.0016559   -0.8963857  
C    3.2798077    0.0005856   -1.4499661  
C    2.5571132    0.0005565   -2.5996564  
C    1.1637425    0.0001547   -2.2210366  
C    1.1336959   -0.0000200   -0.7459475  
N    2.4483509   -0.0001429   -0.3402730  
C    0.0000000    0.0000000    0.0000000  
C   -1.2757370   -0.0000187   -0.6964411  
O   -2.3524597   -0.0000640   -0.1142306  
C   -1.2676502   -0.0000874   -2.2584078  
O   -2.3355774   -0.0004102   -2.8557287  
C    0.0181551    0.0001758   -2.9516297  
H    2.9547342    0.0006074   -3.5989118  
H    0.0150776    0.0003317   -4.0331632  
H    2.7563626    0.0012823    0.6148051  
C    2.5528530    2.1414826    2.8079335  
C    2.0663498    1.7338582    4.0032312  
C    0.9804344    0.8229586    3.6752840  
C    0.9495562    0.7966882    2.1971295  
N    1.8690446    1.5676019    1.6831036  
C    0.0000000    0.0000000    1.4700000  
C   -0.8785127   -0.7372425    2.1869543  
O   -1.8187535   -1.5261249    1.6395491  
C   -0.8723269   -0.7321790    3.6796354  
O   -1.7010379   -1.4274584    4.2670412  
C    0.1115397    0.0933559    4.4024240  
H    2.4028853    2.0163452    4.9860947  
H   -2.2861435   -1.9184361    2.3990168  
H    0.0832434    0.0693689    5.4835595  
H    3.3664920    2.8238276    2.6198634  
