60

C   -4.4279724    2.1257865   -4.4506709  
C   -3.3550820    1.6634847   -5.1770656  
C   -3.8733816    0.7764396   -6.1665688  
C   -5.2807082    0.7369117   -5.9939539  
N   -5.5838174    1.5659348   -4.9425441  
C   -6.1199459   -0.0388383   -6.7993604  
C   -5.5277380   -0.7881035   -7.7973932  
O   -6.3005035   -1.5631627   -8.6129494  
C   -4.1252683   -0.7621615   -7.9850701  
O   -3.6880820   -1.5626697   -9.0201536  
C   -3.2966998    0.0026947   -7.1907178  
H   -2.3254193    1.9316533   -5.0131347  
H   -6.5078211    1.7476298   -4.5944292  
H   -7.1932582   -0.0734200   -6.6728437  
H   -5.6967745   -1.9963014   -9.2303362  
H   -2.7307406   -1.4877087   -9.0791589  
H   -4.4600327    2.8094738   -3.6197060  
C    0.0950448    0.0004350   -4.4015596  
C    1.1192393    0.0002595   -5.2932436  
C    0.5298381    0.0006948   -6.6113645  
C   -0.9321737    0.0011708   -6.4130916  
N   -1.1298099    0.0005872   -5.0515376  
C   -1.8443594    0.0020607   -7.4178900  
C   -1.3534356    0.0023587   -8.7859286  
O   -2.0950470    0.0030850   -9.7597423  
C    0.1910164    0.0016124   -9.0193234  
O    0.6161255    0.0015485  -10.1667301  
C    1.0746172    0.0009550   -7.8560944  
H    2.1679381   -0.0003126   -5.0548237  
H    2.1426822    0.0006460   -8.0262737  
H   -2.0258137    0.0022753   -4.5996288  
C    3.3321173    0.0004714   -1.3379336  
C    2.6974184    0.0000115   -2.5332313  
C    1.2800437   -0.0002119   -2.2052840  
C    1.2395034    0.0000643   -0.7271298  
N    2.4394063    0.0005459   -0.2131037  
C    0.0000000    0.0000000    0.0000000  
C   -1.1468702    0.0000634   -0.7169544  
O   -2.3742202    0.0000072   -0.1695489  
C   -1.1388770    0.0001606   -2.2096356  
O   -2.2206231    0.0000903   -2.7970412  
C    0.1454523    0.0001814   -2.9324241  
H    3.1367986   -0.0000653   -3.5160949  
H   -2.9844345    0.0001025   -0.9290168  
H    4.3940040    0.0007618   -1.1498638  
C    2.5128556    2.1077716    2.9199648  
C    1.9592212    1.6432552    4.0696553  
C    0.8915788    0.7479214    3.6910360  
C    0.8684491    0.7287414    2.2159470  
N    1.8754542    1.5738793    1.8102719  
C    0.0000000    0.0000000    1.4700000  
C   -0.9772830   -0.8200135    2.1664417  
O   -1.8021297   -1.5120829    1.5842315  
C   -0.9711318   -0.8147624    3.7284083  
O   -1.7894187   -1.5009653    4.3257297  
C    0.0140216    0.0115358    4.4216297  
H    2.2638494    1.8988021    5.0689105  
H    0.0117648    0.0094386    5.5031631  
H    3.3327358    2.7953732    2.7900019  
H    2.1123206    1.7707734    0.8551938  
