64

C    6.5924460   -3.3368071   -4.8108766  
C    6.0516306   -2.0736819   -4.7437834  
C    6.8690182   -1.2274201   -5.5502060  
C    7.9018522   -2.0367692   -6.0888470  
N    7.7053546   -3.3114110   -5.6184272  
C    8.8944371   -1.5326105   -6.9346540  
C    8.8432764   -0.1869664   -7.2425538  
O    9.7875709    0.3572788   -8.0642110  
C    7.8208388    0.6369141   -6.7146731  
O    7.9070216    1.9546141   -7.1141494  
C    6.8414613    0.1402825   -5.8799856  
H    8.2768494   -4.1064701   -5.8403630  
H    9.6843971   -2.1441749   -7.3483612  
H    9.5699242    1.2948604   -8.1468837  
H    7.1804174    2.4419120   -6.7139105  
H    6.0710813    0.7957141   -5.4908814  
H    6.2732041   -4.2535441   -4.3454337  
C    4.4925592   -2.1138022   -2.7420818  
C    4.8565035   -1.6946788   -3.9763669  
C    3.8030380   -0.7794117   -4.3874587  
C    2.8583245   -0.7634595   -3.2499849  
N    3.2572738   -1.5436999   -2.2824862  
C    1.6628945    0.0339172   -3.2649299  
C    1.4223698    0.7816763   -4.3659923  
O    0.3461535    1.5724674   -4.5158195  
C    2.3568199    0.7871865   -5.5300082  
O    2.0745621    1.4917540   -6.4990986  
C    3.5763790   -0.0392794   -5.4905725  
H    0.4536187    1.9730612   -5.3973686  
H    4.2275605   -0.0074316   -6.3538100  
H    5.0117291   -2.8025036   -2.0946821  
C    1.1243410    0.0100105   -0.7919003  
C    0.7474072    0.0234665   -2.1148542  
C   -0.6787384    0.0234379   -2.1414698  
C   -1.1201748    0.0098411   -0.7935547  
N    0.0000000    0.0000000    0.0000000  
C   -2.4730818    0.0063307   -0.4408240  
C   -3.3971962    0.0170429   -1.4675058  
O   -4.7313520    0.0145490   -1.1793468  
C   -2.9763654    0.0303020   -2.8186325  
O   -4.0166484    0.0394464   -3.7247625  
C   -1.6418567    0.0334992   -3.1673480  
H   -2.8160166   -0.0041569    0.5845966  
H   -5.1938823    0.0230023   -2.0274386  
H   -3.6464680    0.0481700   -4.6127343  
H   -1.3497475    0.0435647   -4.2109234  
H    2.1062466    0.0053162   -0.3505405  
C    0.8676693    0.7151171    2.2619005  
C    0.5875920    0.4624972    3.5848544  
C   -0.5048400   -0.4542819    3.6114698  
C   -0.8517165   -0.7276451    2.2635546  
N    0.0000000    0.0000000    1.4700000  
C   -1.8902865   -1.5946756    1.9108239  
C   -2.5912627   -2.1969500    2.9375057  
O   -3.6148162   -3.0527051    2.6493466  
C   -2.2603868   -1.9365747    4.2886322  
O   -3.0513550   -2.6123276    5.1947621  
C   -1.2361111   -1.0811317    4.6373480  
H    1.1060808    0.8876438    4.4271209  
H   -2.1597133   -1.8070987    0.8854031  
H   -3.9636755   -3.3565188    3.4974381  
H   -2.7621927   -2.3810384    6.0827341  
H   -1.0058879   -0.9010589    5.6809233  
H    1.6167816    1.3499334    1.8205408  
