62

C    8.8049643   -0.0042791   -3.2128965  
C    9.9190446   -0.0058271   -2.4058706  
C   11.0565722   -0.0067555   -3.2664687  
C   10.5703753   -0.0054134   -4.5989614  
N    9.1992741   -0.0058775   -4.5304195  
C   11.4158436   -0.0055361   -5.7125019  
C   12.7769195   -0.0067341   -5.4766015  
O   13.6475643   -0.0065568   -6.5277868  
C   13.2812957   -0.0084583   -4.1543237  
O   14.6591697   -0.0099203   -4.0850008  
C   12.4478072   -0.0086116   -3.0553141  
H    9.9126350   -0.0073418   -1.3293252  
H    8.5787426    0.0053876   -5.3195932  
H   11.0515629   -0.0046619   -6.7305891  
H   14.5353958   -0.0078151   -6.1469740  
H   14.9170678   -0.0110048   -3.1581291  
H   12.8632586   -0.0101330   -2.0543765  
C    6.8847525   -0.0023787    0.6986606  
C    5.5715637   -0.0012904    0.3713797  
C    5.5475442   -0.0015351   -1.0832417  
C    6.9721655   -0.0027416   -1.4795205  
N    7.7607270   -0.0033212   -0.4392514  
C    7.3784667   -0.0033614   -2.8579273  
C    6.4057883   -0.0031904   -3.7977309  
O    6.6406184   -0.0037040   -5.1209449  
C    4.9592105   -0.0023543   -3.4295276  
O    4.1279725   -0.0021183   -4.3374176  
C    4.5679461   -0.0016854   -2.0086701  
H    4.7238865   -0.0005186    1.0350946  
H    5.7562733   -0.0034385   -5.5297076  
H    7.3236767   -0.0025892    1.6837080  
C    3.1301149   -0.0010311   -1.7028252  
C    2.5367768   -0.0002767   -0.4864665  
C    1.1089904    0.0001028   -0.7656183  
C    1.0177872   -0.0004148   -2.2415132  
N    2.1993578   -0.0011611   -2.7963820  
C   -0.2459209   -0.0002877   -2.9257118  
C   -1.3675319   -0.0000605   -2.1698524  
O   -2.6129313    0.0000867   -2.6748490  
C   -1.3083584    0.0000910   -0.6783232  
O   -2.3693261    0.0004206   -0.0541692  
C    0.0000000    0.0000000    0.0000000  
H    3.0096017   -0.0001007    0.4807525  
H   -0.2829630   -0.0004687   -4.0053125  
H   -3.1967441    0.0002094   -1.8949034  
C    0.8576279    0.7185626    2.2703808  
C    0.0000000    0.0000000    1.4700000  
C   -0.8668858   -0.7285659    2.3373528  
C   -0.4876752   -0.4117774    3.6669281  
N    0.5635254    0.4678311    3.5902241  
C   -1.1297612   -0.9515493    4.7854808  
C   -2.1738724   -1.8268314    4.5576857  
O   -2.8357962   -2.3827064    5.6140350  
C   -2.5667212   -2.1555554    3.2384331  
O   -3.6226318   -3.0413663    3.1773122  
C   -1.9335634   -1.6236449    2.1344818  
H    1.0363952    0.8769718    4.3757045  
H   -0.8454472   -0.7142436    5.8013813  
H   -3.5178062   -2.9546422    5.2385129  
H   -3.8247440   -3.2102924    2.2519915  
H   -2.2566033   -1.8942483    1.1360343  
H    1.6567807    1.3889844    2.0042067  
