62

C    7.4067025   -0.6112677   -5.1464062  
C    8.7803097   -0.5388771   -5.1256884  
C    9.1301041    0.8156851   -5.4039075  
C    7.9180434    1.5293790   -5.5868774  
N    6.8910885    0.6327338   -5.4256054  
C    7.8818739    2.8964991   -5.8775055  
C    9.0912961    3.5552107   -5.9850914  
O    9.1137280    4.8905006   -6.2670666  
C   10.3111681    2.8603992   -5.8062970  
O   11.4296088    3.6560222   -5.9456386  
C   10.3476108    1.5116457   -5.5198329  
H    9.4480794   -1.3614460   -4.9347499  
H    6.9614224    3.4461946   -6.0182355  
H   10.0444585    5.1475826   -6.2972970  
H   12.2100617    3.1100966   -5.8097575  
H   11.2972892    1.0063672   -5.3883700  
H    6.7540149   -1.4521460   -4.9855291  
C    3.4137021   -0.7170406   -3.0497332  
C    2.4521483    0.0014840   -3.7217481  
C    3.1199025    0.7307412   -4.7497988  
C    4.4993905    0.4143939   -4.6556562  
N    4.6433843   -0.4656285   -3.6118919  
C    5.4596855    0.9548847   -5.5161747  
C    5.0193326    1.8304459   -6.4896533  
O    5.9146525    2.3870198   -7.3566263  
C    3.6471001    2.1587381   -6.5992784  
O    3.3673157    3.0449044   -7.6189711  
C    2.6992267    1.6261177   -5.7505268  
H    5.5102029   -0.8745985   -3.3129774  
H    5.4052496    2.9590389   -7.9453270  
H    2.4201337    3.2135009   -7.6240651  
H    1.6553228    1.8964036   -5.8586422  
H    3.3198578   -1.3878673   -2.2129873  
C    0.0000000    0.0000000    0.0000000  
C    1.0662923   -0.0000101   -0.8334270  
C    0.4961873    0.0000065   -2.1718887  
C   -0.9663854   -0.0000848   -1.9540250  
N   -1.2632773   -0.0000083   -0.6828660  
C   -1.8985359   -0.0000514   -3.0477261  
C   -1.3925770    0.0004566   -4.3020547  
O   -2.1456378    0.0005414   -5.4151314  
C    0.0786240    0.0009326   -4.5545000  
O    0.4683767    0.0012591   -5.7221100  
C    1.0143171    0.0008444   -3.4159031  
H    2.1107200    0.0000633   -0.5721865  
H   -2.9622181   -0.0003268   -2.8593381  
H   -1.5042265    0.0009697   -6.1484419  
C    0.0000000    0.0000000    1.4700000  
C    1.0541688    0.0001722    2.3260392  
C    0.5103138    0.0000454    3.6635956  
C   -0.9576371   -0.0002459    3.5155732  
N   -1.2018458    0.0001392    2.1615969  
C   -1.8348311   -0.0008317    4.5510609  
C   -1.2972847   -0.0009736    5.9014604  
O   -2.0050672   -0.0014265    6.9001319  
C    0.2542623   -0.0004184    6.0817573  
O    0.7184670   -0.0002256    7.2139121  
C    1.0974552   -0.0000873    4.8889129  
H    2.0940752    0.0005483    2.0517982  
H   -2.9081052   -0.0011668    4.4207061  
H    2.1707277    0.0000911    5.0223670  
H   -2.1128194   -0.0014912    1.7406791  
