62

C    8.7625634   -0.0019537   -3.0427300  
C    9.8890284   -0.0025251   -2.2530824  
C   11.0130700   -0.0026867   -3.1312220  
C   10.5062624   -0.0019048   -4.4560130  
N    9.1363894   -0.0034257   -4.3662106  
C   11.3343552   -0.0015223   -5.5825343  
C   12.6989269   -0.0016297   -5.3677748  
O   13.5531607   -0.0009191   -6.4323391  
C   13.2237546   -0.0027810   -4.0534798  
O   14.6025390   -0.0031622   -4.0055387  
C   12.4074142   -0.0034321   -2.9416734  
H    9.8993203   -0.0038977   -1.1765670  
H    8.5036822    0.0072491   -5.1456650  
H   10.9543245   -0.0010704   -6.5948484  
H   14.4467934   -0.0014351   -6.0653440  
H   14.8747835   -0.0039194   -3.0827787  
H   12.8383439   -0.0044937   -1.9473007  
C    6.7636933   -0.0010971    0.9023171  
C    5.4671766   -0.0014229    0.4424135  
C    5.5308677   -0.0015887   -0.9825579  
C    6.9040854   -0.0016365   -1.3378039  
N    7.6252192    0.0006176   -0.1696525  
C    7.3417429   -0.0020967   -2.6656758  
C    6.3755446   -0.0028233   -3.6529133  
O    6.7475671   -0.0036472   -4.9661589  
C    5.0004300   -0.0024126   -3.3184347  
O    4.1619032   -0.0028166   -4.4139786  
C    4.5679461   -0.0016854   -2.0086701  
H    4.5841349   -0.0004230    1.0582292  
H    8.6271391   -0.0094387   -0.1061168  
H    5.9304038   -0.0037547   -5.4814343  
H    3.2522420   -0.0025257   -4.1007373  
H    7.1420548   -0.0005064    1.9101872  
C    3.1301149   -0.0010311   -1.7028252  
C    2.5367768   -0.0002767   -0.4864665  
C    1.1089904    0.0001028   -0.7656183  
C    1.0177872   -0.0004148   -2.2415132  
N    2.1993578   -0.0011611   -2.7963820  
C   -0.2459209   -0.0002877   -2.9257118  
C   -1.3675319   -0.0000605   -2.1698524  
O   -2.6129313    0.0000867   -2.6748490  
C   -1.3083584    0.0000910   -0.6783232  
O   -2.3693261    0.0004206   -0.0541692  
C    0.0000000    0.0000000    0.0000000  
H    3.0096017   -0.0001007    0.4807525  
H   -0.2829630   -0.0004687   -4.0053125  
H   -3.1967441    0.0002094   -1.8949034  
C    0.0000000    0.0000000    1.4700000  
C    1.0541688    0.0001722    2.3260392  
C    0.5103138    0.0000454    3.6635956  
C   -0.9576371   -0.0002459    3.5155732  
N   -1.2018458    0.0001392    2.1615969  
C   -1.8348311   -0.0008317    4.5510609  
C   -1.2972847   -0.0009736    5.9014604  
O   -2.0050672   -0.0014265    6.9001319  
C    0.2542623   -0.0004184    6.0817573  
O    0.7184670   -0.0002256    7.2139121  
C    1.0974552   -0.0000873    4.8889129  
H    2.0940752    0.0005483    2.0517982  
H   -2.9081052   -0.0011668    4.4207061  
H    2.1707277    0.0000911    5.0223670  
H   -2.1128194   -0.0014912    1.7406791  
