62

C    9.2085263   -0.0056109    0.3420974  
C    9.8821890   -0.0055715   -0.8573387  
C   11.2755792   -0.0068587   -0.5522776  
C   11.3921540   -0.0079354    0.8613472  
N   10.1183952   -0.0051891    1.3733526  
C   12.6262707   -0.0096496    1.5184181  
C   13.7634202   -0.0105954    0.7341559  
O   14.9942818   -0.0126258    1.3240597  
C   13.6676324   -0.0091705   -0.6778070  
O   14.8898030   -0.0099466   -1.3178404  
C   12.4504795   -0.0072060   -1.3267003  
H    9.4254911   -0.0036146   -1.8322320  
H    9.8854151   -0.0157501    2.3498716  
H   12.7218731   -0.0103329    2.5954794  
H   15.6410028   -0.0126749    0.6064125  
H   14.7358000   -0.0089146   -2.2675169  
H   12.4085280   -0.0059665   -2.4096207  
C    5.6706436   -0.0000109   -2.2998306  
C    6.9366746   -0.0017183   -1.8086710  
C    6.8296106   -0.0022729   -0.3687500  
C    5.3870841   -0.0007669   -0.0590646  
N    4.7390840    0.0009613   -1.2727298  
C    4.8700559   -0.0011615    1.1956809  
C    5.7961368   -0.0029798    2.3159070  
O    5.4290430   -0.0034065    3.4836152  
C    7.3281306   -0.0043428    2.0112798  
O    8.1174235   -0.0055710    2.9463067  
C    7.7645007   -0.0040404    0.6172090  
H    7.8422120   -0.0023175   -2.3888562  
H    3.8085777   -0.0001651    1.4010418  
H    5.3397978    0.0008358   -3.3257109  
C    3.2798077    0.0005856   -1.4499661  
C    2.5571132    0.0005565   -2.5996564  
C    1.1637425    0.0001547   -2.2210366  
C    1.1336959   -0.0000200   -0.7459475  
N    2.4483509   -0.0001429   -0.3402730  
C    0.0000000    0.0000000    0.0000000  
C   -1.2757370   -0.0000187   -0.6964411  
O   -2.3524597   -0.0000640   -0.1142306  
C   -1.2676502   -0.0000874   -2.2584078  
O   -2.3355774   -0.0004102   -2.8557287  
C    0.0181551    0.0001758   -2.9516297  
H    2.9547342    0.0006074   -3.5989118  
H    0.0150776    0.0003317   -4.0331632  
H    2.7563626    0.0012823    0.6148051  
C    2.5285572    2.1210227    2.9438989  
C    1.9331703    1.6216660    4.0790748  
C    0.8903039    0.7472258    3.6520102  
C    0.8972198    0.7527806    2.2336141  
N    1.9028376    1.5986179    1.8362361  
C    0.0000000    0.0000000    1.4700000  
C   -0.9207814   -0.7726952    2.1506477  
O   -1.8198395   -1.5274828    1.4542253  
C   -0.9436862   -0.7911793    3.5655508  
O   -1.9197945   -1.6098497    4.0950179  
C   -0.0590329   -0.0485852    4.3195194  
H    2.2150357    1.8593692    5.0905303  
H    2.1533708    1.7953814    0.8841339  
H   -2.3621246   -1.9821033    2.1118817  
H   -1.8668290   -1.5649508    5.0545920  
H   -0.1007624   -0.0827977    5.4019087  
H    3.3491200    2.8096064    2.8367138  
