60

C    5.1049472   -2.7863560   -8.9077609  
C    4.4003133   -1.8666614   -8.1660585  
C    4.5354372   -0.6088720   -8.8250792  
C    5.3400077   -0.8248150   -9.9731041  
N    5.6701899   -2.1571937   -9.9921980  
C    5.6805295    0.1996269  -10.8615593  
C    5.1998378    1.4650558  -10.5862363  
O    5.5017668    2.5018665  -11.4210282  
C    4.3959314    1.7005030   -9.4455714  
O    3.9955455    3.0136789   -9.3091787  
C    4.0598268    0.6903933   -8.5685100  
H    3.8567962   -2.0763035   -7.2607241  
H    6.2265564   -2.6071906  -10.6964286  
H    6.2934692    0.0415913  -11.7382185  
H    5.0734079    3.2844463  -11.0504301  
H    3.4573684    3.0866422   -8.5150476  
H    5.2502355   -3.8410632   -8.7482516  
C    4.2034631   -0.7255618   -4.3886923  
C    4.4527393   -0.5087788   -5.7058645  
C    3.4509042    0.4181858   -6.1769257  
C    2.5913890    0.7259028   -5.0179029  
N    3.1006054    0.0006263   -3.9654951  
C    1.5263736    1.5663069   -5.0520708  
C    1.2050748    2.2105938   -6.3146857  
O    0.2656485    2.9839405   -6.4477801  
C    2.1016869    1.8990850   -7.5551920  
O    1.8407248    2.4353746   -8.6236268  
C    3.2224919    0.9761281   -7.3945733  
H    5.2475925   -0.9482343   -6.2817985  
H    0.9088838    1.7784637   -4.1903244  
H    4.7325170   -1.3548952   -3.6916046  
C    3.2798083    0.0005857   -1.4499652  
C    2.5571142    0.0005565   -2.5996556  
C    1.1637432    0.0001548   -2.2210361  
C    1.1336964   -0.0000200   -0.7459473  
N    2.4483512   -0.0001428   -0.3402723  
C    0.0000000    0.0000000    0.0000000  
C   -1.2757368   -0.0000186   -0.6964415  
O   -2.3524598   -0.0000639   -0.1142311  
C   -1.2676497   -0.0000872   -2.2584083  
O   -2.3355766   -0.0004101   -2.8557295  
C    0.0181558    0.0001758   -2.9516296  
H    0.0150788    0.0003319   -4.0331631  
H    4.3498547    0.0008612   -1.3200026  
H    2.7563626    0.0012823    0.6148059  
C    0.8175213    0.6860729    2.3021913  
C    0.0000000    0.0000000    1.4700000  
C   -0.8887526   -0.7456559    2.3478473  
C   -0.4549825   -0.3816753    3.7138435  
N    0.5448156    0.4573574    3.6934124  
C   -1.0945674   -0.9182058    4.8835240  
C   -2.1210866   -1.7789155    4.6970523  
O   -2.8083856   -2.3554314    5.6976972  
C   -2.5824069   -2.1655116    3.3310774  
O   -3.5227682   -2.9541547    3.2362962  
C   -1.9100805   -1.6015804    2.1470656  
H   -0.7567140   -0.6349833    5.8697035  
H   -3.4728268   -2.9124471    5.2533954  
H   -2.2742832   -1.9066565    1.1752040  
H    1.6189533    1.3585343    2.0405121  
