60

C    5.7620946   -3.0164447   -7.6488786  
C    6.3450311   -2.2252984   -8.6115515  
C    5.8772246   -0.8950551   -8.3965856  
C    5.0044655   -0.9362524   -7.2792143  
N    4.9555102   -2.2395355   -6.8506413  
C    4.3580266    0.1994875   -6.7822218  
C    4.5972244    1.3987140   -7.4247309  
O    3.9920706    2.5387116   -6.9806512  
C    5.4644581    1.4600107   -8.5414075  
O    5.5994142    2.7265466   -9.0715169  
C    6.1023124    0.3399290   -9.0324111  
H    7.0230683   -2.5653476   -9.3755051  
H    4.4244211   -2.5730860   -6.0666327  
H    4.2909975    3.2505228   -7.5613674  
H    6.2010025    2.6801012   -9.8208755  
H    6.7608777    0.4177533   -9.8895647  
H    5.8567326   -4.0736955   -7.4693756  
C    4.6658418   -2.0084115   -3.0381695  
C    3.5410043   -1.6272096   -2.3893217  
C    2.8760350   -0.7078756   -3.2998932  
C    3.7621632   -0.6481449   -4.4821757  
N    4.8129013   -1.4085087   -4.3345750  
C    3.4519830    0.1658076   -5.6251350  
C    2.3083468    0.8869947   -5.5888132  
O    1.8948241    1.6890060   -6.5847135  
C    1.3931660    0.8475795   -4.4102332  
O    0.3692891    1.5299498   -4.4458469  
C    1.7334695    0.0049281   -3.2500363  
H    3.2040804   -1.9322774   -1.4133648  
H    1.0533181    2.0640200   -6.2678775  
H    5.4313254   -2.6873260   -2.6974587  
C    1.1319246    0.0015678   -0.8009268  
C    0.7969914    0.0034958   -2.1169401  
C   -0.6453340    0.0035696   -2.1842669  
C   -1.1266832    0.0015410   -0.7896025  
N    0.0000000    0.0000000    0.0000000  
C   -2.4346129    0.0013913   -0.4276292  
C   -3.4350111    0.0031335   -1.4820181  
O   -4.6384614    0.0030875   -1.2583914  
C   -2.9478961    0.0050442   -2.9661074  
O   -3.7809382    0.0062135   -3.8623773  
C   -1.5113825    0.0053055   -3.2312122  
H   -2.7664565    0.0000174    0.6013448  
H   -1.1823533    0.0068381   -4.2614848  
H    2.1104316    0.0009435   -0.3488059  
C    0.0000000    0.0000000    1.4700000  
C    1.0662921    0.0000102    2.3034270  
C    0.4961870   -0.0000064    3.6418889  
C   -0.9663858    0.0000850    3.4240247  
N   -1.2632773    0.0000084    2.1528658  
C   -1.8985362    0.0000517    4.5177257  
C   -1.3925775   -0.0004564    5.7720543  
O   -2.1456383   -0.0005410    6.8851312  
C    0.0786232   -0.0009323    6.0245000  
O    0.4683759   -0.0012588    7.1921102  
C    1.0143166   -0.0008442    4.8859032  
H    2.1107198   -0.0000632    2.0421868  
H   -2.9622183    0.0003270    4.3293377  
H   -1.5042274   -0.0009692    7.6184419  
H    2.0724152   -0.0013148    5.1109744  
