62

C    5.6607617   -0.0163855   -2.2932973  
C    6.9286108   -0.0269757   -1.7595243  
C    6.7830848   -0.0173779   -0.3406057  
C    5.3917871   -0.0011660   -0.0650081  
N    4.7390844    0.0009612   -1.2727295  
C    4.8785140    0.0113254    1.2354476  
C    5.7862817    0.0070720    2.2766576  
O    5.3393696    0.0184375    3.5662901  
C    7.1782829   -0.0086635    2.0218985  
O    7.9523725   -0.0106009    3.1638819  
C    7.6853528   -0.0207192    0.7392214  
H    7.8455658   -0.0389094   -2.3234797  
H    3.8192327    0.0238500    1.4521686  
H    6.1255035    0.0133026    4.1277465  
H    8.8784936   -0.0215793    2.9035307  
H    8.7565286   -0.0324764    0.5751402  
H    5.3410111   -0.0183875   -3.3212632  
C    3.2798077    0.0005856   -1.4499659  
C    2.5571132    0.0005565   -2.5996562  
C    1.1637425    0.0001548   -2.2210364  
C    1.1336957   -0.0000200   -0.7459472  
N    2.4483508   -0.0001429   -0.3402728  
C    0.0000000    0.0000000    0.0000000  
C   -1.2757370   -0.0000187   -0.6964410  
O   -2.3524597   -0.0000640   -0.1142306  
C   -1.2676501   -0.0000873   -2.2584079  
O   -2.3355772   -0.0004101   -2.8557287  
C    0.0181552    0.0001759   -2.9516296  
H    2.9547343    0.0006074   -3.5989115  
H    2.7563624    0.0012823    0.6148054  
C    0.8693931   -0.7179710   -5.2245453  
C    0.0139724    0.0003878   -4.4216237  
C   -0.8554526    0.7289894   -5.2864007  
C   -0.4799944    0.4124318   -6.6170956  
N    0.5715105   -0.4670795   -6.5435101  
C   -1.1253160    0.9522987   -7.7337392  
C   -2.1688647    1.8274404   -7.5028471  
O   -2.8338485    2.3833995   -8.5572288  
C   -2.5579917    2.1559338   -6.1824347  
O   -3.6138149    3.0416270   -6.1181814  
C   -1.9216405    1.6239294   -5.0803666  
H    1.0421852   -0.8760582   -7.3303921  
H   -0.8438695    0.7151688   -8.7504780  
H   -3.5148460    2.9552110   -8.1796844  
H   -3.8133107    3.2103988   -5.1922650  
H   -2.2418658    1.8943555   -4.0809645  
H    1.6693688   -1.3883488   -4.9607429  
C    0.8681109    0.7263879    2.2709268  
C    0.6127770    0.5096195    3.5869401  
C   -0.4920590   -0.4175482    3.6542670  
C   -0.8620974   -0.7254003    2.2596025  
N    0.0000000    0.0000000    1.4700000  
C   -1.8641242   -1.5660088    1.8976294  
C   -2.6293522   -2.2103885    2.9520183  
O   -3.5512764   -2.9839180    2.7283916  
C   -2.2549728   -1.8987399    4.4361073  
O   -2.8923672   -2.4351063    5.3323774  
C   -1.1543735   -0.9755647    4.7012123  
H    1.1382914    0.9492124    4.4159191  
H   -2.1192137   -1.7782617    0.8686553  
H   -0.9013378   -0.7652422    5.7314848  
H    1.6172880    1.3558399    1.8188057  
