64

C   -4.0431625    0.7160467   -7.8816400  
C   -5.2677508    0.4660586   -8.4564078  
C   -5.0444780   -0.4415962   -9.5338639  
C   -3.6525647   -0.7123636   -9.5683320  
N   -3.0739798    0.0079958   -8.5529802  
C   -3.0721177   -1.5708043  -10.5069224  
C   -3.9121426   -2.1669990  -11.4272950  
O   -3.3980099   -3.0142748  -12.3658065  
C   -5.3035353   -1.9090852  -11.4092452  
O   -6.0056217   -2.5780346  -12.3905305  
C   -5.8768111   -1.0621141  -10.4837602  
H   -6.2063414    0.8870649   -8.1389263  
H   -2.0119619   -1.7812059  -10.5385759  
H   -4.1444209   -3.3149879  -12.9003222  
H   -6.9364146   -2.3489616  -12.3083395  
H   -6.9457079   -0.8837311  -10.4946664  
H   -3.7841856    1.3445119   -7.0468218  
C   -0.9736295    0.0040466   -4.6965763  
C    0.3099700    0.0046188   -5.1397994  
C    0.2571076    0.0059522   -6.5827272  
C   -1.1727596    0.0061405   -6.9464167  
N   -1.8659235    0.0045498   -5.7579677  
C   -1.6422570    0.0076695   -8.2197089  
C   -0.6747212    0.0090082   -9.3043327  
O   -0.9976622    0.0103679  -10.4850142  
C    0.8447401    0.0085831   -8.9423348  
O    1.6686228    0.0093934   -9.8470316  
C    1.2283995    0.0071689   -7.5328470  
H    1.1930592    0.0039769   -4.5259864  
H    2.2824685    0.0070884   -7.2906440  
H   -2.8659634    0.0058219   -5.6745054  
C    1.1188642    0.0008216   -0.8003808  
C    0.0000000    0.0000000    0.0000000  
C   -1.1323861    0.0008904   -0.8673528  
C   -0.6382661    0.0019681   -2.1969280  
N    0.7324017    0.0038477   -2.1202241  
C   -1.4770913    0.0027323   -3.3154808  
C   -2.8395472    0.0020956   -3.0876858  
O   -3.7039201    0.0024441   -4.1440350  
C   -3.3517867    0.0013945   -1.7684332  
O   -4.7300494    0.0012387   -1.7073122  
C   -2.5248543    0.0009134   -0.6644817  
H    1.3576316   -0.0056175   -2.9057045  
H   -4.5940031    0.0021847   -3.7685129  
H   -4.9934602    0.0007284   -0.7819915  
H   -2.9462576    0.0005617    0.3339659  
H    2.1619896    0.0009343   -0.5342067  
C    0.8576279    0.7185626    2.2703808  
C    0.0000000    0.0000000    1.4700000  
C   -0.8668858   -0.7285659    2.3373528  
C   -0.4876752   -0.4117774    3.6669281  
N    0.5635254    0.4678311    3.5902241  
C   -1.1297612   -0.9515493    4.7854808  
C   -2.1738724   -1.8268314    4.5576857  
O   -2.8357962   -2.3827064    5.6140350  
C   -2.5667212   -2.1555554    3.2384331  
O   -3.6226318   -3.0413663    3.1773122  
C   -1.9335634   -1.6236449    2.1344818  
H    1.0363952    0.8769718    4.3757045  
H   -0.8454472   -0.7142436    5.8013813  
H   -3.5178062   -2.9546422    5.2385129  
H   -3.8247440   -3.2102924    2.2519915  
H   -2.2566033   -1.8942483    1.1360343  
H    1.6567807    1.3889844    2.0042067  
