60

C    3.5771164   -3.3807377   -7.4329717  
C    4.4614504   -3.3701697   -8.4866840  
C    4.4927559   -2.0361227   -8.9906076  
C    3.5998170   -1.2706507   -8.1977390  
N    3.0593703   -2.1180895   -7.2626556  
C    3.3781685    0.0932123   -8.4111379  
C    4.0707785    0.6953710   -9.4435499  
O    3.8922044    2.0248955   -9.6955192  
C    4.9657756   -0.0516407  -10.2459031  
O    5.5790028    0.6910136  -11.2337094  
C    5.1847246   -1.3972186  -10.0361235  
H    5.0149606   -4.2197434   -8.8484079  
H    2.6988304    0.6822002   -7.8104770  
H    4.4611231    2.2393431  -10.4462565  
H    6.1663029    0.1120531  -11.7291758  
H    5.8761838   -1.9432646  -10.6671510  
H    3.2736408   -4.1893645   -6.7903330  
C    2.0485057   -2.1404841   -4.9352597  
C    2.0920573   -1.7327542   -6.2250031  
C    0.9665699   -0.8221932   -6.3687265  
C    0.3351121   -0.7962139   -5.0318754  
N    0.9649966   -1.5669927   -4.1874018  
C   -0.8287665    0.0000939   -4.7555305  
C   -1.3384143    0.7372509   -5.7685427  
O   -2.4204377    1.5257894   -5.6524722  
C   -0.7235769    0.7324747   -7.1287312  
O   -1.2406172    1.4276562   -8.0031528  
C    0.4698622   -0.0926718   -7.3871123  
H   -2.5373018    1.9181274   -6.5365345  
H    0.8852521   -0.0684847   -8.3856596  
H    2.7147576   -2.8226586   -4.4315535  
C    1.0672569   -0.0000698   -0.8321910  
C    0.0000000    0.0000000    0.0000000  
C   -1.1601223   -0.0000736   -0.8778472  
C   -0.5938729   -0.0000768   -2.2438435  
N    0.7113367   -0.0001553   -2.2234123  
C   -1.4286985   -0.0001877   -3.4135239  
C   -2.7683113   -0.0006798   -3.2270524  
O   -3.6653902   -0.0008302   -4.2276970  
C   -3.3702024   -0.0010610   -1.8610774  
O   -4.5974910   -0.0013779   -1.7662963  
C   -2.4926825   -0.0008943   -0.6770658  
H   -4.5324245   -0.0012258   -3.7833954  
H   -2.9677772   -0.0012974    0.2947961  
H    2.1134391   -0.0000547   -0.5705119  
C    2.5128556    2.1077716    2.9199648  
C    1.9592212    1.6432552    4.0696553  
C    0.8915788    0.7479214    3.6910360  
C    0.8684491    0.7287414    2.2159470  
N    1.8754542    1.5738793    1.8102719  
C    0.0000000    0.0000000    1.4700000  
C   -0.9772830   -0.8200135    2.1664417  
O   -1.8021297   -1.5120829    1.5842315  
C   -0.9711318   -0.8147624    3.7284083  
O   -1.7894187   -1.5009653    4.3257297  
C    0.0140216    0.0115358    4.4216297  
H    2.2638494    1.8988021    5.0689105  
H    0.0117648    0.0094386    5.5031631  
H    3.3327358    2.7953732    2.7900019  
H    2.1123206    1.7707734    0.8551938  
