62

C   -1.1252703    0.5589541   -9.0959919  
C   -0.1416006   -0.2810233   -9.5642856  
C   -0.2179357   -0.2583224  -10.9884547  
C   -1.2759146    0.6207652  -11.3345933  
N   -1.8066445    1.0981688  -10.1619768  
C   -1.6364197    0.8855866  -12.6592420  
C   -0.9155765    0.2516570  -13.6525675  
O   -1.2253239    0.4747105  -14.9630322  
C    0.1432177   -0.6291974  -13.3271949  
O    0.7640247   -1.1826189  -14.4279522  
C    0.4992390   -0.8911280  -12.0206082  
H    0.5456324   -0.8420539   -8.9544098  
H   -2.5658441    1.7514034  -10.0921102  
H   -2.4418477    1.5544396  -12.9296582  
H   -0.6097839   -0.0576940  -15.4835335  
H    1.4662098   -1.7641454  -14.1207599  
H    1.3146830   -1.5706861  -11.8021361  
C    0.5157024   -0.7055390   -5.2240921  
C   -0.2963293   -0.0005341   -4.3948471  
C   -1.2098550    0.7417636   -5.2310892  
C   -0.8609892    0.4090165   -6.6254931  
N    0.1928754   -0.4724049   -6.5523137  
C   -1.4945014    0.9085670   -7.7167386  
C   -2.5931301    1.8360107   -7.5036702  
O   -3.2264749    2.3405318   -8.4216212  
C   -2.9795611    2.2027194   -6.0353377  
O   -3.9026310    2.9827307   -5.8435417  
C   -2.2228514    1.5995819   -4.9410487  
H   -2.4968363    1.8585227   -3.9273399  
H    1.3229471   -1.3756270   -4.9766497  
H    0.6548727   -0.8845706   -7.3420756  
C    3.1301146   -0.0010313   -1.7028256  
C    2.5367765   -0.0002766   -0.4864669  
C    1.1089901    0.0001027   -0.7656184  
C    1.0177865   -0.0004150   -2.2415133  
N    2.1993571   -0.0011612   -2.7963824  
C   -0.2459219   -0.0002879   -2.9257116  
C   -1.3675326   -0.0000606   -2.1698520  
O   -2.6129318    0.0000865   -2.6748483  
C   -1.3083588    0.0000910   -0.6783229  
O   -2.3693264    0.0004206   -0.0541685  
C    0.0000000    0.0000000    0.0000000  
H    3.0096016   -0.0001007    0.4807518  
H   -3.1967444    0.0002093   -1.8949026  
H    4.1849275   -0.0015114   -1.9271979  
C    2.5311839    2.1237619    3.0120429  
C    1.9795631    1.6616747    1.8395852  
C    0.9223175    0.7739173    2.1983588  
C    0.8753926    0.7337535    3.6154372  
N    1.8668922    1.5631002    4.0777464  
C   -0.0496243   -0.0427881    4.3197917  
C   -0.9437528   -0.7922060    3.5801400  
O   -1.8685244   -1.5680278    4.2172520  
C   -0.9124520   -0.7656372    2.1655264  
O   -1.8671164   -1.5663939    1.5732860  
C    0.0000000    0.0000000    1.4700000  
H    2.3005065    1.9304404    0.8477417  
H    2.0679347    1.7444845    5.0445261  
H   -0.0904770   -0.0778569    5.3997470  
H   -2.3849669   -2.0011402    3.5251786  
H   -1.7775064   -1.4909735    0.6183591  
H    3.3468514    2.8078103    3.1724291  
