60

C    1.7381134   -2.4106925   -7.7312533  
C    2.3757153   -2.6198097   -8.9321700  
C    2.3215154   -1.3896257   -9.6521071  
C    1.6331296   -0.4581736   -8.8332977  
N    1.2912101   -1.1112749   -7.6752101  
C    1.3947915    0.8623992   -9.2258173  
C    1.8601126    1.2498183  -10.4674126  
O    1.6549570    2.5279548  -10.9001828  
C    2.5487963    0.3348922  -11.2989426  
O    2.9486348    0.8722562  -12.5050576  
C    2.7840420   -0.9681144  -10.9124725  
H    2.8237030   -3.5454890   -9.2506348  
H    0.8706447    1.5771487   -8.6064584  
H    2.0531501    2.5860786  -11.7784371  
H    3.4056574    0.1895022  -13.0056385  
H    3.3142604   -1.6461717  -11.5709444  
H    1.5655153   -3.0860333   -6.9108372  
C    0.8351699   -0.7268773   -5.2248492  
C    0.5760703   -0.5103258   -6.5401621  
C   -0.5290502    0.4167166   -6.6044789  
C   -0.8951518    0.7247315   -5.2088114  
N   -0.0307352   -0.0004646   -4.4215603  
C   -1.8962330    1.5652872   -4.8441106  
C   -2.6645254    2.2094346   -5.8964107  
O   -3.5858907    2.9828997   -5.6702737  
C   -2.2943369    1.8976107   -7.3815142  
O   -2.9343350    2.4337812   -8.2760444  
C   -1.1943993    0.9745125   -7.6496159  
H   -2.1484166    1.7776622   -3.8144453  
H   -0.9442735    0.7640677   -8.6805742  
H    1.5856964   -1.3561853   -4.7747704  
C    3.2573670   -0.0002920   -1.5109380  
C    2.5379468   -0.0001709   -0.3591961  
C    1.1435043    0.0000332   -0.7338500  
C    1.1092609   -0.0000082   -2.2088477  
N    2.4227562    0.0001909   -2.6182613  
C   -0.0265532   -0.0002522   -2.9515663  
C   -1.3003035   -0.0002639   -2.2514981  
O   -2.3786784   -0.0004131   -2.8306429  
C   -1.2877725    0.0000312   -0.6895608  
O   -2.3539958    0.0003307   -0.0892036  
C    0.0000000    0.0000000    0.0000000  
H    2.9384091   -0.0000369    0.6389239  
H    4.3270394   -0.0004765   -1.6439446  
H    2.7280494   -0.0013406   -3.5742113  
C    0.0000000    0.0000000    1.4700000  
C    1.0541688    0.0001722    2.3260392  
C    0.5103138    0.0000454    3.6635956  
C   -0.9576371   -0.0002459    3.5155732  
N   -1.2018458    0.0001392    2.1615969  
C   -1.8348311   -0.0008317    4.5510609  
C   -1.2972847   -0.0009736    5.9014604  
O   -2.0050672   -0.0014265    6.9001319  
C    0.2542623   -0.0004184    6.0817573  
O    0.7184670   -0.0002256    7.2139121  
C    1.0974552   -0.0000873    4.8889129  
H    2.0940752    0.0005483    2.0517982  
H   -2.9081052   -0.0011668    4.4207061  
H    2.1707277    0.0000911    5.0223670  
H   -2.1128194   -0.0014912    1.7406791  
