62

C    5.1345889   -0.6930866   -8.6984805  
C    4.6170335    0.5595433   -8.4628486  
C    5.1644602    1.4290895   -9.4521978  
C    6.0161731    0.6441057  -10.2709237  
N    5.9765494   -0.6390469   -9.7845423  
C    6.7254098    1.1751349  -11.3524881  
C    6.5718168    2.5230947  -11.6124713  
O    7.2409109    3.0930826  -12.6567127  
C    5.7268746    3.3229107  -10.8067527  
O    5.6798725    4.6463767  -11.1934981  
C    5.0271015    2.7997648   -9.7394368  
H    6.4738503   -1.4214145  -10.1699950  
H    7.3762550    0.5822238  -11.9802306  
H    6.9960901    4.0275951  -12.6603793  
H    5.0877670    5.1163093  -10.5983697  
H    4.3875699    3.4371554   -9.1400955  
H    4.9708770   -1.6205023   -8.1768898  
C    4.3913908   -0.7046356   -4.2635301  
C    3.2973506   -0.0000934   -3.8752374  
C    2.8435635    0.7418820   -5.0277935  
C    3.7695332    0.4094498   -6.1272747  
N    4.6845877   -0.4715001   -5.5986045  
C    3.6794138    0.9088337   -7.3859249  
C    2.5984069    1.8357536   -7.6770941  
O    2.4323277    2.3400889   -8.7799838  
C    1.6062052    2.2021221   -6.5276973  
O    0.6923303    2.9816918   -6.7608615  
C    1.8057158    1.5992067   -5.2121969  
H    1.1142471    1.8579096   -4.4218379  
H    5.0082528   -1.3743838   -3.6866343  
H    5.4466834   -0.8833671   -6.1051831  
C    3.3321174    0.0004714   -1.3379332  
C    2.6974186    0.0000115   -2.5332308  
C    1.2800441   -0.0002119   -2.2052838  
C    1.2395035    0.0000643   -0.7271293  
N    2.4394063    0.0005458   -0.2131034  
C    0.0000000    0.0000000    0.0000000  
C   -1.1468701    0.0000634   -0.7169542  
O   -2.3742201    0.0000072   -0.1695492  
C   -1.1388767    0.0001606   -2.2096354  
O   -2.2206229    0.0000903   -2.7970413  
C    0.1454526    0.0001815   -2.9324239  
H   -2.9844344    0.0001023   -0.9290168  
H    0.1083580    0.0003680   -4.0135594  
H    4.3940040    0.0007617   -1.1498630  
C    0.8576279    0.7185626    2.2703808  
C    0.0000000    0.0000000    1.4700000  
C   -0.8668858   -0.7285659    2.3373528  
C   -0.4876752   -0.4117774    3.6669281  
N    0.5635254    0.4678311    3.5902241  
C   -1.1297612   -0.9515493    4.7854808  
C   -2.1738724   -1.8268314    4.5576857  
O   -2.8357962   -2.3827064    5.6140350  
C   -2.5667212   -2.1555554    3.2384331  
O   -3.6226318   -3.0413663    3.1773122  
C   -1.9335634   -1.6236449    2.1344818  
H    1.0363952    0.8769718    4.3757045  
H   -0.8454472   -0.7142436    5.8013813  
H   -3.5178062   -2.9546422    5.2385129  
H   -3.8247440   -3.2102924    2.2519915  
H   -2.2566033   -1.8942483    1.1360343  
H    1.6567807    1.3889844    2.0042067  
