66

C    9.9536525   -0.7098565   -1.8544814  
C   11.1947053   -0.4591836   -2.3924588  
C   11.0035970    0.4511596   -3.4738249  
C    9.6134265    0.7227853   -3.5484815  
N    9.0049380    0.0003325   -2.5522787  
C    9.0611979    1.5837828   -4.5016426  
C    9.9281666    2.1816996   -5.3955328  
O    9.4422144    3.0314950   -6.3466960  
C   11.3183035    1.9229668   -5.3372707  
O   12.0492167    2.5938594   -6.2959214  
C   11.8637547    1.0734736   -4.3973925  
H   12.1233679   -0.8814687   -2.0485765  
H    8.0025305    1.7948515   -4.5638952  
H   10.2041401    3.3330643   -6.8583520  
H   12.9770828    2.3640718   -6.1869955  
H   12.9324225    0.8945203   -4.3773488  
H    9.6699772   -1.3401637   -1.0291331  
C    6.7068651   -0.0034180    1.2828883  
C    7.7136027   -0.0021475    0.3453676  
C    7.0885452   -0.0007421   -0.9367797  
C    5.6872998   -0.0009462   -0.7166947  
N    5.4901253   -0.0045362    0.6418804  
C    4.7577216    0.0005129   -1.7610467  
C    5.2516908    0.0025159   -3.0510728  
O    4.3881533    0.0043528   -4.1081028  
C    6.6464198    0.0023764   -3.2909676  
O    6.9801784    0.0041001   -4.6296034  
C    7.5640501    0.0006642   -2.2611728  
H    8.7687021   -0.0033296    0.5592764  
H    4.5960836    0.0050496    1.0985846  
H    4.9330440    0.0052558   -4.9058233  
H    7.9393886    0.0039070   -4.7039038  
H    6.7604661   -0.0050605    2.3581016  
C    3.3041270    0.0001177   -1.5420435  
C    2.5845370   -0.0004780   -0.3695856  
C    1.2040004   -0.0000007   -0.7283590  
C    1.1422370    0.0006038   -2.1454373  
N    2.4348634    0.0026110   -2.6077469  
C   -0.0655187    0.0008799   -2.8497918  
C   -1.2321769    0.0002326   -2.1101398  
O   -2.4392822    0.0001149   -2.7472517  
C   -1.1911211   -0.0000007   -0.6955263  
O   -2.4371526   -0.0002319   -0.1032858  
C    0.0000000    0.0000000    0.0000000  
H    3.0031534   -0.0000661    0.6222578  
H    2.7054623   -0.0071098   -3.5745266  
H   -0.1193555    0.0014846   -3.9297472  
H   -3.1132992   -0.0000646   -2.0551783  
H   -2.3200279   -0.0004070    0.8516411  
C    2.5311839    2.1237619    3.0120429  
C    1.9795631    1.6616747    1.8395852  
C    0.9223175    0.7739173    2.1983588  
C    0.8753926    0.7337535    3.6154372  
N    1.8668922    1.5631002    4.0777464  
C   -0.0496243   -0.0427881    4.3197917  
C   -0.9437528   -0.7922060    3.5801400  
O   -1.8685244   -1.5680278    4.2172520  
C   -0.9124520   -0.7656372    2.1655264  
O   -1.8671164   -1.5663939    1.5732860  
C    0.0000000    0.0000000    1.4700000  
H    2.3005065    1.9304404    0.8477417  
H    2.0679347    1.7444845    5.0445261  
H   -0.0904770   -0.0778569    5.3997470  
H   -2.3849669   -2.0011402    3.5251786  
H   -1.7775064   -1.4909735    0.6183591  
H    3.3468514    2.8078103    3.1724291  
