62

C   -6.4191814    2.3718158   -0.8223865  
C   -6.3887624    1.0688124   -1.2625277  
C   -7.5644025    0.4333478   -0.7638759  
C   -8.2800147    1.4064788   -0.0203433  
N   -7.5559413    2.5715514   -0.0745696  
C   -9.4934604    1.1297741    0.6166626  
C   -9.9937607   -0.1525804    0.5007146  
O  -11.1750905   -0.4768370    1.1026547  
C   -9.2942206   -1.1374255   -0.2365378  
O   -9.9219471   -2.3657706   -0.2582716  
C   -8.0969407   -0.8652293   -0.8649932  
H   -7.8212755    3.4401975    0.3532545  
H  -10.0436875    1.8669874    1.1849653  
H  -11.3386890   -1.4070418    0.8996302  
H   -9.3845809   -2.9728196   -0.7762807  
H   -7.5838567   -1.6400847   -1.4225067  
H   -5.7192285    3.1741246   -0.9815259  
C   -3.9849990    0.7198450   -1.9557668  
C   -3.2941076    0.0012878   -2.9038237  
C   -4.2599031   -0.7267530   -3.6599958  
C   -5.5339487   -0.4096640   -3.1231643  
N   -5.3307597    0.4696096   -2.0886553  
C   -6.7219427   -0.9488993   -3.6258414  
C   -6.6219977   -1.8239429   -4.6900250  
O   -7.7506394   -2.3792946   -5.2198990  
C   -5.3598478   -2.1529600   -5.2391535  
O   -5.4267873   -3.0384776   -6.2949576  
C   -4.1874277   -1.6215791   -4.7435812  
H   -7.6960711   -0.7113624   -3.2210543  
H   -7.4602831   -2.9511454   -5.9423566  
H   -4.5326439   -3.2076307   -6.6072041  
H   -3.2353058   -1.8923965   -5.1847160  
H   -3.6241831    1.3899478   -1.1943646  
C    0.0000000    0.0000000    0.0000000  
C    1.0541688   -0.0001723   -0.8560392  
C    0.5103136   -0.0000455   -2.1935956  
C   -0.9576373    0.0002461   -2.0455730  
N   -1.2018460   -0.0001389   -0.6915968  
C   -1.8348314    0.0008319   -3.0810607  
C   -1.2972851    0.0009739   -4.4314603  
O   -2.0050676    0.0014268   -5.4301316  
C    0.2542619    0.0004184   -4.6117572  
O    0.7184666    0.0002257   -5.7439122  
C    1.0974551    0.0000873   -3.4189129  
H    2.0940752   -0.0005484   -0.5817983  
H    2.1707276   -0.0000912   -3.5523673  
H   -2.1128194    0.0014915   -0.2706789  
C    0.0000000    0.0000000    1.4700000  
C    1.0662921    0.0000102    2.3034270  
C    0.4961870   -0.0000064    3.6418889  
C   -0.9663858    0.0000850    3.4240247  
N   -1.2632773    0.0000084    2.1528658  
C   -1.8985362    0.0000517    4.5177257  
C   -1.3925775   -0.0004564    5.7720543  
O   -2.1456383   -0.0005410    6.8851312  
C    0.0786232   -0.0009323    6.0245000  
O    0.4683759   -0.0012588    7.1921102  
C    1.0143166   -0.0008442    4.8859032  
H    2.1107198   -0.0000632    2.0421868  
H   -2.9622183    0.0003270    4.3293377  
H   -1.5042274   -0.0009692    7.6184419  
H    2.0724152   -0.0013148    5.1109744  
