64

C   -0.2111155   -1.0786110   -9.5372804  
C   -0.3348080   -0.7024485  -10.8547283  
C   -0.5936456    0.7002288  -10.8646887  
C   -0.6165105    1.1288552   -9.5127700  
N   -0.3826699    0.0235705   -8.7328456  
C   -0.8457999    2.4580086   -9.1445765  
C   -1.0555317    3.3711552  -10.1596400  
O   -1.2837993    4.6821970   -9.8562002  
C   -1.0368847    2.9627406  -11.5145081  
O   -1.2628495    3.9895815  -12.4077496  
C   -0.8110151    1.6516165  -11.8784620  
H   -0.2501168   -1.3585514  -11.7040515  
H   -0.8646196    2.7910550   -8.1160200  
H   -1.4031353    5.1405583  -10.6981793  
H   -1.2336892    3.6291069  -13.2992724  
H   -0.8027290    1.3685225  -12.9245332  
H   -0.0155128   -2.0461743   -9.1077232  
C    2.2783848   -2.0910257   -5.9524491  
C    1.7853127   -1.6292412   -4.7744381  
C    0.6997750   -0.7327360   -5.0949402  
C    0.6001070   -0.7099364   -6.5667883  
N    1.5849254   -1.5536735   -7.0262771  
C   -0.3061439    0.0202236   -7.2648431  
C   -1.2459581    0.8383996   -6.5165965  
O   -2.1000519    1.5316274   -7.0534957  
C   -1.1584127    0.8296992   -4.9570889  
O   -1.9441938    1.5148020   -4.3164307  
C   -0.1387079    0.0017019   -4.3179684  
H    2.1415245   -1.8870541   -3.7929803  
H    3.0901479   -2.7785183   -6.1264730  
H    1.7699542   -1.7505092   -7.9927487  
C    3.3041273    0.0001178   -1.5420428  
C    2.5845373   -0.0004780   -0.3695851  
C    1.2040007   -0.0000007   -0.7283589  
C    1.1422374    0.0006038   -2.1454372  
N    2.4348641    0.0026111   -2.6077464  
C   -0.0655179    0.0008799   -2.8497918  
C   -1.2321766    0.0002325   -2.1101402  
O   -2.4392814    0.0001148   -2.7472522  
C   -1.1911209   -0.0000007   -0.6955266  
O   -2.4371528   -0.0002320   -0.1032862  
C    0.0000000    0.0000000    0.0000000  
H    3.0031533   -0.0000660    0.6222584  
H    2.7054631   -0.0071097   -3.5745261  
H   -3.1132988   -0.0000648   -2.0551787  
H   -2.3200282   -0.0004072    0.8516409  
H    4.3686625    0.0004073   -1.7024290  
C    2.5311839    2.1237619    3.0120429  
C    1.9795631    1.6616747    1.8395852  
C    0.9223175    0.7739173    2.1983588  
C    0.8753926    0.7337535    3.6154372  
N    1.8668922    1.5631002    4.0777464  
C   -0.0496243   -0.0427881    4.3197917  
C   -0.9437528   -0.7922060    3.5801400  
O   -1.8685244   -1.5680278    4.2172520  
C   -0.9124520   -0.7656372    2.1655264  
O   -1.8671164   -1.5663939    1.5732860  
C    0.0000000    0.0000000    1.4700000  
H    2.3005065    1.9304404    0.8477417  
H    2.0679347    1.7444845    5.0445261  
H   -0.0904770   -0.0778569    5.3997470  
H   -2.3849669   -2.0011402    3.5251786  
H   -1.7775064   -1.4909735    0.6183591  
H    3.3468514    2.8078103    3.1724291  
