62

C   -8.0669888   -0.5572301   -2.9965330  
C   -8.3774776    0.2823655   -1.9519551  
C   -9.7963389    0.2598802   -1.8072932  
C  -10.3019897   -0.6186886   -2.7994426  
N   -9.2255727   -1.0960033   -3.5052135  
C  -11.6664887   -0.8831796   -2.9510189  
C  -12.5363590   -0.2494471   -2.0850595  
O  -13.8789923   -0.4721947   -2.1886622  
C  -12.0510985    0.6308909   -1.0888947  
O  -13.0425852    1.1841740   -0.3052014  
C  -10.7051389    0.8924954   -0.9389580  
H   -7.6686147    0.8430102   -1.3669901  
H   -9.2739968   -1.7489064   -4.2663666  
H  -12.0582567   -1.5516369   -3.7052645  
H  -14.2980118    0.0599998   -1.4998540  
H  -12.6304549    1.7653461    0.3413212  
H  -10.3631400    1.5716597   -0.1667851  
C   -3.9877627    0.7060338   -1.9730979  
C   -3.2941076    0.0012878   -2.9038237  
C   -4.2616237   -0.7404937   -3.6774571  
C   -5.5852979   -0.4077256   -3.1171519  
N   -5.3499626    0.4732136   -2.0868834  
C   -6.7614337   -0.9068529   -3.5746248  
C   -6.7208869   -1.8338311   -4.6933757  
O   -7.7257850   -2.3379508   -5.1774661  
C   -5.3299840   -2.2005531   -5.3022342  
O   -5.2832945   -2.9801745   -6.2441849  
C   -4.1317825   -1.5978942   -4.7234697  
H   -3.1726434   -1.8568414   -5.1509306  
H   -3.6184115    1.3757280   -1.2135067  
H   -6.0587599    0.8852726   -1.5082127  
C    0.0000000    0.0000000    0.0000000  
C    1.0541688   -0.0001723   -0.8560392  
C    0.5103136   -0.0000455   -2.1935956  
C   -0.9576373    0.0002461   -2.0455730  
N   -1.2018460   -0.0001389   -0.6915968  
C   -1.8348314    0.0008319   -3.0810607  
C   -1.2972851    0.0009739   -4.4314603  
O   -2.0050676    0.0014268   -5.4301316  
C    0.2542619    0.0004184   -4.6117572  
O    0.7184666    0.0002257   -5.7439122  
C    1.0974551    0.0000873   -3.4189129  
H    2.0940752   -0.0005484   -0.5817983  
H    2.1707276   -0.0000912   -3.5523673  
H   -2.1128194    0.0014915   -0.2706789  
C    1.1188642   -0.0008217    2.2703808  
C    0.0000000    0.0000000    1.4700000  
C   -1.1323862   -0.0008904    2.3373528  
C   -0.6382662   -0.0019682    3.6669281  
N    0.7324016   -0.0038477    3.5902241  
C   -1.4770914   -0.0027325    4.7854808  
C   -2.8395474   -0.0020958    4.5576857  
O   -3.7039201   -0.0024443    5.6140350  
C   -3.3517868   -0.0013946    3.2384331  
O   -4.7300496   -0.0012389    3.1773122  
C   -2.5248543   -0.0009135    2.1344818  
H    1.3576314    0.0056174    4.3757045  
H   -1.1067570   -0.0036993    5.8013813  
H   -4.5940033   -0.0021850    5.2385129  
H   -4.9934601   -0.0007286    2.2519915  
H   -2.9462578   -0.0005617    1.1360343  
H    2.1619896   -0.0009344    2.0042067  
