62

C    0.6675599   -0.7200189   -5.1594013  
C   -0.1496426   -0.0015617   -4.3176960  
C   -1.0591328    0.7259461   -5.1412001  
C   -0.7463754    0.4086505   -6.4878378  
N    0.3079380   -0.4702285   -6.4630981  
C   -1.4437241    0.9473687   -7.5733226  
C   -2.4757934    1.8220988   -7.2942917  
O   -3.1898683    2.3769422   -8.3166711  
C   -2.8026938    2.1513147   -5.9572915  
O   -3.8548535    3.0364713   -5.8441467  
C   -2.1149953    1.6204442   -4.8859502  
H    0.7413906   -0.8795062   -7.2709297  
H   -1.2101819    0.7096716   -8.6019917  
H   -3.8527242    2.9486458   -7.9079640  
H   -4.0107587    3.2057906   -4.9100012  
H   -2.3881064    1.8914032   -3.8728017  
H    1.4794294   -1.3897680   -4.9329880  
C    3.3003539    0.0005272   -1.4738994  
C    2.5232807    0.0003493   -2.6090753  
C    1.1623195   -0.0001323   -2.1820106  
C    1.1711880    0.0000582   -0.7636143  
N    2.4852298   -0.0014922   -0.3662365  
C    0.0000000    0.0000000    0.0000000  
C   -1.2020387    0.0000519   -0.6806475  
O   -2.3759248    0.0003494    0.0157747  
C   -1.2314661   -0.0005114   -2.0955507  
O   -2.5054400   -0.0008040   -2.6250174  
C   -0.0764524   -0.0007276   -2.8495195  
H    2.8919944   -0.0005625   -3.6205309  
H    2.8036264    0.0088180    0.5858657  
H   -3.0835644    0.0000351   -0.6418811  
H   -2.4360058   -0.0011530   -3.5845915  
C    6.7690591    0.0043484   -4.2725618  
C    5.4996696    0.0030868   -3.8032776  
C    5.6352789    0.0013737   -2.3547931  
C    7.0947599    0.0017547   -2.1170974  
N    7.7645131    0.0035769   -3.2375511  
C    7.6497397    0.0004320   -0.7915476  
C    6.7859643   -0.0008086    0.2492336  
O    7.1644559   -0.0021282    1.5387232  
C    5.3077380   -0.0008527    0.0418521  
O    4.5810518   -0.0021439    1.0354042  
C    4.7630501    0.0004753   -1.3275413  
H    4.5843327    0.0033833   -4.3700527  
H    8.7202887    0.0005404   -0.6472006  
H    6.3302586   -0.0027647    2.0419806  
H    7.0973373    0.0057984   -5.2997934  
C    0.8175213    0.6860729    2.3021913  
C    0.0000000    0.0000000    1.4700000  
C   -0.8887526   -0.7456559    2.3478473  
C   -0.4549825   -0.3816753    3.7138435  
N    0.5448156    0.4573574    3.6934124  
C   -1.0945674   -0.9182058    4.8835240  
C   -2.1210866   -1.7789155    4.6970523  
O   -2.8083856   -2.3554314    5.6976972  
C   -2.5824069   -2.1655116    3.3310774  
O   -3.5227682   -2.9541547    3.2362962  
C   -1.9100805   -1.6015804    2.1470656  
H   -0.7567140   -0.6349833    5.8697035  
H   -3.4728268   -2.9124471    5.2533954  
H   -2.2742832   -1.9066565    1.1752040  
H    1.6189533    1.3585343    2.0405121  
