64

C   10.2319373    2.0697923   -2.2029236  
C   11.4395022    1.5585339   -1.7871488  
C   11.1672037    0.6848529   -0.6930120  
C    9.7642359    0.7031156   -0.4849880  
N    9.2270146    1.5554589   -1.4174689  
C    9.1383572   -0.0454680    0.5163545  
C    9.9434003   -0.8269540    1.3221855  
O    9.3841940   -1.5781510    2.3151641  
C   11.3452163   -0.8581616    1.1304743  
O   12.0087807   -1.6844326    2.0138208  
C   11.9633707   -0.1197152    0.1429985  
H   12.3987653    1.7880171   -2.2185952  
H    8.2498214    1.7614745   -1.5205797  
H   10.1121422   -2.0402457    2.7508530  
H   12.9496389   -1.6479616    1.8161864  
H   13.0392285   -0.1637322    0.0202375  
H   10.0081146    2.7617426   -2.9966903  
C    5.6607710   -0.0084428   -2.2933928  
C    6.9286313   -0.0216963   -1.7597063  
C    6.7831040   -0.0221735   -0.3407554  
C    5.3917941   -0.0090797   -0.0650520  
N    4.7390840    0.0009613   -1.2727298  
C    4.8785171   -0.0061458    1.2354581  
C    5.7862931   -0.0169277    2.2766136  
O    5.3393781   -0.0149873    3.5662943  
C    7.1783061   -0.0296907    2.0217529  
O    7.9524028   -0.0389772    3.1636948  
C    7.6853791   -0.0323190    0.7390227  
H    7.8455927   -0.0288938   -2.3237303  
H    3.8192266    0.0039564    1.4522609  
H    6.1255180   -0.0233901    4.1277015  
H    8.8785315   -0.0473412    2.9032746  
H    5.3410171   -0.0035083   -3.3213484  
C    3.2798077    0.0005856   -1.4499661  
C    2.5571132    0.0005565   -2.5996564  
C    1.1637425    0.0001547   -2.2210366  
C    1.1336959   -0.0000200   -0.7459475  
N    2.4483509   -0.0001429   -0.3402730  
C    0.0000000    0.0000000    0.0000000  
C   -1.2757370   -0.0000187   -0.6964411  
O   -2.3524597   -0.0000640   -0.1142306  
C   -1.2676502   -0.0000874   -2.2584078  
O   -2.3355774   -0.0004102   -2.8557287  
C    0.0181551    0.0001758   -2.9516297  
H    2.9547342    0.0006074   -3.5989118  
H    0.0150776    0.0003317   -4.0331632  
H    2.7563626    0.0012823    0.6148051  
C    0.8676693    0.7151171    2.2619005  
C    0.5875920    0.4624972    3.5848544  
C   -0.5048400   -0.4542819    3.6114698  
C   -0.8517165   -0.7276451    2.2635546  
N    0.0000000    0.0000000    1.4700000  
C   -1.8902865   -1.5946756    1.9108239  
C   -2.5912627   -2.1969500    2.9375057  
O   -3.6148162   -3.0527051    2.6493466  
C   -2.2603868   -1.9365747    4.2886322  
O   -3.0513550   -2.6123276    5.1947621  
C   -1.2361111   -1.0811317    4.6373480  
H    1.1060808    0.8876438    4.4271209  
H   -2.1597133   -1.8070987    0.8854031  
H   -3.9636755   -3.3565188    3.4974381  
H   -2.7621927   -2.3810384    6.0827341  
H   -1.0058879   -0.9010589    5.6809233  
H    1.6167816    1.3499334    1.8205408  
