62

C   -3.9663677    0.7104439   -6.3519878  
C   -5.3140537    0.4602000   -6.4685626  
C   -5.4762866   -0.4482905   -7.5561862  
C   -4.1817794   -0.7192805   -8.0687698  
N   -3.2883813    0.0017550   -7.3160641  
C   -3.9608637   -1.5785036   -9.1493815  
C   -5.0668670   -2.1752667   -9.7227985  
O   -4.9081644   -3.0233156  -10.7804559  
C   -6.3665504   -1.9171425   -9.2257947  
O   -7.3641088   -2.5867252   -9.9039376  
C   -6.5852579   -1.0693996   -8.1599491  
H   -6.0854312    0.8815759   -5.8469420  
H   -2.9767615   -1.7890788   -9.5448580  
H   -5.7931599   -3.3243222  -11.0242632  
H   -8.2093569   -2.3574593   -9.5056948  
H   -7.5922497   -0.8908737   -7.8013757  
H   -3.4352376    1.3394957   -5.6583355  
C    0.0139742    0.0003878   -4.4216236  
C    1.0657034    0.0004476   -5.2806583  
C    0.5180451    0.0007112   -6.6166624  
C   -0.9494787    0.0008302   -6.4644642  
N   -1.1898345    0.0002249   -5.1097987  
C   -1.8296152    0.0014750   -7.4974515  
C   -1.2959129    0.0018670   -8.8493753  
O   -2.0065337    0.0023910   -9.8460291  
C    0.2551150    0.0014974   -9.0340855  
O    0.7160969    0.0015157  -10.1675560  
C    1.1016984    0.0010811   -7.8436448  
H    2.1063859    0.0001391   -5.0093774  
H    2.1745868    0.0010324   -7.9801520  
H   -2.0996068    0.0017007   -4.6862906  
C    3.2798085    0.0005856   -1.4499646  
C    2.5571146    0.0005565   -2.5996553  
C    1.1637435    0.0001548   -2.2210360  
C    1.1336964   -0.0000200   -0.7459470  
N    2.4483515   -0.0001429   -0.3402716  
C    0.0000000    0.0000000    0.0000000  
C   -1.2757368   -0.0000187   -0.6964415  
O   -2.3524594   -0.0000640   -0.1142314  
C   -1.2676495   -0.0000873   -2.2584081  
O   -2.3355761   -0.0004101   -2.8557295  
C    0.0181563    0.0001759   -2.9516296  
H    2.9547358    0.0006075   -3.5989104  
H    4.3498547    0.0008611   -1.3200019  
H    2.7563628    0.0012823    0.6148064  
C    2.5285572    2.1210227    2.9438989  
C    1.9331703    1.6216660    4.0790748  
C    0.8903039    0.7472258    3.6520102  
C    0.8972198    0.7527806    2.2336141  
N    1.9028376    1.5986179    1.8362361  
C    0.0000000    0.0000000    1.4700000  
C   -0.9207814   -0.7726952    2.1506477  
O   -1.8198395   -1.5274828    1.4542253  
C   -0.9436862   -0.7911793    3.5655508  
O   -1.9197945   -1.6098497    4.0950179  
C   -0.0590329   -0.0485852    4.3195194  
H    2.2150357    1.8593692    5.0905303  
H    2.1533708    1.7953814    0.8841339  
H   -2.3621246   -1.9821033    2.1118817  
H   -1.8668290   -1.5649508    5.0545920  
H   -0.1007624   -0.0827977    5.4019087  
H    3.3491200    2.8096064    2.8367138  
