64

C   -3.9582760    0.7120058   -2.0436188  
C   -5.3029541    0.4626404   -2.1923631  
C   -5.4397014   -0.4462353   -3.2831635  
C   -4.1334667   -0.7183544   -3.7644416  
N   -3.2578668    0.0024075   -2.9908496  
C   -3.8873084   -1.5782237   -4.8390672  
C   -4.9796641   -2.1744844   -5.4385752  
O   -4.7962429   -3.0231259   -6.4917497  
C   -6.2907081   -1.9152347   -4.9729900  
O   -7.2721903   -2.5844372   -5.6745620  
C   -6.5343135   -1.0668536   -3.9130690  
H   -6.0887189    0.8848335   -1.5896018  
H   -2.8941553   -1.7896600   -5.2107429  
H   -5.6753504   -3.3236326   -6.7565737  
H   -8.1265825   -2.3544052   -5.2968003  
H   -3.4434885    1.3410074   -1.3377083  
C    0.0000000    0.0000000    0.0000000  
C    1.0521662   -0.0011926   -0.8862348  
C    0.4917201   -0.0011978   -2.1979136  
C   -0.9187443    0.0003152   -2.0478679  
N   -1.1833179   -0.0009398   -0.7007910  
C   -1.7951714    0.0010364   -3.1372085  
C   -1.2375860    0.0005225   -4.4010420  
O   -2.0474239    0.0015367   -5.4997571  
C    0.1673556   -0.0013588   -4.5711966  
O    0.5673499   -0.0020723   -5.8915559  
C    1.0325755   -0.0023445   -3.4969896  
H    2.0953053   -0.0030687   -0.6200571  
H   -2.0989783    0.0102402   -0.2891815  
H   -1.4634913    0.0006492   -6.2693588  
H    1.5290683   -0.0033204   -5.9180051  
H    2.1042132   -0.0039660   -3.6584464  
C   -8.4193645    0.3905461   -3.0592223  
C   -7.9113172   -0.8235304   -3.4596884  
C   -8.9679449   -1.7749602   -3.3460238  
C  -10.1064698   -1.0773602   -2.8674418  
N   -9.7382834    0.2347817   -2.7020958  
C  -11.3350847   -1.7033614   -2.6363196  
C  -11.4159212   -3.0582082   -2.8932884  
O  -12.5918950   -3.7191248   -2.6852323  
C  -10.2908722   -3.7716916   -3.3708075  
O  -10.5311168   -5.1143252   -3.5780764  
C   -9.0784238   -3.1548264   -3.5987838  
H  -10.3417438    0.9711319   -2.3833397  
H  -12.2065239   -1.1773409   -2.2714955  
H  -12.4322980   -4.6417937   -2.9228822  
H   -9.7213242   -5.5220639   -3.8999283  
H   -8.2341849   -3.7274529   -3.9646224  
H   -7.9448715    1.3549916   -2.9987186  
C    3.3321173   -0.0004715    2.8079335  
C    2.6974184   -0.0000116    4.0032312  
C    1.2800439    0.0002118    3.6752840  
C    1.2395035   -0.0000644    2.1971295  
N    2.4394063   -0.0005460    1.6831036  
C    0.0000000    0.0000000    1.4700000  
C   -1.1468701   -0.0000635    2.1869543  
O   -2.3742202   -0.0000073    1.6395491  
C   -1.1388768   -0.0001607    3.6796354  
O   -2.2206231   -0.0000905    4.2670412  
C    0.1454524   -0.0001816    4.4024240  
H    3.1367986    0.0000651    4.9860947  
H   -2.9844344   -0.0001026    2.3990168  
H    0.1083576   -0.0003682    5.4835595  
H    4.3940039   -0.0007619    2.6198634  
