62

C   -8.4555463    0.6905839   -2.1678879  
C   -9.7101000    0.6442288   -1.6053815  
C  -10.1675329   -0.7021021   -1.7182872  
C   -9.1406935   -1.4378395   -2.3634374  
N   -8.1165488   -0.5616593   -2.6243042  
C   -9.2488575   -2.8040062   -2.6403455  
C  -10.4147250   -3.4390832   -2.2587589  
O  -10.5726628   -4.7723535   -2.5046444  
C  -11.4507542   -2.7220568   -1.6142949  
O  -12.5482825   -3.4955983   -1.2974238  
C  -11.3448440   -1.3742275   -1.3410449  
H  -10.2318749    1.4784329   -1.1685189  
H   -8.4699176   -3.3704325   -3.1318908  
H  -11.4442559   -5.0115441   -2.1635010  
H  -13.2006553   -2.9355807   -0.8656883  
H  -12.1551457   -0.8516108   -0.8463118  
H   -7.7763155    1.5181266   -2.2809214  
C   -3.9884051    0.7039232   -1.8242583  
C   -3.3460097   -0.0004262   -2.7913647  
C   -4.3537581   -0.7427567   -3.5112428  
C   -5.6451795   -0.4107427   -2.8797465  
N   -5.3546451    0.4703284   -1.8637777  
C   -6.8441771   -0.9105381   -3.2725754  
C   -6.8640254   -1.8374909   -4.3919057  
O   -7.8934846   -2.3421816   -4.8206281  
C   -5.5080969   -2.2034208   -5.0755417  
O   -5.5122777   -2.9830138   -6.0186631  
C   -4.2805270   -1.6000813   -4.5627984  
H   -3.3459156   -1.8584818   -5.0418127  
H   -3.5786585    1.3738261   -1.0858631  
H   -6.0311467    0.8819829   -1.2473904  
C    0.0000000    0.0000000    0.0000000  
C    1.0662919   -0.0000103   -0.8334272  
C    0.4961868    0.0000066   -2.1718889  
C   -0.9663860   -0.0000849   -1.9540248  
N   -1.2632775   -0.0000084   -0.6828659  
C   -1.8985364   -0.0000515   -3.0477258  
C   -1.3925778    0.0004567   -4.3020543  
O   -2.1456385    0.0005412   -5.4151314  
C    0.0786229    0.0009326   -4.5544999  
O    0.4683756    0.0012594   -5.7221104  
C    1.0143162    0.0008443   -3.4159034  
H    2.1107195    0.0000631   -0.5721869  
H   -1.5042277    0.0009692   -6.1484420  
H    2.0724151    0.0013151   -3.6409746  
C    3.3041272   -0.0001177    3.0120429  
C    2.5845372    0.0004780    1.8395852  
C    1.2040006    0.0000008    2.1983588  
C    1.1422373   -0.0006037    3.6154372  
N    2.4348639   -0.0026109    4.0777464  
C   -0.0655181   -0.0008797    4.3197917  
C   -1.2321768   -0.0002324    3.5801400  
O   -2.4392816   -0.0001146    4.2172520  
C   -1.1911209    0.0000007    2.1655264  
O   -2.4371527    0.0002320    1.5732860  
C    0.0000000    0.0000000    1.4700000  
H    3.0031534    0.0000661    0.8477417  
H    2.7054629    0.0071099    5.0445261  
H   -0.1193549   -0.0014844    5.3997470  
H   -3.1132988    0.0000648    3.5251786  
H   -2.3200282    0.0004071    0.6183591  
H    4.3686625   -0.0004071    3.1724291  
