64

C   -0.0046830   -0.9858419   -9.5540827  
C   -0.1539926   -0.5697673  -10.8567936  
C   -0.4104113    0.8328829  -10.8190883  
C   -0.4054684    1.2203611   -9.4546238  
N   -0.1581093    0.0916584   -8.7133673  
C   -0.6249214    2.5380225   -9.0418309  
C   -0.8532273    3.4817737  -10.0243731  
O   -1.0729862    4.7832935   -9.6768604  
C   -0.8624094    3.1145923  -11.3910886  
O   -1.1043024    4.1683129  -12.2481207  
C   -0.6462577    1.8148276  -11.7990292  
H   -0.0874930   -1.1999274  -11.7271204  
H   -0.6225715    2.8397614   -8.0034909  
H   -1.2082875    5.2671117  -10.5020150  
H   -1.0936250    3.8349917  -13.1505548  
H   -0.6593979    1.5635619  -12.8531512  
H    0.1976954   -1.9662196   -9.1580255  
C    2.5715460   -2.1234228   -6.0298477  
C    2.0605229   -1.6614591   -4.8390866  
C    0.9917285   -0.7734885   -5.1612467  
C    0.8962444   -0.7330736   -6.5758760  
N    1.8711847   -1.5624824   -7.0720513  
C   -0.0522657    0.0437219   -7.2479663  
C   -0.9203935    0.7931399   -6.4779637  
O   -1.8663528    1.5692039   -7.0828604  
C   -0.8406070    0.7663227   -5.0652602  
O   -1.7742823    1.5671138   -4.4404977  
C    0.0950446    0.0004351   -4.4015596  
H    2.4152486   -1.9304417   -3.8588769  
H    2.0389303   -1.7437287   -8.0451867  
H   -2.3586956    2.0022709   -6.3734118  
H   -1.6519910    1.4915158   -3.4892176  
H    3.3811320   -2.8075600   -6.2182240  
C    3.3321173    0.0004713   -1.3379338  
C    2.6974181    0.0000116   -2.5332314  
C    1.2800438   -0.0002119   -2.2052841  
C    1.2395034    0.0000643   -0.7271299  
N    2.4394062    0.0005460   -0.2131038  
C    0.0000000    0.0000000    0.0000000  
C   -1.1468702    0.0000634   -0.7169543  
O   -2.3742203    0.0000074   -0.1695487  
C   -1.1388770    0.0001607   -2.2096355  
O   -2.2206234    0.0000905   -2.7970411  
C    0.1454522    0.0001815   -2.9324241  
H    3.1367984   -0.0000653   -3.5160950  
H   -2.9844346    0.0001026   -0.9290167  
H    4.3940038    0.0007618   -1.1498640  
C    2.5285572    2.1210227    2.9438989  
C    1.9331703    1.6216660    4.0790748  
C    0.8903039    0.7472258    3.6520102  
C    0.8972198    0.7527806    2.2336141  
N    1.9028376    1.5986179    1.8362361  
C    0.0000000    0.0000000    1.4700000  
C   -0.9207814   -0.7726952    2.1506477  
O   -1.8198395   -1.5274828    1.4542253  
C   -0.9436862   -0.7911793    3.5655508  
O   -1.9197945   -1.6098497    4.0950179  
C   -0.0590329   -0.0485852    4.3195194  
H    2.2150357    1.8593692    5.0905303  
H    2.1533708    1.7953814    0.8841339  
H   -2.3621246   -1.9821033    2.1118817  
H   -1.8668290   -1.5649508    5.0545920  
H   -0.1007624   -0.0827977    5.4019087  
H    3.3491200    2.8096064    2.8367138  
