64

C    4.7478847   -0.0092925   -7.4405219  
C    3.4679034   -0.0068213   -7.9446141  
C    3.5804200   -0.0075699   -9.3665636  
C    4.9650079   -0.0108395   -9.6745109  
N    5.6456644   -0.0098604   -8.4823184  
C    5.4479397   -0.0127003  -10.9865943  
C    4.5161632   -0.0115408  -12.0063828  
O    4.9329955   -0.0136120  -13.3060993  
C    3.1303927   -0.0079105  -11.7192551  
O    2.3299267   -0.0067510  -12.8429089  
C    2.6532527   -0.0057999  -10.4250917  
H    2.5642687   -0.0036305   -7.3594411  
H    6.6447908   -0.0221680   -8.3844610  
H    6.5019548   -0.0150493  -11.2279446  
H    4.1339840   -0.0120261  -13.8490925  
H    1.4100621   -0.0043020  -12.5610463  
H    1.5861307   -0.0028457  -10.2360954  
C    2.4861703   -0.0045381   -3.7159920  
C    3.4691533   -0.0057441   -2.7857654  
C    4.7077412   -0.0077544   -3.5489140  
C    4.2744113   -0.0075884   -4.9627066  
N    2.9732089   -0.0056260   -5.0669057  
C    5.2170323   -0.0092333   -6.0473955  
C    6.5327406   -0.0105761   -5.7339555  
O    7.5212013   -0.0121902   -6.6444400  
C    7.0015512   -0.0104088   -4.3167833  
O    8.2141960   -0.0118090   -4.1053329  
C    6.0150639   -0.0087515   -3.2219023  
H    3.3664297   -0.0052313   -1.7140736  
H    8.3418866   -0.0128280   -6.1194373  
H    6.3952610   -0.0085679   -2.2091437  
C    0.0000000    0.0000000    0.0000000  
C    1.0521669   -0.0011901   -0.8862341  
C    0.4917220   -0.0011956   -2.1979132  
C   -0.9187428    0.0003148   -2.0478684  
N   -1.1833170   -0.0009411   -0.7007915  
C   -1.7951699    0.0010351   -3.1372091  
C   -1.2375836    0.0005225   -4.4010425  
O   -2.0474210    0.0015361   -5.4997584  
C    0.1673583   -0.0013566   -4.5711960  
O    0.5673528   -0.0020686   -5.8915549  
C    1.0325772   -0.0023411   -3.4969890  
H    2.0953059   -0.0030648   -0.6200562  
H   -2.0989777    0.0102372   -0.2891825  
H   -2.8710931    0.0020419   -3.0295515  
H   -1.4634882    0.0006497   -6.2693594  
H    1.5290713   -0.0033151   -5.9180046  
C    1.1188642   -0.0008217    2.2703808  
C    0.0000000    0.0000000    1.4700000  
C   -1.1323862   -0.0008904    2.3373528  
C   -0.6382662   -0.0019682    3.6669281  
N    0.7324016   -0.0038477    3.5902241  
C   -1.4770914   -0.0027325    4.7854808  
C   -2.8395474   -0.0020958    4.5576857  
O   -3.7039201   -0.0024443    5.6140350  
C   -3.3517868   -0.0013946    3.2384331  
O   -4.7300496   -0.0012389    3.1773122  
C   -2.5248543   -0.0009135    2.1344818  
H    1.3576314    0.0056174    4.3757045  
H   -1.1067570   -0.0036993    5.8013813  
H   -4.5940033   -0.0021850    5.2385129  
H   -4.9934601   -0.0007286    2.2519915  
H   -2.9462578   -0.0005617    1.1360343  
H    2.1619896   -0.0009344    2.0042067  
