64

C    3.4139327   -0.7157106   -3.0486430  
C    2.4521480    0.0014830   -3.7217483  
C    3.1196678    0.7293942   -4.7509045  
C    4.4992575    0.4136353   -4.6562809  
N    4.6435344   -0.4647552   -3.6111822  
C    5.4593789    0.9531296   -5.5176186  
C    5.0187445    1.8270698   -6.4924252  
O    5.9138847    2.3826163   -7.3602413  
C    3.6464060    2.1547521   -6.6025488  
O    3.3663363    3.0392793   -7.6235855  
C    2.6987037    1.6231153   -5.7529906  
H    5.5104848   -0.8729912   -3.3116471  
H    6.5123601    0.7166040   -5.4506373  
H    5.4042989    2.9535767   -7.9498100  
H    2.4191006    3.2075626   -7.6289354  
H    1.6547132    1.8928996   -5.8615160  
H    3.3203042   -1.3852968   -2.2108799  
C    0.0000000    0.0000000    0.0000000  
C    1.0662921   -0.0000106   -0.8334269  
C    0.4961870    0.0000059   -2.1718889  
C   -0.9663856   -0.0000854   -1.9540246  
N   -1.2632773   -0.0000087   -0.6828657  
C   -1.8985362   -0.0000522   -3.0477258  
C   -1.3925773    0.0004558   -4.3020541  
O   -2.1456384    0.0005402   -5.4151311  
C    0.0786236    0.0009315   -4.5544999  
O    0.4683762    0.0012578   -5.7221098  
C    1.0143167    0.0008435   -3.4159031  
H    2.1107198    0.0000631   -0.5721865  
H   -1.5042271    0.0009682   -6.1484419  
C   -4.4234435    2.1223642   -0.0294726  
C   -3.3650552    1.6607018   -0.7772358  
C   -3.9025220    0.7730943   -1.7559504  
C   -5.3060598    0.7325801   -1.5550351  
N   -5.5885468    1.5615826   -0.4978818  
C   -6.1607755   -0.0439299   -2.3432496  
C   -5.5882321   -0.7929551   -3.3528700  
O   -6.3766925   -1.5687283   -4.1525694  
C   -4.1898432   -0.7660330   -3.5687435  
O   -3.7729986   -1.5664208   -4.6122781  
C   -3.3460094   -0.0004268   -2.7913647  
H   -2.3324968    1.9296469   -0.6341110  
H   -6.5054886    1.7426746   -0.1312695  
H   -7.2312981   -0.0792646   -2.1951467  
H   -5.7851984   -2.0015463   -4.7819085  
H   -2.8170934   -1.4907775   -4.6905557  
H   -4.4392676    2.8061855    0.8018500  
C    3.3041272   -0.0001177    3.0120429  
C    2.5845372    0.0004780    1.8395852  
C    1.2040006    0.0000008    2.1983588  
C    1.1422373   -0.0006037    3.6154372  
N    2.4348639   -0.0026109    4.0777464  
C   -0.0655181   -0.0008797    4.3197917  
C   -1.2321768   -0.0002324    3.5801400  
O   -2.4392816   -0.0001146    4.2172520  
C   -1.1911209    0.0000007    2.1655264  
O   -2.4371527    0.0002320    1.5732860  
C    0.0000000    0.0000000    1.4700000  
H    3.0031534    0.0000661    0.8477417  
H    2.7054629    0.0071099    5.0445261  
H   -0.1193549   -0.0014844    5.3997470  
H   -3.1132988    0.0000648    3.5251786  
H   -2.3200282    0.0004071    0.6183591  
H    4.3686625   -0.0004071    3.1724291  
