62

C   -8.1392608   -0.5342863   -2.5872502  
C   -8.3367250    0.3158831   -1.5239126  
C   -9.7378967    0.3306521   -1.2572653  
C  -10.3497230   -0.5371354   -2.1977649  
N   -9.3508887   -1.0441387   -2.9914238  
C  -11.7285489   -0.7664946   -2.2297505  
C  -12.5038284   -0.1080638   -1.2950902  
O  -13.8556622   -0.2961334   -1.2813729  
C  -11.9119149    0.7620322   -0.3488405  
O  -12.8174857    1.3429802    0.5147490  
C  -10.5517697    0.9889831   -0.3168744  
H   -7.5658384    0.8594864   -1.0050463  
H   -9.4816095   -1.6975969   -3.7423467  
H  -12.2010182   -1.4265639   -2.9440926  
H  -14.1998296    0.2486075   -0.5616014  
H  -12.3362801    1.9149775    1.1204427  
H  -10.1270449    1.6610970    0.4195696  
C   -4.0230211    0.6852477   -1.8410565  
C   -3.3460097   -0.0004262   -2.7913647  
C   -4.3652414   -0.7461030   -3.5136064  
C   -5.6347339   -0.3825697   -2.8481622  
N   -5.4404330    0.4562399   -1.8670223  
C   -6.8979173   -0.9192523   -3.2741038  
C   -6.8931414   -1.7796800   -4.3176440  
O   -7.9981919   -2.3562936   -4.8200580  
C   -5.6284695   -2.1658222   -5.0102183  
O   -5.6989686   -2.9542261   -5.9529108  
C   -4.3454707   -1.6017431   -4.5545291  
H   -7.6764567   -2.9130446   -5.5519513  
H   -3.4519528   -1.9064880   -5.0827208  
H   -3.6257280    1.3575928   -1.0973603  
C    0.0000000    0.0000000    0.0000000  
C    1.0662919   -0.0000103   -0.8334272  
C    0.4961868    0.0000066   -2.1718889  
C   -0.9663860   -0.0000849   -1.9540248  
N   -1.2632775   -0.0000084   -0.6828659  
C   -1.8985364   -0.0000515   -3.0477258  
C   -1.3925778    0.0004567   -4.3020543  
O   -2.1456385    0.0005412   -5.4151314  
C    0.0786229    0.0009326   -4.5544999  
O    0.4683756    0.0012594   -5.7221104  
C    1.0143162    0.0008443   -3.4159034  
H    2.1107195    0.0000631   -0.5721869  
H   -1.5042277    0.0009692   -6.1484420  
H    2.0724151    0.0013151   -3.6409746  
C    3.3003543   -0.0005276    2.9438989  
C    2.5232812   -0.0003497    4.0790748  
C    1.1623199    0.0001319    3.6520102  
C    1.1711883   -0.0000583    2.2336141  
N    2.4852299    0.0014920    1.8362361  
C    0.0000000    0.0000000    1.4700000  
C   -1.2020384   -0.0000520    2.1506477  
O   -2.3759250   -0.0003494    1.4542253  
C   -1.2314658    0.0005113    3.5655508  
O   -2.5054393    0.0008037    4.0950179  
C   -0.0764518    0.0007272    4.3195194  
H    2.8919952    0.0005619    5.0905303  
H    2.8036267   -0.0088181    0.8841339  
H   -3.0835639   -0.0000348    2.1118817  
H   -2.4360050    0.0011527    5.0545920  
H   -0.1304098    0.0013421    5.4019087  
H    4.3715549   -0.0004895    2.8367138  
