62

C    1.1188645    0.0008219   -0.8003801  
C    0.0000000    0.0000000    0.0000000  
C   -1.1323858    0.0008903   -0.8673532  
C   -0.6382657    0.0019682   -2.1969279  
N    0.7324024    0.0038480   -2.1202239  
C   -1.4770905    0.0027327   -3.3154810  
C   -2.8395466    0.0020957   -3.0876862  
O   -3.7039187    0.0024444   -4.1440358  
C   -3.3517864    0.0013947   -1.7684340  
O   -4.7300491    0.0012386   -1.7073135  
C   -2.5248541    0.0009133   -0.6644822  
H    1.3576322   -0.0056170   -2.9057038  
H   -4.5940022    0.0021850   -3.7685142  
H   -4.9934602    0.0007281   -0.7819926  
H   -2.9462578    0.0005613    0.3339650  
H    2.1619892    0.0009347   -0.5342060  
C    1.8836773   -2.1362888   -5.0810760  
C    1.8358587   -1.7275861   -6.3703605  
C    0.7030375   -0.8169587   -6.4333925  
C    0.1677643   -0.7920094   -5.0551895  
N    0.8558152   -1.5634005   -4.2579875  
C   -0.9736285    0.0040472   -4.6965764  
C   -1.5536710    0.7419478   -5.6704285  
O   -2.6247557    1.5303591   -5.4774864  
C   -1.0366279    0.7382189   -7.0707186  
O   -1.6142376    1.4340398   -7.9058361  
C    0.1355216   -0.0866888   -7.4135265  
H    2.4887441   -2.0092009   -7.1787595  
H   -2.8038801    1.9233579   -6.3507666  
H    0.4792093   -0.0617345   -8.4389466  
C    3.8655120   -3.6958688   -5.0878071  
C    2.8381505   -3.0666541   -4.4611556  
C    2.8667586   -3.4868523   -3.0800511  
C    4.0031664   -4.4191104   -2.9525296  
N    4.5666162   -4.5030972   -4.2048715  
C    4.3657250   -5.0362768   -1.7995499  
C    3.5844222   -4.7643588   -0.6044928  
O    3.8309624   -5.2711159    0.4821149  
C    2.3764288   -3.7804816   -0.7164885  
O    1.7111171   -3.5440781    0.2828782  
C    2.0837243   -3.1764471   -2.0139160  
H    5.2029066   -5.7166031   -1.7274869  
H    1.2457652   -2.4961683   -2.0829753  
H    4.1693049   -3.6379442   -6.1203979  
H    5.3654581   -5.0628400   -4.4406390  
C    0.8576279    0.7185626    2.2703808  
C    0.0000000    0.0000000    1.4700000  
C   -0.8668858   -0.7285659    2.3373528  
C   -0.4876752   -0.4117774    3.6669281  
N    0.5635254    0.4678311    3.5902241  
C   -1.1297612   -0.9515493    4.7854808  
C   -2.1738724   -1.8268314    4.5576857  
O   -2.8357962   -2.3827064    5.6140350  
C   -2.5667212   -2.1555554    3.2384331  
O   -3.6226318   -3.0413663    3.1773122  
C   -1.9335634   -1.6236449    2.1344818  
H    1.0363952    0.8769718    4.3757045  
H   -0.8454472   -0.7142436    5.8013813  
H   -3.5178062   -2.9546422    5.2385129  
H   -3.8247440   -3.2102924    2.2519915  
H   -2.2566033   -1.8942483    1.1360343  
H    1.6567807    1.3889844    2.0042067  
