62

C   -4.8193593    2.1247743   -4.4446810  
C   -3.7464661    1.6622318   -5.1709184  
C   -4.2647603    0.7748474   -6.1601201  
C   -5.6720869    0.7353700   -5.9874917  
N   -5.9752010    1.5647487   -4.9363638  
C   -6.5113201   -0.0406587   -6.7926344  
C   -5.9191078   -0.7902597   -7.7904124  
O   -6.6918687   -1.5656007   -8.6057051  
C   -4.5166382   -0.7643733   -7.9780981  
O   -4.0794473   -1.5652309   -9.0129095  
C   -3.6880742    0.0007577   -7.1840059  
H   -2.7168050    1.9304621   -5.0070787  
H   -6.8992057    1.7465566   -4.5883107  
H   -7.5846321   -0.0752036   -6.6661060  
H   -6.0881372   -1.9989457   -9.2229447  
H   -3.1221063   -1.4902844   -9.0719402  
H   -4.8514235    2.8087439   -3.6139486  
C   -0.2963294   -0.0005341   -4.3948471  
C    0.7278651   -0.0010067   -5.2865309  
C    0.1384639   -0.0010230   -6.6046519  
C   -1.3235478   -0.0004881   -6.4063792  
N   -1.5211840   -0.0006099   -5.0448251  
C   -2.2357336    0.0000549   -7.4111778  
C   -1.7448097   -0.0001093   -8.7792165  
O   -2.4864213    0.0002817   -9.7530304  
C   -0.2003578   -0.0009260   -9.0126110  
O    0.2247513   -0.0013774  -10.1600175  
C    0.6832431   -0.0011828   -7.8493818  
H    1.7765638   -0.0014917   -5.0481108  
H    1.7513078   -0.0015434   -8.0195610  
H   -2.4171880    0.0012266   -4.5929169  
C    3.1301143   -0.0010313   -1.7028257  
C    2.5367765   -0.0002767   -0.4864669  
C    1.1089900    0.0001027   -0.7656184  
C    1.0177864   -0.0004150   -2.2415133  
N    2.1993571   -0.0011613   -2.7963824  
C   -0.2459220   -0.0002879   -2.9257116  
C   -1.3675327   -0.0000606   -2.1698519  
O   -2.6129319    0.0000866   -2.6748482  
C   -1.3083588    0.0000910   -0.6783229  
O   -2.3693264    0.0004206   -0.0541685  
C    0.0000000    0.0000000    0.0000000  
H    3.0096014   -0.0001008    0.4807517  
H   -3.1967445    0.0002093   -1.8949025  
H    4.1849272   -0.0015113   -1.9271980  
C    0.0000000    0.0000000    1.4700000  
C    1.0521667    0.0011902    2.3562342  
C    0.4917218    0.0011957    3.6679131  
C   -0.9187428   -0.0003148    3.5178682  
N   -1.1833171    0.0009411    2.1707914  
C   -1.7951701   -0.0010350    4.6072090  
C   -1.2375837   -0.0005224    5.8710424  
O   -2.0474215   -0.0015360    6.9697579  
C    0.1673580    0.0013566    6.0411963  
O    0.5673524    0.0020687    7.3615553  
C    1.0325770    0.0023412    4.9669890  
H    2.0953057    0.0030649    2.0900562  
H   -2.0989778   -0.0102372    1.7591824  
H   -2.8710934   -0.0020419    4.4995513  
H   -1.4634884   -0.0006497    7.7393593  
H    1.5290710    0.0033153    7.3880045  
H    2.1042148    0.0039609    5.1284455  
