64

C    2.1106077   -1.9150145   -7.7804345  
C    3.1904615   -2.7527177   -7.9373922  
C    3.5480820   -2.7168289   -9.3177616  
C    2.6434958   -1.8324109   -9.9592089  
N    1.7828293   -1.3646524   -8.9974024  
C    2.6999682   -1.5547310  -11.3283303  
C    3.6877969   -2.1810450  -12.0632485  
O    3.7883995   -1.9453666  -13.4038998  
C    4.5994365   -3.0670410  -11.4413638  
O    5.5243109   -3.6116593  -12.3081637  
C    4.5441467   -3.3416556  -10.0907881  
H    3.6616850   -3.3207341   -7.1536199  
H    1.0375049   -0.7105054   -9.1541324  
H    2.0134037   -0.8817570  -11.8232422  
H    4.5328750   -2.4742666  -13.7189972  
H    6.1012782   -4.1974325  -11.8085812  
H    5.2559658   -4.0248802   -9.6424614  
C    1.5647268   -2.0539605   -5.3222414  
C    1.3415396   -1.5772678   -6.5740504  
C    0.2114928   -0.6825502   -6.4885493  
C   -0.2083727   -0.6770014   -5.0741691  
N    0.6518900   -1.5286394   -4.4202953  
C   -1.2456329    0.0471727   -4.5828766  
C   -1.9989043    0.8763050   -5.5089746  
O   -2.9500477    1.5652086   -5.1639547  
C   -1.5719696    0.8855379   -7.0114550  
O   -2.1988660    1.5795073   -7.8005478  
C   -0.4365507    0.0630004   -7.4214648  
H   -0.1472075    0.0751441   -8.4635094  
H    2.3191290   -2.7449941   -4.9827736  
H    0.6225288   -1.7350431   -3.4386728  
C    1.1243410    0.0099923   -0.7919003  
C    0.7474076    0.0234544   -2.1148543  
C   -0.6787381    0.0234490   -2.1414700  
C   -1.1201745    0.0098592   -0.7935546  
N    0.0000000    0.0000000    0.0000000  
C   -2.4730816    0.0063709   -0.4408240  
C   -3.3971958    0.0170982   -1.4675058  
O   -4.7313517    0.0146259   -1.1793471  
C   -2.9763648    0.0303504   -2.8186324  
O   -4.0166480    0.0395118   -3.7247624  
C   -1.6418562    0.0335260   -3.1673481  
H    1.4178717    0.0310972   -2.9571209  
H   -2.8160166   -0.0041111    0.5845966  
H   -5.1938818    0.0230867   -2.0274384  
H   -3.6464675    0.0482293   -4.6127343  
H    2.1062467    0.0052819   -0.3505407  
C    2.5285572    2.1210227    2.9438989  
C    1.9331703    1.6216660    4.0790748  
C    0.8903039    0.7472258    3.6520102  
C    0.8972198    0.7527806    2.2336141  
N    1.9028376    1.5986179    1.8362361  
C    0.0000000    0.0000000    1.4700000  
C   -0.9207814   -0.7726952    2.1506477  
O   -1.8198395   -1.5274828    1.4542253  
C   -0.9436862   -0.7911793    3.5655508  
O   -1.9197945   -1.6098497    4.0950179  
C   -0.0590329   -0.0485852    4.3195194  
H    2.2150357    1.8593692    5.0905303  
H    2.1533708    1.7953814    0.8841339  
H   -2.3621246   -1.9821033    2.1118817  
H   -1.8668290   -1.5649508    5.0545920  
H   -0.1007624   -0.0827977    5.4019087  
H    3.3491200    2.8096064    2.8367138  
