66

C    4.4068094    0.0858813   -8.0830880  
C    5.4521477   -0.5621968   -8.6993116  
C    5.4417958   -0.1611604  -10.0681283  
C    4.3586493    0.7403197  -10.2295376  
N    3.7501979    0.8665934   -9.0054214  
C    4.0480202    1.3376498  -11.4548924  
C    4.8455318    1.0193738  -12.5369521  
O    4.5869618    1.5744959  -13.7567865  
C    5.9305564    0.1217901  -12.3959475  
O    6.6292936   -0.0937311  -13.5658447  
C    6.2374163   -0.4680727  -11.1874664  
H    6.1371320   -1.2413948   -8.2213154  
H    2.9568598    1.4497198   -8.8090569  
H    3.2237758    2.0254156  -11.5845162  
H    5.2521208    1.2234219  -14.3630654  
H    7.3444456   -0.7109622  -13.3836718  
H    7.0746293   -1.1518593  -11.1100821  
C    5.9329384   -2.1252339   -4.5701439  
C    5.0131318   -1.6623127   -3.6579341  
C    4.1427217   -0.7751636   -4.3579004  
C    4.5839726   -0.7362136   -5.7053817  
N    5.6738279   -1.5656661   -5.7994100  
C    3.9561505    0.0394654   -6.6846424  
C    2.8627887    0.7892521   -6.2966255  
O    2.2121666    1.5642683   -7.2126249  
C    2.4077029    0.7638903   -4.9568228  
O    1.3079543    1.5648735   -4.7280808  
C    3.0267438   -0.0008951   -3.9901699  
H    4.9749616   -1.9301460   -2.6159160  
H    6.1938216   -1.7478112   -6.6387020  
H    1.4899378    1.9978178   -6.7396724  
H    1.0650890    1.4902878   -3.8001490  
H    6.7541926   -2.8091834   -4.4408594  
C    3.3003547    0.0005277   -1.4738986  
C    2.5232816    0.0003497   -2.6090746  
C    1.1623203   -0.0001319   -2.1820102  
C    1.1711884    0.0000584   -0.7636141  
N    2.4852301   -0.0014919   -0.3662359  
C    0.0000000    0.0000000    0.0000000  
C   -1.2020383    0.0000520   -0.6806479  
O   -2.3759248    0.0003493    0.0157745  
C   -1.2314655   -0.0005115   -2.0955511  
O   -2.5054388   -0.0008040   -2.6250184  
C   -0.0764513   -0.0007274   -2.8495195  
H    2.8036266    0.0088183    0.5858662  
H   -3.0835639    0.0000346   -0.6418822  
H   -2.4360043   -0.0011529   -3.5845924  
H   -0.1304091   -0.0013423   -3.9319089  
H    4.3715553    0.0004897   -1.3667133  
C    2.5311839    2.1237619    3.0120429  
C    1.9795631    1.6616747    1.8395852  
C    0.9223175    0.7739173    2.1983588  
C    0.8753926    0.7337535    3.6154372  
N    1.8668922    1.5631002    4.0777464  
C   -0.0496243   -0.0427881    4.3197917  
C   -0.9437528   -0.7922060    3.5801400  
O   -1.8685244   -1.5680278    4.2172520  
C   -0.9124520   -0.7656372    2.1655264  
O   -1.8671164   -1.5663939    1.5732860  
C    0.0000000    0.0000000    1.4700000  
H    2.3005065    1.9304404    0.8477417  
H    2.0679347    1.7444845    5.0445261  
H   -0.0904770   -0.0778569    5.3997470  
H   -2.3849669   -2.0011402    3.5251786  
H   -1.7775064   -1.4909735    0.6183591  
H    3.3468514    2.8078103    3.1724291  
