60

C    5.6484568    0.0004439   -0.6807742  
C    4.7161324   -0.0005436   -1.6923263  
C    5.4371285   -0.0001080   -2.9230842  
C    6.8175142    0.0008760   -2.5968006  
N    6.9105273    0.0031395   -1.2271436  
C    7.8240137    0.0012220   -3.5672374  
C    7.4298413    0.0002555   -4.8911726  
O    8.3714604    0.0001894   -5.8792857  
C    6.0574641   -0.0003586   -5.2367109  
O    5.8267423   -0.0008767   -6.5968982  
C    5.0639869   -0.0004269   -4.2798782  
H    7.7671531   -0.0062908   -0.7036119  
H    8.8778481    0.0021150   -3.3250882  
H    7.8889788   -0.0002466   -6.7162298  
H    4.8759898   -0.0013000   -6.7441177  
H    4.0211717   -0.0007220   -4.5748589  
H    5.5130312    0.0008845    0.3872233  
C    3.2573666   -0.0002920   -1.5109384  
C    2.5379463   -0.0001710   -0.3591964  
C    1.1435039    0.0000331   -0.7338498  
C    1.1092600   -0.0000083   -2.2088476  
N    2.4227554    0.0001909   -2.6182613  
C   -0.0265538   -0.0002524   -2.9515660  
C   -1.3003040   -0.0002640   -2.2514976  
O   -2.3786789   -0.0004133   -2.8306420  
C   -1.2877727    0.0000311   -0.6895603  
O   -2.3539960    0.0003306   -0.0892032  
C    0.0000000    0.0000000    0.0000000  
H    2.9384090   -0.0000368    0.6389236  
H    2.7280484   -0.0013407   -3.5742118  
C   -0.0307367   -0.0004647   -4.4215603  
C    1.0331796   -0.0004859   -5.2580175  
C    0.4592683   -0.0007211   -6.5948518  
C   -1.0026786   -0.0009311   -6.3728269  
N   -1.2959519   -0.0007014   -5.1008285  
C   -1.9379374   -0.0011514   -7.4638709  
C   -1.4355500   -0.0007726   -8.7196348  
O   -2.1917748   -0.0009261   -9.8305646  
C    0.0349264   -0.0001822   -8.9762653  
O    0.4213551    0.0000156  -10.1449798  
C    0.9738559   -0.0000098   -7.8403359  
H    2.0783466   -0.0002676   -4.9997505  
H   -3.0010791   -0.0015087   -7.2724571  
H   -1.5524533   -0.0005380  -10.5656975  
H    2.0313096    0.0005368   -8.0684168  
C    2.3971438    2.0127888    3.1728260  
C    1.9431056    1.6308205    1.9564670  
C    0.8496017    0.7127664    2.2356185  
C    0.7794028    0.6545384    3.7115134  
N    1.6840587    1.4146091    4.2663826  
C   -0.1885723   -0.1578550    4.3957118  
C   -1.0476298   -0.8789867    3.6398520  
O   -2.0015663   -1.6796266    4.1448486  
C   -1.0022026   -0.8410666    2.1483229  
O   -1.8147390   -1.5232959    1.5241687  
C    0.0000000    0.0000000    1.4700000  
H    2.3054237    1.9346118    0.9892483  
H   -0.2170646   -0.1815267    5.4753125  
H   -2.4487139   -2.0549881    3.3649027  
H    3.2048689    2.6911772    3.3971983  
