64

C    0.6936364   -0.7066092   -5.1527423  
C    0.3462075   -0.4553039   -6.4598788  
C   -0.7528349    0.4534785   -6.4312305  
C   -1.0341488    0.7235441   -5.0674660  
N   -0.1387078    0.0017020   -4.3179686  
C   -2.0601483    1.5827608   -4.6626688  
C   -2.8157353    2.1804681   -5.6526245  
O   -3.8298699    3.0285554   -5.3130769  
C   -2.5506562    1.9232747   -7.0187873  
O   -3.3906535    2.5937332   -7.8837924  
C   -1.5388172    1.0755385   -7.4188523  
H    0.8251967   -0.8761773   -7.3273058  
H   -2.2797241    1.7926347   -3.6249113  
H   -4.2227235    3.3302846   -6.1424690  
H   -3.1443863    2.3650610   -8.7852723  
H    1.4683925   -1.3361781   -4.7498095  
C    3.3041276    0.0001172   -1.5420425  
C    2.5845373   -0.0004780   -0.3695850  
C    1.2040005   -0.0000006   -0.7283594  
C    1.1422376    0.0006036   -2.1454376  
N    2.4348643    0.0026109   -2.6077465  
C   -0.0655178    0.0008799   -2.8497917  
C   -1.2321765    0.0002326   -2.1101405  
O   -2.4392812    0.0001152   -2.7472524  
C   -1.1911209   -0.0000006   -0.6955270  
O   -2.4371527   -0.0002315   -0.1032863  
C    0.0000000    0.0000000    0.0000000  
H    3.0031535   -0.0000663    0.6222585  
H    2.7054635   -0.0071100   -3.5745262  
H   -3.1132985   -0.0000644   -2.0551792  
H   -2.3200282   -0.0004068    0.8516404  
H    4.3686626    0.0004069   -1.7024289  
C   -0.4877220   -2.6140624   -9.7148710  
C   -0.8026306   -1.7258973   -8.7126422  
C   -0.9737432   -0.4495342   -9.3260084  
C   -0.7490588   -0.6221754  -10.7158419  
N   -0.4544041   -1.9477466  -10.9174782  
C   -0.8342955    0.4303529  -11.6321972  
C   -1.1524380    1.6798651  -11.1365352  
O   -1.2490726    2.7427200  -11.9874260  
C   -1.3798173    1.8722005   -9.7530168  
O   -1.6864467    3.1743719   -9.4158613  
C   -1.2956341    0.8343652   -8.8483966  
H   -0.8962876   -1.9679403   -7.6678282  
H   -0.2586526   -2.3699486  -11.8070895  
H   -0.6640555    0.3053553  -12.6926677  
H   -1.4764833    3.5080782  -11.4435729  
H   -1.8249990    3.2177339   -8.4647957  
H   -0.2828381   -3.6698435   -9.6668266  
C    0.8175213    0.6860729    2.3021913  
C    0.0000000    0.0000000    1.4700000  
C   -0.8887526   -0.7456559    2.3478473  
C   -0.4549825   -0.3816753    3.7138435  
N    0.5448156    0.4573574    3.6934124  
C   -1.0945674   -0.9182058    4.8835240  
C   -2.1210866   -1.7789155    4.6970523  
O   -2.8083856   -2.3554314    5.6976972  
C   -2.5824069   -2.1655116    3.3310774  
O   -3.5227682   -2.9541547    3.2362962  
C   -1.9100805   -1.6015804    2.1470656  
H   -0.7567140   -0.6349833    5.8697035  
H   -3.4728268   -2.9124471    5.2533954  
H   -2.2742832   -1.9066565    1.1752040  
H    1.6189533    1.3585343    2.0405121  
