60

C    6.6682528    0.0022276   -4.3668306  
C    5.4175879    0.0023082   -3.7938518  
C    5.6072947    0.0015089   -2.3801294  
C    7.0065883    0.0012480   -2.1479613  
N    7.6213768   -0.0002536   -3.3754184  
C    7.5601877    0.0007902   -0.8640932  
C    6.6852685    0.0008989    0.2048754  
O    7.1721933    0.0008179    1.4799905  
C    5.2859246    0.0007829   -0.0064390  
O    4.5477721    0.0004894    1.1590968  
C    4.7390844    0.0009612   -1.2727295  
H    4.4834523    0.0017681   -4.3289999  
H    8.6137254    0.0097951   -3.5274770  
H    8.6257738    0.0004455   -0.6804402  
H    6.4039029    0.0006185    2.0656479  
H    3.6139324    0.0004556    0.9276926  
H    6.9558189    0.0022981   -5.4042622  
C    3.2798077    0.0005856   -1.4499659  
C    2.5571132    0.0005565   -2.5996562  
C    1.1637425    0.0001548   -2.2210364  
C    1.1336957   -0.0000200   -0.7459472  
N    2.4483508   -0.0001429   -0.3402728  
C    0.0000000    0.0000000    0.0000000  
C   -1.2757370   -0.0000187   -0.6964410  
O   -2.3524597   -0.0000640   -0.1142306  
C   -1.2676501   -0.0000873   -2.2584079  
O   -2.3355772   -0.0004101   -2.8557287  
C    0.0181552    0.0001759   -2.9516296  
H    2.9547343    0.0006074   -3.5989115  
H    2.7563624    0.0012823    0.6148054  
C    2.4064676   -2.0119085   -6.1315545  
C    1.9558531   -1.6301623   -4.9138532  
C    0.8614652   -0.7121807   -5.1897594  
C    0.7870610   -0.6537471   -6.6654401  
N    1.6902123   -1.4136445   -7.2229915  
C   -0.1829404    0.1586453   -7.3467640  
C   -1.0399177    0.8795795   -6.5883591  
O   -1.9953695    1.6801939   -7.0905233  
C   -0.9902426    0.8414490   -5.0969705  
O   -1.8010697    1.5235046   -4.4704083  
C    0.0139724    0.0003878   -4.4216237  
H    2.3209532   -1.9340557   -3.9477133  
H   -0.2145070    0.1824697   -8.4262764  
H   -2.4403345    2.0553968   -6.3092541  
H    3.2136205   -2.6901813   -6.3583224  
C    0.8681109    0.7263879    2.2709268  
C    0.6127770    0.5096195    3.5869401  
C   -0.4920590   -0.4175482    3.6542670  
C   -0.8620974   -0.7254003    2.2596025  
N    0.0000000    0.0000000    1.4700000  
C   -1.8641242   -1.5660088    1.8976294  
C   -2.6293522   -2.2103885    2.9520183  
O   -3.5512764   -2.9839180    2.7283916  
C   -2.2549728   -1.8987399    4.4361073  
O   -2.8923672   -2.4351063    5.3323774  
C   -1.1543735   -0.9755647    4.7012123  
H    1.1382914    0.9492124    4.4159191  
H   -2.1192137   -1.7782617    0.8686553  
H   -0.9013378   -0.7652422    5.7314848  
H    1.6172880    1.3558399    1.8188057  
