60

C    3.8576501    0.7176595   -7.7773225  
C    4.9133809   -0.0003960   -7.2651735  
C    5.4867088   -0.7285095   -8.3494920  
C    4.7325049   -0.4119803   -9.5083333  
N    3.7500611    0.4670444   -9.1252712  
C    5.0169106   -0.9514347  -10.7664627  
C    6.0822722   -1.8261258  -10.8564463  
O    6.4039663   -2.3816700  -12.0609787  
C    6.8464746   -2.1545834   -9.7114890  
O    7.8740216   -3.0398027   -9.9642292  
C    6.5663045   -1.6229859   -8.4699435  
H    3.0665751    0.8758930   -9.7365571  
H    4.4458338   -0.7143238  -11.6535099  
H    7.1666430   -2.9532117  -11.9030890  
H    8.3398246   -3.2085829   -9.1395205  
H    7.1692661   -1.8933732   -7.6109870  
H    3.1719955    1.3876448   -7.2874691  
C    2.5562217   -0.0001551   -3.6003001  
C    3.5148525   -0.0005087   -2.6449957  
C    4.7727386   -0.0006025   -3.3759008  
C    4.3760685   -0.0003758   -4.8004136  
N    3.0779897   -0.0000323   -4.9381841  
C    5.3463906   -0.0003429   -5.8603952  
C    6.6535653   -0.0001393   -5.5130783  
O    7.6652140   -0.0000931   -6.3977299  
C    7.0856175    0.0000110   -4.0842706  
O    8.2923979    0.0000700   -3.8415710  
C    6.0711795   -0.0000700   -3.0152331  
H    3.3844835   -0.0005937   -1.5763148  
H    8.4720652    0.0000902   -5.8517059  
H    6.4250928    0.0001594   -1.9929925  
C    0.0000000    0.0000000    0.0000000  
C    1.0541688   -0.0001722   -0.8560390  
C    0.5103141   -0.0000453   -2.1935955  
C   -0.9576367    0.0002460   -2.0455731  
N   -1.2018459   -0.0001392   -0.6915969  
C   -1.8348307    0.0008318   -3.0810611  
C   -1.2972843    0.0009738   -4.4314606  
O   -2.0050665    0.0014267   -5.4301321  
C    0.2542628    0.0004186   -4.6117570  
O    0.7184676    0.0002258   -5.7439117  
C    1.0974555    0.0000874   -3.4189127  
H    2.0940752   -0.0005483   -0.5817978  
H   -2.9081051    0.0011670   -2.9507061  
H   -2.1128194    0.0014912   -0.2706792  
C    0.0000000    0.0000000    1.4700000  
C    1.0541688    0.0001722    2.3260392  
C    0.5103138    0.0000454    3.6635956  
C   -0.9576371   -0.0002459    3.5155732  
N   -1.2018458    0.0001392    2.1615969  
C   -1.8348311   -0.0008317    4.5510609  
C   -1.2972847   -0.0009736    5.9014604  
O   -2.0050672   -0.0014265    6.9001319  
C    0.2542623   -0.0004184    6.0817573  
O    0.7184670   -0.0002256    7.2139121  
C    1.0974552   -0.0000873    4.8889129  
H    2.0940752    0.0005483    2.0517982  
H   -2.9081052   -0.0011668    4.4207061  
H    2.1707277    0.0000911    5.0223670  
H   -2.1128194   -0.0014912    1.7406791  
