62

C    8.7105012   -0.0061836    0.3163157  
C    7.9365276   -0.0086415    1.4536046  
C    8.8301485   -0.0110138    2.5653768  
C   10.1477940   -0.0095741    2.0402734  
N   10.0390320   -0.0085940    0.6717757  
C   11.2856743   -0.0109147    2.8526875  
C   11.0898302   -0.0134535    4.2200999  
O   12.1661217   -0.0145013    5.0595103  
C    9.7829281   -0.0152973    4.7630742  
O    9.7540839   -0.0181684    6.1423872  
C    8.6599246   -0.0142495    3.9622082  
H    6.8602578   -0.0098206    1.4788002  
H   10.8096516    0.0030741    0.0283564  
H   12.2926280   -0.0099735    2.4586780  
H   11.8115360   -0.0165648    5.9581375  
H    8.8351825   -0.0192373    6.4273827  
H    7.6716143   -0.0158962    4.4068631  
C    4.7161325   -0.0005435   -1.6923264  
C    5.7254240   -0.0020825   -0.7575556  
C    6.9579238   -0.0022074   -1.4755697  
C    6.6349842   -0.0004069   -2.8567408  
N    5.2655550   -0.0013827   -2.9530733  
C    7.6078556    0.0002912   -3.8608872  
C    8.9308324   -0.0005421   -3.4635103  
O    9.9212236    0.0004354   -4.4027326  
C    9.2730455   -0.0027137   -2.0903014  
O   10.6326707   -0.0037267   -1.8562871  
C    8.3138092   -0.0036767   -1.0991450  
H    5.5899958   -0.0041074    0.3104558  
H    4.7441078    0.0100377   -3.8109451  
H    7.3682591    0.0015184   -4.9153037  
H   10.7569961   -0.0006922   -3.9182260  
H   10.7775870   -0.0051581   -0.9051820  
C    3.2573665   -0.0002920   -1.5109385  
C    2.5379463   -0.0001709   -0.3591964  
C    1.1435038    0.0000331   -0.7338500  
C    1.1092599   -0.0000083   -2.2088477  
N    2.4227553    0.0001909   -2.6182613  
C   -0.0265539   -0.0002524   -2.9515660  
C   -1.3003040   -0.0002640   -2.2514977  
O   -2.3786790   -0.0004133   -2.8306421  
C   -1.2877727    0.0000311   -0.6895603  
O   -2.3539959    0.0003306   -0.0892030  
C    0.0000000    0.0000000    0.0000000  
H    2.9384091   -0.0000367    0.6389234  
H   -0.0296303   -0.0004086   -4.0327229  
H    2.7280482   -0.0013407   -3.5742119  
C    0.8175213    0.6860729    2.3021913  
C    0.0000000    0.0000000    1.4700000  
C   -0.8887526   -0.7456559    2.3478473  
C   -0.4549825   -0.3816753    3.7138435  
N    0.5448156    0.4573574    3.6934124  
C   -1.0945674   -0.9182058    4.8835240  
C   -2.1210866   -1.7789155    4.6970523  
O   -2.8083856   -2.3554314    5.6976972  
C   -2.5824069   -2.1655116    3.3310774  
O   -3.5227682   -2.9541547    3.2362962  
C   -1.9100805   -1.6015804    2.1470656  
H   -0.7567140   -0.6349833    5.8697035  
H   -3.4728268   -2.9124471    5.2533954  
H   -2.2742832   -1.9066565    1.1752040  
H    1.6189533    1.3585343    2.0405121  
