60

C    0.9325845    0.0103071   -7.5332649  
C   -0.3571128    0.0105096   -7.0545710  
C   -1.2221804    0.0119072   -8.1887030  
C   -0.3964486    0.0122247   -9.3419995  
N    0.9060467    0.0131831   -8.9082692  
C   -0.9123208    0.0132146  -10.6414859  
C   -2.2868031    0.0135894  -10.7792345  
O   -2.8436534    0.0142007  -12.0254019  
C   -3.1273096    0.0136576   -9.6406540  
O   -4.4733038    0.0144718   -9.9433846  
C   -2.6190817    0.0129547   -8.3583794  
H   -0.6396439    0.0108493   -6.0157403  
H    1.7154941    0.0030390   -9.5021323  
H   -0.2883559    0.0136054  -11.5245883  
H   -3.8010888    0.0146736  -11.8966339  
H   -4.9703211    0.0144351   -9.1196261  
H   -3.2877451    0.0132085   -7.5055210  
C    1.7334697    0.0049246   -3.2500361  
C    3.0863255    0.0047397   -3.2131616  
C    3.4995612    0.0065858   -4.6080573  
C    2.2333965    0.0076343   -5.3718701  
N    1.1947440    0.0067484   -4.5811811  
C    2.2116347    0.0095933   -6.8087448  
C    3.4007174    0.0108544   -7.4532722  
O    3.5293445    0.0127180   -8.7909914  
C    4.6955627    0.0102160   -6.7106176  
O    5.7398275    0.0113184   -7.3623314  
C    4.6914543    0.0081551   -5.2368798  
H    3.7249597    0.0035937   -2.3464319  
H    4.4909160    0.0132669   -8.9476200  
H    5.6504359    0.0078667   -4.7362957  
C    1.1319247    0.0015655   -0.8009267  
C    0.7969916    0.0034943   -2.1169401  
C   -0.6453337    0.0035710   -2.1842668  
C   -1.1266832    0.0015433   -0.7896026  
N    0.0000000    0.0000000    0.0000000  
C   -2.4346130    0.0013964   -0.4276294  
C   -3.4350109    0.0031408   -1.4820183  
O   -4.6384610    0.0030973   -1.2583915  
C   -2.9478956    0.0050505   -2.9661075  
O   -3.7809378    0.0062218   -3.8623775  
C   -1.5113821    0.0053090   -3.2312122  
H   -2.7664565    0.0000232    0.6013446  
H   -1.1823527    0.0068407   -4.2614846  
H    2.1104317    0.0009391   -0.3488056  
C    0.8175213    0.6860729    2.3021913  
C    0.0000000    0.0000000    1.4700000  
C   -0.8887526   -0.7456559    2.3478473  
C   -0.4549825   -0.3816753    3.7138435  
N    0.5448156    0.4573574    3.6934124  
C   -1.0945674   -0.9182058    4.8835240  
C   -2.1210866   -1.7789155    4.6970523  
O   -2.8083856   -2.3554314    5.6976972  
C   -2.5824069   -2.1655116    3.3310774  
O   -3.5227682   -2.9541547    3.2362962  
C   -1.9100805   -1.6015804    2.1470656  
H   -0.7567140   -0.6349833    5.8697035  
H   -3.4728268   -2.9124471    5.2533954  
H   -2.2742832   -1.9066565    1.1752040  
H    1.6189533    1.3585343    2.0405121  
