62

C    0.3544885   -0.5328985   -9.6772525  
C   -0.1490087    0.6979010   -9.3249882  
C    0.2589176    1.6191323  -10.3347050  
C    1.0149465    0.8867254  -11.2854561  
N    1.0551188   -0.4162037  -10.8548979  
C    1.5771924    1.4769833  -12.4213525  
C    1.3722473    2.8312129  -12.6008997  
O    1.8986748    3.4580019  -13.6931545  
C    0.6211065    3.5791193  -11.6632207  
O    0.5066590    4.9163718  -11.9825959  
C    0.0663730    2.9975264  -10.5422640  
H    1.5128940   -1.1713958  -11.3325034  
H    2.1545545    0.9243301  -13.1496598  
H    1.6411077    4.3866356  -13.6256017  
H   -0.0145743    5.3487489  -11.2992452  
H   -0.5039427    3.5960312   -9.8415425  
H    0.2704757   -1.4844941   -9.1808987  
C    0.1164994   -0.7216406   -5.1523579  
C    0.3272679   -0.5036909   -6.4760462  
C   -0.6879586    0.4235561   -6.9169128  
C   -1.5133668    0.7301676   -5.7330712  
N   -0.9736297    0.0040464   -4.6965763  
C   -2.5790078    1.5704696   -5.7354641  
C   -2.9370241    2.2158055   -6.9876225  
O   -3.8800054    2.9891510   -7.0926174  
C   -2.0769088    1.9054770   -8.2539971  
O   -2.3689453    2.4426558   -9.3139097  
C   -0.9518091    0.9825201   -8.1269043  
H    1.1050448   -0.9425518   -7.0752767  
H   -3.1711460    1.7818070   -4.8559078  
H    0.6657025   -1.3515097   -4.4715271  
C    1.1188642    0.0008222   -0.8003808  
C    0.0000000    0.0000000    0.0000000  
C   -1.1323862    0.0008899   -0.8673528  
C   -0.6382663    0.0019679   -2.1969280  
N    0.7324016    0.0038481   -2.1202242  
C   -1.4770914    0.0027318   -3.3154808  
C   -2.8395473    0.0020945   -3.0876857  
O   -3.7039201    0.0024425   -4.1440349  
C   -3.3517868    0.0013931   -1.7684331  
O   -4.7300497    0.0012366   -1.7073121  
C   -2.5248543    0.0009123   -0.6644817  
H    1.3576314   -0.0056167   -2.9057046  
H   -4.5940032    0.0021826   -3.7685128  
H   -4.9934602    0.0007259   -0.7819913  
H   -2.9462577    0.0005603    0.3339659  
H    2.1619895    0.0009355   -0.5342068  
C    2.5128556    2.1077716    2.9199648  
C    1.9592212    1.6432552    4.0696553  
C    0.8915788    0.7479214    3.6910360  
C    0.8684491    0.7287414    2.2159470  
N    1.8754542    1.5738793    1.8102719  
C    0.0000000    0.0000000    1.4700000  
C   -0.9772830   -0.8200135    2.1664417  
O   -1.8021297   -1.5120829    1.5842315  
C   -0.9711318   -0.8147624    3.7284083  
O   -1.7894187   -1.5009653    4.3257297  
C    0.0140216    0.0115358    4.4216297  
H    2.2638494    1.8988021    5.0689105  
H    0.0117648    0.0094386    5.5031631  
H    3.3327358    2.7953732    2.7900019  
H    2.1123206    1.7707734    0.8551938  
