60

C   -8.4068271    0.7329507   -2.5164991  
C   -9.6744331    0.7227229   -1.9821426  
C  -10.1654345   -0.6112560   -2.1005408  
C   -9.1446851   -1.3770392   -2.7198738  
N   -8.0916674   -0.5298430   -2.9607692  
C   -9.2835015   -2.7409300   -2.9943201  
C  -10.4743376   -3.3427976   -2.6367692  
O  -10.6627038   -4.6723350   -2.8814342  
C  -11.5047615   -2.5954731   -2.0182619  
O  -12.6295964   -3.3378615   -1.7233865  
C  -11.3686106   -1.2498678   -1.7474588  
H  -10.1831129    1.5724737   -1.5600507  
H   -8.5093584   -3.3301542   -3.4662510  
H  -11.5478468   -4.8865547   -2.5591045  
H  -13.2760866   -2.7586995   -1.3083856  
H  -12.1753511   -0.7035788   -1.2728905  
H   -7.7031297    1.5414270   -2.6171722  
C   -4.0214240    0.6873775   -1.9917542  
C   -3.2941076    0.0012878   -2.9038237  
C   -4.2729631   -0.7438335   -3.6804419  
C   -5.5765699   -0.3795575   -3.0850458  
N   -5.4354549    0.4591737   -2.0947902  
C   -6.8150156   -0.9155366   -3.5790742  
C   -6.7539672   -1.7760010   -4.6208077  
O   -7.8303767   -2.3520035   -5.1825928  
C   -5.4537106   -2.1628842   -5.2435559  
O   -5.4732706   -2.9512792   -6.1886864  
C   -4.1970811   -1.5995187   -4.7187458  
H   -7.4696188   -2.9089611   -5.8958983  
H   -3.2763256   -1.9047888   -5.1975465  
H   -3.6647949    1.3595210   -1.2275476  
C    0.0000000    0.0000000    0.0000000  
C    1.0541688   -0.0001723   -0.8560392  
C    0.5103136   -0.0000455   -2.1935956  
C   -0.9576373    0.0002461   -2.0455730  
N   -1.2018460   -0.0001389   -0.6915968  
C   -1.8348314    0.0008319   -3.0810607  
C   -1.2972851    0.0009739   -4.4314603  
O   -2.0050676    0.0014268   -5.4301316  
C    0.2542619    0.0004184   -4.6117572  
O    0.7184666    0.0002257   -5.7439122  
C    1.0974551    0.0000873   -3.4189129  
H    2.0940752   -0.0005484   -0.5817983  
H    2.1707276   -0.0000912   -3.5523673  
H   -2.1128194    0.0014915   -0.2706789  
C    1.1319247   -0.0015655    2.2709268  
C    0.7969915   -0.0034943    3.5869401  
C   -0.6453339   -0.0035710    3.6542670  
C   -1.1266833   -0.0015433    2.2596025  
N    0.0000000    0.0000000    1.4700000  
C   -2.4346130   -0.0013964    1.8976294  
C   -3.4350110   -0.0031408    2.9520183  
O   -4.6384611   -0.0030974    2.7283916  
C   -2.9478959   -0.0050506    4.4361073  
O   -3.7809380   -0.0062218    5.3323774  
C   -1.5113823   -0.0053090    4.7012123  
H    1.4821238   -0.0045407    4.4159191  
H   -2.7664565   -0.0000232    0.8686553  
H   -1.1823530   -0.0068408    5.7314848  
H    2.1104316   -0.0009391    1.8188057  
