62

C    0.0000000    0.0000000    0.0000000  
C    0.7161582    0.7708264   -0.8862346  
C    0.3351591    0.3598042   -2.1979133  
C   -0.6248125   -0.6735721   -2.0478680  
N   -0.8037548   -0.8684587   -0.7007909  
C   -1.2211550   -1.3158350   -3.1372086  
C   -0.8417204   -0.9072625   -4.4010424  
O   -1.3930090   -1.5004907   -5.4997571  
C    0.1147669    0.1218130   -4.5711966  
O    0.3872139    0.4146758   -5.8915555  
C    0.7036837    0.7556762   -3.4969895  
H    1.4266810    1.5345665   -0.6200570  
H   -1.4344378   -1.5323841   -0.2891820  
H   -1.9533290   -2.1042084   -3.0295504  
H   -0.9953892   -1.0728501   -6.2693589  
H    1.0419248    1.1191314   -5.9180051  
C    4.4678147    1.7097850   -1.4465424  
C    4.8456965    2.7981262   -2.1654262  
C    3.8269733    3.0168504   -3.1650256  
C    2.8173639    1.9591569   -2.9681412  
N    3.2650980    1.2000144   -1.9116725  
C    1.6934786    1.8202155   -3.7159930  
C    1.4629351    2.7760666   -4.7863826  
O    0.4805698    2.7354962   -5.5155011  
C    2.5191224    3.9043025   -5.0130032  
O    2.3359316    4.7146442   -5.9113624  
C    3.6907669    3.9513943   -4.1418640  
H    4.4172311    4.7357963   -4.3052256  
H    4.9668776    1.2371155   -0.6162355  
H    2.7901917    0.4001999   -1.5350985  
C    8.9643173    1.6342869   -1.1826840  
C    9.5420192    2.8626652   -1.1449743  
C    8.5062314    3.8242615   -1.4404611  
C    7.2688557    3.0498586   -1.6549189  
N    7.6143092    1.7290280   -1.4847498  
C    6.0633189    3.5949206   -1.9570662  
C    5.9789150    5.0407566   -2.0794161  
O    4.9385500    5.6268539   -2.3485470  
C    7.2769218    5.8806230   -1.8566863  
O    7.2181985    7.0986847   -1.9573748  
C    8.5175717    5.1796214   -1.5353803  
H   10.5758130    3.0713218   -0.9343932  
H    9.4117936    5.7684404   -1.3824633  
H    9.4112692    0.6677726   -1.0154300  
H    6.9825593    0.9535021   -1.5653659  
C    3.3003543   -0.0005276    2.9438989  
C    2.5232812   -0.0003497    4.0790748  
C    1.1623199    0.0001319    3.6520102  
C    1.1711883   -0.0000583    2.2336141  
N    2.4852299    0.0014920    1.8362361  
C    0.0000000    0.0000000    1.4700000  
C   -1.2020384   -0.0000520    2.1506477  
O   -2.3759250   -0.0003494    1.4542253  
C   -1.2314658    0.0005113    3.5655508  
O   -2.5054393    0.0008037    4.0950179  
C   -0.0764518    0.0007272    4.3195194  
H    2.8919952    0.0005619    5.0905303  
H    2.8036267   -0.0088181    0.8841339  
H   -3.0835639   -0.0000348    2.1118817  
H   -2.4360050    0.0011527    5.0545920  
H   -0.1304098    0.0013421    5.4019087  
H    4.3715549   -0.0004895    2.8367138  
