62

C    4.1440441   -3.6140112   -5.2049132  
C    5.0931227   -4.4199930   -5.7898153  
C    4.9017495   -4.3322004   -7.2005838  
C    3.8124739   -3.4502675   -7.4187559  
N    3.3745787   -3.0338651   -6.1860871  
C    3.3440362   -3.1285166   -8.6961883  
C    3.9871222   -3.7073844   -9.7730040  
O    3.5707454   -3.4274265  -11.0423594  
C    5.0755455   -4.5901104   -9.5756546  
O    5.6096179   -5.0847361  -10.7476007  
C    5.5380318   -4.9081884   -8.3157109  
H    5.8317304   -5.0007266   -5.2642662  
H    2.5142278   -2.4571775   -8.8691726  
H    4.1463069   -3.9280098  -11.6351594  
H    6.3388203   -5.6717424  -10.5255852  
H    6.3737081   -5.5876983   -8.1957532  
H    3.9541929   -3.4081906   -4.1654168  
C    2.2675097   -2.0960610   -5.9498184  
C    1.7744246   -1.6329634   -4.7723279  
C    0.6888618   -0.7368505   -5.0938399  
C    0.5891927   -0.7157115   -6.5657132  
N    1.5740350   -1.5599379   -7.0242506  
C   -0.3170783    0.0136359   -7.2645893  
C   -1.2569154    0.8326279   -6.5172654  
O   -2.1110288    1.5252265   -7.0549439  
C   -1.1693695    0.8256867   -4.9577486  
O   -1.9551699    1.5114887   -4.3178622  
C   -0.1496415   -0.0015615   -4.3176961  
H    2.1306440   -1.8896606   -3.7905807  
H   -0.3733624    0.0148799   -8.3442836  
H    1.7590690   -1.7578570   -7.9905002  
C    3.3003543    0.0005276   -1.4738987  
C    2.5232814    0.0003497   -2.6090747  
C    1.1623200   -0.0001320   -2.1820103  
C    1.1711883    0.0000582   -0.7636140  
N    2.4852300   -0.0014919   -0.3662360  
C    0.0000000    0.0000000    0.0000000  
C   -1.2020384    0.0000519   -0.6806477  
O   -2.3759249    0.0003493    0.0157743  
C   -1.2314656   -0.0005115   -2.0955510  
O   -2.5054392   -0.0008039   -2.6250180  
C   -0.0764516   -0.0007274   -2.8495195  
H    2.8919955   -0.0005620   -3.6205304  
H    2.8036267    0.0088183    0.5858662  
H   -3.0835638    0.0000347   -0.6418818  
H   -2.4360047   -0.0011529   -3.5845921  
H    4.3715549    0.0004895   -1.3667136  
C    0.8400945    0.7047457    2.2710304  
C    0.0000000    0.0000000    1.4700000  
C   -0.8844236   -0.7423113    2.3369512  
C   -0.4878984   -0.4098547    3.7186280  
N    0.5629682    0.4714286    3.6095011  
C   -1.0836927   -0.9095027    4.8308716  
C   -2.1891196   -1.8367527    4.6554461  
O   -2.7906899   -2.3413415    5.5944904  
C   -2.6257283   -2.2031529    3.2011665  
O   -3.5549479   -2.9829990    3.0410059  
C   -1.9068976   -1.5999348    2.0816745  
H   -0.7774656   -0.6525820    5.8354244  
H   -2.2155208   -1.8586617    1.0779135  
H    1.6384792    1.3747609    1.9961646  
H    1.0518368    0.8833920    4.3830260  
