62

C    1.5646134   -2.3588217   -7.3163786  
C    1.1269580   -1.0555853   -7.3663784  
C    1.8370166   -0.4183117   -8.4267086  
C    2.7010385   -1.3906298   -8.9923844  
N    2.5119006   -2.5569822   -8.2934810  
C    3.5539707   -1.1121381  -10.0646432  
C    3.5340982    0.1712011  -10.5753514  
O    4.3465887    0.4972094  -11.6225344  
C    2.6792573    1.1552585  -10.0242669  
O    2.7757655    2.3847581  -10.6426207  
C    1.8377508    0.8812990   -8.9662775  
H    2.9815549   -3.4254265   -8.4757202  
H    4.2149800   -1.8487242  -10.5002005  
H    4.1780558    1.4278444  -11.8194598  
H    2.1665282    2.9911703  -10.2105344  
H    1.1943037    1.6555875   -8.5651177  
H    1.2770422   -3.1622976   -6.6601105  
C   -0.0037888   -0.7105351   -5.1341627  
C   -1.0641734    0.0073898   -4.6315339  
C   -1.6260116    0.7376864   -5.7203887  
C   -0.8603255    0.4225622   -6.8720602  
N    0.1176069   -0.4577633   -6.4805350  
C   -1.1316216    0.9642906   -8.1321067  
C   -2.1954372    1.8398544   -8.2314166  
O   -2.5045524    2.3976091   -9.4382181  
C   -2.9709733    2.1669366   -7.0937087  
O   -3.9953215    3.0532717   -7.3553654  
C   -2.7037392    1.6330951   -5.8502755  
H   -0.5517519    0.7282599   -9.0137205  
H   -3.2684087    2.9694078   -9.2871066  
H   -4.4693377    3.2210037   -6.5351348  
H   -3.3151860    1.9024710   -4.9970182  
H    0.6764270   -1.3817966   -4.6385080  
C    1.1319248    0.0015675   -0.8009270  
C    0.7969916    0.0034959   -2.1169404  
C   -0.6453336    0.0035703   -2.1842672  
C   -1.1266831    0.0015415   -0.7896027  
N    0.0000000    0.0000000    0.0000000  
C   -2.4346129    0.0013924   -0.4276297  
C   -3.4350110    0.0031352   -1.4820184  
O   -4.6384610    0.0030897   -1.2583919  
C   -2.9478958    0.0050460   -2.9661075  
O   -3.7809377    0.0062160   -3.8623775  
C   -1.5113821    0.0053068   -3.2312125  
H    1.4821240    0.0045436   -2.9459192  
H   -2.7664565    0.0000185    0.6013447  
H    2.1104318    0.0009428   -0.3488058  
C    0.0000000    0.0000000    1.4700000  
C    1.0541688    0.0001722    2.3260392  
C    0.5103138    0.0000454    3.6635956  
C   -0.9576371   -0.0002459    3.5155732  
N   -1.2018458    0.0001392    2.1615969  
C   -1.8348311   -0.0008317    4.5510609  
C   -1.2972847   -0.0009736    5.9014604  
O   -2.0050672   -0.0014265    6.9001319  
C    0.2542623   -0.0004184    6.0817573  
O    0.7184670   -0.0002256    7.2139121  
C    1.0974552   -0.0000873    4.8889129  
H    2.0940752    0.0005483    2.0517982  
H   -2.9081052   -0.0011668    4.4207061  
H    2.1707277    0.0000911    5.0223670  
H   -2.1128194   -0.0014912    1.7406791  
