60

C    6.9446511    0.0027520    2.6999613  
C    5.6521116    0.0018529    3.1709266  
C    5.7279763    0.0024341    4.5953015  
C    7.1041781    0.0039861    4.9388008  
N    7.8153060    0.0021895    3.7645306  
C    7.5531653    0.0052239    6.2628848  
C    6.5954377    0.0051958    7.2583418  
O    6.9786659    0.0067258    8.5683604  
C    5.2175159    0.0032840    6.9356250  
O    4.3883805    0.0030915    8.0382945  
C    4.7738579    0.0017890    5.6296043  
H    4.7638416   -0.0002093    2.5626789  
H    8.8166364    0.0132641    3.6924339  
H    8.6006176    0.0062652    6.5312963  
H    6.1659357    0.0061167    9.0905997  
H    3.4760768    0.0017851    7.7328375  
H    3.7119532    0.0001575    5.4131913  
C    4.7795901    0.0008674   -1.0815733  
C    5.7862015    0.0008770   -1.9861793  
C    7.0047289    0.0013411   -1.1913897  
C    6.5351378    0.0016826    0.2107758  
N    5.2316818    0.0013264    0.2814338  
C    7.4495160    0.0021407    1.3193778  
C    8.7728604    0.0018635    1.0399218  
O    9.7375493    0.0022377    1.9755574  
C    9.2780075    0.0011450   -0.3647086  
O   10.4956959    0.0010506   -0.5448630  
C    8.3200391    0.0007289   -1.4846291  
H    5.7111080    0.0005126   -3.0601606  
H   10.5714816    0.0018716    1.4718616  
H    8.7261888    0.0000955   -2.4872616  
C    3.3321168    0.0004716   -1.3379341  
C    2.6974177    0.0000118   -2.5332316  
C    1.2800432   -0.0002116   -2.2052842  
C    1.2395033    0.0000644   -0.7271298  
N    2.4394059    0.0005460   -0.2131041  
C    0.0000000    0.0000000    0.0000000  
C   -1.1468704    0.0000635   -0.7169542  
O   -2.3742206    0.0000074   -0.1695488  
C   -1.1388774    0.0001608   -2.2096352  
O   -2.2206238    0.0000906   -2.7970409  
C    0.1454514    0.0001818   -2.9324241  
H    3.1367978   -0.0000649   -3.5160956  
H   -2.9844350    0.0001027   -0.9290164  
H    0.1083567    0.0003684   -4.0135594  
C    2.5528530    2.1414826    2.8079335  
C    2.0663498    1.7338582    4.0032312  
C    0.9804344    0.8229586    3.6752840  
C    0.9495562    0.7966882    2.1971295  
N    1.8690446    1.5676019    1.6831036  
C    0.0000000    0.0000000    1.4700000  
C   -0.8785127   -0.7372425    2.1869543  
O   -1.8187535   -1.5261249    1.6395491  
C   -0.8723269   -0.7321790    3.6796354  
O   -1.7010379   -1.4274584    4.2670412  
C    0.1115397    0.0933559    4.4024240  
H    2.4028853    2.0163452    4.9860947  
H   -2.2861435   -1.9184361    2.3990168  
H    0.0832434    0.0693689    5.4835595  
H    3.3664920    2.8238276    2.6198634  
