60

C   -3.9849596    0.7194519   -1.9554403  
C   -3.2941075    0.0012873   -2.9038235  
C   -4.2599432   -0.7263565   -3.6603265  
C   -5.5339713   -0.4094414   -3.1233509  
N   -5.3307339    0.4693513   -2.0884424  
C   -6.7219956   -0.9483828   -3.6262728  
C   -6.6220979   -1.8229489   -4.6908535  
O   -7.7507709   -2.3779977   -5.2209800  
C   -5.3599666   -2.1517858   -5.2401317  
O   -5.4269547   -3.0368199   -6.2963369  
C   -4.1875175   -1.6206946   -4.7443178  
H   -6.0533077    0.8783790   -1.5240270  
H   -7.6961102   -0.7109762   -3.2213776  
H   -7.4604453   -2.9495358   -5.9436967  
H   -4.5328204   -3.2058806   -6.6086603  
H   -3.2354103   -1.8913641   -5.1855753  
H   -3.6241065    1.3891889   -1.1937339  
C    0.0000000    0.0000000    0.0000000  
C    1.0541688   -0.0001722   -0.8560392  
C    0.5103135   -0.0000454   -2.1935954  
C   -0.9576375    0.0002459   -2.0455728  
N   -1.2018462   -0.0001392   -0.6915966  
C   -1.8348315    0.0008316   -3.0810604  
C   -1.2972851    0.0009737   -4.4314603  
O   -2.0050681    0.0014265   -5.4301316  
C    0.2542617    0.0004185   -4.6117570  
O    0.7184664    0.0002257   -5.7439119  
C    1.0974549    0.0000874   -3.4189129  
H    2.0940751   -0.0005482   -0.5817983  
H   -2.1128195    0.0014911   -0.2706785  
C    4.5414470   -2.0136874   -1.4319375  
C    3.2784302   -1.6314307   -1.7323504  
C    3.4206900   -0.7132117   -2.8517857  
C    4.8766543   -0.6552136   -3.1035534  
N    5.5387693   -1.4155504   -2.2744081  
C    5.4363354    0.1572537   -4.1484175  
C    4.5803855    0.8786758   -4.9075184  
O    4.9639641    1.6794165   -5.9163409  
C    3.1058527    0.8409930   -4.6784008  
O    2.3863352    1.5234821   -5.4075945  
C    2.5562209   -0.0001551   -3.6003007  
H    2.3632537   -1.9351324   -1.2535051  
H    6.5041744    0.1807528   -4.3099031  
H    4.1348737    2.0549929   -6.2637674  
H    4.8636451   -2.6922686   -0.6581874  
C    3.3321173   -0.0004715    2.8079335  
C    2.6974184   -0.0000116    4.0032312  
C    1.2800439    0.0002118    3.6752840  
C    1.2395035   -0.0000644    2.1971295  
N    2.4394063   -0.0005460    1.6831036  
C    0.0000000    0.0000000    1.4700000  
C   -1.1468701   -0.0000635    2.1869543  
O   -2.3742202   -0.0000073    1.6395491  
C   -1.1388768   -0.0001607    3.6796354  
O   -2.2206231   -0.0000905    4.2670412  
C    0.1454524   -0.0001816    4.4024240  
H    3.1367986    0.0000651    4.9860947  
H   -2.9844344   -0.0001026    2.3990168  
H    0.1083576   -0.0003682    5.4835595  
H    4.3940039   -0.0007619    2.6198634  
