60

C    6.5285436   -3.6480446   -2.2667992  
C    6.9318138   -4.4725243   -1.2420679  
C    5.9467121   -4.3729148   -0.2152998  
C    4.9577236   -3.4654823   -0.6739878  
N    5.3427999   -3.0426671   -1.9220103  
C    3.8323991   -3.1269001    0.0835055  
C    3.7029425   -3.7153133    1.3265620  
O    2.6231354   -3.4202847    2.1075788  
C    4.6793069   -4.6228542    1.8018516  
O    4.4078725   -5.1235709    3.0584133  
C    5.7898586   -4.9571281    1.0552180  
H    7.8265620   -5.0711640   -1.2349726  
H    3.0751207   -2.4358834   -0.2603355  
H    2.7270583   -3.9306342    2.9212178  
H    5.1150926   -5.7276749    3.3043898  
H    6.5210056   -5.6552629    1.4457444  
H    6.9936401   -3.4428179   -3.2157596  
C    4.5939385   -2.1037469   -2.7696746  
C    4.8996524   -1.6375995   -4.0079478  
C    3.8355762   -0.7416506   -4.3950551  
C    2.8780294   -0.7238867   -3.2727454  
N    3.3957278   -1.5703484   -2.3196554  
C    1.7334695    0.0049281   -3.2500363  
C    1.4239143    0.8265213   -4.4083520  
O    0.4172706    1.5187838   -4.4841258  
C    2.4237214    0.8227868   -5.6084261  
O    2.1735652    1.5103263   -6.5892281  
C    3.6246404   -0.0037441   -5.5162761  
H    5.7710266   -1.8924535   -4.5844638  
H    4.3119022   -0.0005906   -6.3513721  
H    2.9698485   -1.7683917   -1.4328337  
C    1.1319246    0.0015678   -0.8009268  
C    0.7969914    0.0034958   -2.1169401  
C   -0.6453340    0.0035696   -2.1842669  
C   -1.1266832    0.0015410   -0.7896025  
N    0.0000000    0.0000000    0.0000000  
C   -2.4346129    0.0013913   -0.4276292  
C   -3.4350111    0.0031335   -1.4820181  
O   -4.6384614    0.0030875   -1.2583914  
C   -2.9478961    0.0050442   -2.9661074  
O   -3.7809382    0.0062135   -3.8623773  
C   -1.5113825    0.0053055   -3.2312122  
H   -2.7664565    0.0000174    0.6013448  
H   -1.1823533    0.0068381   -4.2614848  
H    2.1104316    0.0009435   -0.3488059  
C    2.5528530    2.1414826    2.8079335  
C    2.0663498    1.7338582    4.0032312  
C    0.9804344    0.8229586    3.6752840  
C    0.9495562    0.7966882    2.1971295  
N    1.8690446    1.5676019    1.6831036  
C    0.0000000    0.0000000    1.4700000  
C   -0.8785127   -0.7372425    2.1869543  
O   -1.8187535   -1.5261249    1.6395491  
C   -0.8723269   -0.7321790    3.6796354  
O   -1.7010379   -1.4274584    4.2670412  
C    0.1115397    0.0933559    4.4024240  
H    2.4028853    2.0163452    4.9860947  
H   -2.2861435   -1.9184361    2.3990168  
H    0.0832434    0.0693689    5.4835595  
H    3.3664920    2.8238276    2.6198634  
