64

C    3.3982178   -0.7145515   -2.9707414  
C    4.6647797   -0.4659384   -3.4466418  
C    4.5287062    0.4428853   -4.5375698  
C    3.1442637    0.7157497   -4.6817636  
N    2.4861703   -0.0045376   -3.7159919  
C    2.6410831    1.5757823   -5.6625505  
C    3.5521108    2.1714432   -6.5130773  
O    3.1150136    3.0202122   -7.4885517  
C    4.9373492    1.9114455   -6.3852787  
O    5.7157918    2.5801127   -7.3073712  
C    5.4344347    1.0629029   -5.4181137  
H    5.5747236   -0.8885872   -3.0563047  
H    1.5870514    1.7877859   -5.7777583  
H    3.9017848    3.3202307   -7.9620967  
H    6.6368419    2.3495915   -7.1520321  
H    6.5005906    0.8829384   -5.3446134  
H    3.0731387   -1.3432799   -2.1595800  
C    0.0000000    0.0000000    0.0000000  
C    1.0521669   -0.0011899   -0.8862338  
C    0.4917222   -0.0011953   -2.1979129  
C   -0.9187426    0.0003152   -2.0478681  
N   -1.1833169   -0.0009409   -0.7007913  
C   -1.7951697    0.0010354   -3.1372090  
C   -1.2375835    0.0005230   -4.4010425  
O   -2.0474206    0.0015366   -5.4997579  
C    0.1673585   -0.0013561   -4.5711965  
O    0.5673529   -0.0020681   -5.8915554  
C    1.0325774   -0.0023407   -3.4969889  
H    2.0953060   -0.0030646   -0.6200560  
H   -2.0989776    0.0102374   -0.2891826  
H   -1.4634880    0.0006503   -6.2693594  
H    1.5290717   -0.0033145   -5.9180047  
C   -4.4707104    2.1246527   -0.3281857  
C   -5.6599899    1.6263875   -0.8075747  
C   -5.3396938    0.7516102   -1.8877486  
C   -3.9276524    0.7558438   -2.0220875  
N   -3.4313378    1.6012527   -1.0610606  
C   -3.2578649    0.0024042   -2.9908508  
C   -4.0275270   -0.7696037   -3.8392621  
O   -3.4247821   -1.5249875   -4.8031643  
C   -5.4376969   -0.7867689   -3.7211798  
O   -6.0624810   -1.6048896   -4.6396938  
C   -6.0991476   -0.0435241   -2.7658806  
H   -6.6381342    1.8650161   -0.4264142  
H   -2.4588394    1.7971151   -0.9065738  
H   -4.1335864   -1.9789642   -5.2772606  
H   -7.0119716   -1.5591003   -4.4914544  
H   -7.1803449   -0.0767263   -2.6996351  
H   -4.2817181    2.8130889    0.4776037  
C    3.2573670    0.0002920    2.9809380  
C    2.5379467    0.0001709    1.8291961  
C    1.1435042   -0.0000331    2.2038498  
C    1.1092607    0.0000083    3.6788474  
N    2.4227561   -0.0001909    4.0882609  
C   -0.0265533    0.0002524    4.4215661  
C   -1.3003036    0.0002640    3.7214979  
O   -2.3786784    0.0004133    4.3006425  
C   -1.2877726   -0.0000311    2.1595606  
O   -2.3539958   -0.0003306    1.5592035  
C    0.0000000    0.0000000    1.4700000  
H    2.9384090    0.0000368    0.8310761  
H   -0.0296291    0.0004086    5.5027230  
H    4.3270393    0.0004765    3.1139444  
H    2.7280493    0.0013407    5.0442112  
