64

C    0.0032502   -0.9818706   -9.5809371  
C   -0.1586635    0.0938919   -8.7389241  
C   -0.3901999    1.2356619   -9.5619372  
C   -0.3583528    0.7913718  -10.9086068  
N   -0.1154257   -0.5595597  -10.8843624  
C   -0.5494471    1.6521247  -11.9936773  
C   -0.7771352    2.9856251  -11.7141893  
O   -0.9705008    3.8694913  -12.7361509  
C   -0.8121837    3.4481360  -10.3771511  
O   -1.0490337    4.8025122  -10.2635276  
C   -0.6234786    2.5995951   -9.3062195  
H   -0.0486975   -1.1518122  -11.6923018  
H   -0.5262243    1.3197745  -13.0223680  
H   -1.1097195    4.7335619  -12.3271704  
H   -1.0569941    5.0325665   -9.3293885  
H   -0.6556820    2.9828570   -8.2930309  
H    0.1954221   -2.0167355   -9.3549207  
C    2.4938370   -2.1214407   -5.9023410  
C    1.8951720   -1.6223091   -7.0358902  
C    0.8534346   -0.7479142   -6.6059872  
C    0.8643862   -0.7532634   -5.1876154  
N    1.8712175   -1.5989401   -4.7929780  
C   -0.0307352   -0.0004646   -4.4215603  
C   -0.9535289    0.7720379   -5.0996973  
O   -1.8506797    1.5268337   -4.4008291  
C   -0.9804606    0.7903153   -6.5145322  
O   -1.9581556    1.6088090   -7.0413383  
C   -0.0978794    0.0477031   -7.2709076  
H    2.1741831   -1.8601293   -8.0481093  
H    2.1244785   -1.7955402   -3.8415641  
H   -2.3948807    1.9813037   -5.0570049  
H   -1.9079156    1.5637771   -8.0010523  
H    3.3147726   -2.8099248   -5.7973912  
C    3.2573670   -0.0002920   -1.5109380  
C    2.5379468   -0.0001709   -0.3591961  
C    1.1435043    0.0000332   -0.7338500  
C    1.1092609   -0.0000082   -2.2088477  
N    2.4227562    0.0001909   -2.6182613  
C   -0.0265532   -0.0002522   -2.9515663  
C   -1.3003035   -0.0002639   -2.2514981  
O   -2.3786784   -0.0004131   -2.8306429  
C   -1.2877725    0.0000312   -0.6895608  
O   -2.3539958    0.0003307   -0.0892036  
C    0.0000000    0.0000000    0.0000000  
H    2.9384091   -0.0000369    0.6389239  
H    4.3270394   -0.0004765   -1.6439446  
H    2.7280494   -0.0013406   -3.5742113  
C    2.5311839    2.1237619    3.0120429  
C    1.9795631    1.6616747    1.8395852  
C    0.9223175    0.7739173    2.1983588  
C    0.8753926    0.7337535    3.6154372  
N    1.8668922    1.5631002    4.0777464  
C   -0.0496243   -0.0427881    4.3197917  
C   -0.9437528   -0.7922060    3.5801400  
O   -1.8685244   -1.5680278    4.2172520  
C   -0.9124520   -0.7656372    2.1655264  
O   -1.8671164   -1.5663939    1.5732860  
C    0.0000000    0.0000000    1.4700000  
H    2.3005065    1.9304404    0.8477417  
H    2.0679347    1.7444845    5.0445261  
H   -0.0904770   -0.0778569    5.3997470  
H   -2.3849669   -2.0011402    3.5251786  
H   -1.7775064   -1.4909735    0.6183591  
H    3.3468514    2.8078103    3.1724291  
