60

C    5.6462704   -4.5886582   -1.8098520  
C    5.0248997   -3.4801344   -2.3366734  
C    5.9839199   -2.4242607   -2.3332912  
C    7.1824392   -2.9523245   -1.7886586  
N    6.9422693   -4.2681729   -1.4796619  
C    8.3436078   -2.1890239   -1.6342244  
C    8.2940634   -0.8686736   -2.0372117  
O    9.3995643   -0.0784263   -1.9091808  
C    7.1074147   -0.3234766   -2.5825925  
O    7.2174851    1.0056091   -2.9358052  
C    5.9614381   -1.0758325   -2.7349882  
H    4.0054514   -3.4374490   -2.6800340  
H    7.6127240   -4.9036943   -1.0864922  
H    9.2602070   -2.5855256   -1.2196960  
H    9.1524734    0.7931802   -2.2446113  
H    6.3734980    1.2957178   -3.2951473  
H    5.2671093   -5.5821779   -1.6421784  
C    3.4546604   -0.7051941   -2.8655878  
C    2.5562217   -0.0001543   -3.6003001  
C    3.3075550    0.7421851   -4.5848133  
C    4.7275388    0.4094243   -4.3618645  
N    4.7487504   -0.4720440   -3.3057143  
C    5.7578594    0.9090039   -5.0902630  
C    5.4475466    1.8364962   -6.1654372  
O    6.3052794    2.3410463   -6.8781951  
C    3.9505752    2.2032205   -6.4191988  
O    3.6771253    2.9832721   -7.3214207  
C    2.9282237    1.6000481   -5.5678275  
H    6.7924734    0.6518586   -4.9103750  
H    1.8941001    1.8589996   -5.7501909  
H    3.2802844   -1.3753180   -2.0395027  
C    0.0000000    0.0000000    0.0000000  
C    1.0541688   -0.0001719   -0.8560391  
C    0.5103141   -0.0000449   -2.1935955  
C   -0.9576367    0.0002461   -2.0455733  
N   -1.2018459   -0.0001392   -0.6915970  
C   -1.8348306    0.0008319   -3.0810611  
C   -1.2972842    0.0009739   -4.4314605  
O   -2.0050664    0.0014267   -5.4301321  
C    0.2542628    0.0004190   -4.6117571  
O    0.7184677    0.0002263   -5.7439119  
C    1.0974556    0.0000880   -3.4189127  
H    2.0940752   -0.0005479   -0.5817978  
H   -2.9081050    0.0011669   -2.9507065  
H   -2.1128195    0.0014911   -0.2706793  
C    3.3321173   -0.0004715    2.8079335  
C    2.6974184   -0.0000116    4.0032312  
C    1.2800439    0.0002118    3.6752840  
C    1.2395035   -0.0000644    2.1971295  
N    2.4394063   -0.0005460    1.6831036  
C    0.0000000    0.0000000    1.4700000  
C   -1.1468701   -0.0000635    2.1869543  
O   -2.3742202   -0.0000073    1.6395491  
C   -1.1388768   -0.0001607    3.6796354  
O   -2.2206231   -0.0000905    4.2670412  
C    0.1454524   -0.0001816    4.4024240  
H    3.1367986    0.0000651    4.9860947  
H   -2.9844344   -0.0001026    2.3990168  
H    0.1083576   -0.0003682    5.4835595  
H    4.3940039   -0.0007619    2.6198634  
