60

C    0.1922819   -3.0277317  -10.4313787  
C    0.1389691   -2.3452554   -9.2381268  
C   -0.1198442   -0.9780275   -9.5516606  
C   -0.2157911   -0.8858101  -10.9638275  
N   -0.0194409   -2.1479168  -11.4669695  
C   -0.4660257    0.3189032  -11.6277831  
C   -0.6225504    1.4510965  -10.8520156  
O   -0.8689836    2.6536154  -11.4488676  
C   -0.5299510    1.3793860   -9.4416617  
O   -0.7086603    2.5930550   -8.8104604  
C   -0.2828412    0.1912933   -8.7859942  
H    0.2715335   -2.7792455   -8.2618724  
H   -0.0410538   -2.3946695  -12.4399171  
H   -0.5401697    0.3958694  -12.7037859  
H   -0.9431706    3.3019065  -10.7364909  
H   -0.6307853    2.4566149   -7.8612912  
H    0.3660032   -4.0722363  -10.6257759  
C    2.4320879   -2.0124030   -6.1859210  
C    2.0200836   -1.6305794   -4.9546444  
C    0.9177868   -0.7123208   -5.1959806  
C    0.7970283   -0.6538282   -6.6685906  
N    1.6820122   -1.4139325   -7.2542822  
C   -0.1937183    0.1588217   -7.3190578  
C   -1.0262442    0.8799458   -6.5340644  
O   -1.9968172    1.6808090   -7.0059183  
C   -0.9297035    0.8417619   -5.0449762  
O   -1.7202577    1.5239997   -4.3932124  
C    0.0950446    0.0004351   -4.4015596  
H    2.4153101   -1.9345894   -4.0004696  
H   -2.4169009    2.0561001   -6.2110352  
H    3.2315429   -2.6908682   -6.4379726  
C    3.3321173    0.0004713   -1.3379338  
C    2.6974181    0.0000116   -2.5332314  
C    1.2800438   -0.0002119   -2.2052841  
C    1.2395034    0.0000643   -0.7271299  
N    2.4394062    0.0005460   -0.2131038  
C    0.0000000    0.0000000    0.0000000  
C   -1.1468702    0.0000634   -0.7169543  
O   -2.3742203    0.0000074   -0.1695487  
C   -1.1388770    0.0001607   -2.2096355  
O   -2.2206234    0.0000905   -2.7970411  
C    0.1454522    0.0001815   -2.9324241  
H    3.1367984   -0.0000653   -3.5160950  
H   -2.9844346    0.0001026   -0.9290167  
H    4.3940038    0.0007618   -1.1498640  
C    0.0000000    0.0000000    1.4700000  
C    1.0662921    0.0000102    2.3034270  
C    0.4961870   -0.0000064    3.6418889  
C   -0.9663858    0.0000850    3.4240247  
N   -1.2632773    0.0000084    2.1528658  
C   -1.8985362    0.0000517    4.5177257  
C   -1.3925775   -0.0004564    5.7720543  
O   -2.1456383   -0.0005410    6.8851312  
C    0.0786232   -0.0009323    6.0245000  
O    0.4683759   -0.0012588    7.1921102  
C    1.0143166   -0.0008442    4.8859032  
H    2.1107198   -0.0000632    2.0421868  
H   -2.9622183    0.0003270    4.3293377  
H   -1.5042274   -0.0009692    7.6184419  
H    2.0724152   -0.0013148    5.1109744  
