60

C    6.5136081   -3.0868525   -5.1110081  
C    7.5737314   -2.9844343   -5.9817056  
C    7.6420981   -1.6212284   -6.3959471  
C    6.5895223   -0.9334518   -5.7394619  
N    5.9227654   -1.8531658   -4.9686323  
C    6.3552997    0.4338972   -5.9134901  
C    7.1992036    1.1194897   -6.7655269  
O    7.0157094    2.4562623   -6.9713954  
C    8.2547790    0.4507819   -7.4299105  
O    9.0068807    1.2714035   -8.2449367  
C    8.4862669   -0.8981800   -7.2589094  
H    8.2177934   -3.7930404   -6.2822627  
H    5.5547050    0.9639180   -5.4161695  
H    7.7025584    2.7338459   -7.5914375  
H    9.6975037    0.7421029   -8.6554044  
H    9.3025547   -1.3831096   -7.7814005  
H    6.1313049   -3.9425988   -4.5813844  
C    4.5546442   -2.0975049   -2.8456842  
C    3.3966022   -1.6333854   -2.3093946  
C    2.8128208   -0.7373022   -3.2794821  
C    3.7322610   -0.7172949   -4.4331804  
N    4.7679901   -1.5620814   -4.1068520  
C    3.5352971    0.0116907   -5.5607839  
C    2.3379415    0.8314598   -5.6435736  
O    2.0707008    1.5238117   -6.6169858  
C    1.3504336    0.8257213   -4.4333668  
O    0.3391712    1.5121845   -4.4914816  
C    1.6707636   -0.0012343   -3.2725974  
H    2.9970336   -1.8893867   -1.3442925  
H    4.2221659    0.0121010   -6.3957214  
H    5.2702683   -2.7854719   -2.4255964  
C    1.0965514    0.0001358   -0.8010306  
C    0.0000000    0.0000000    0.0000000  
C   -1.1546565    0.0001470   -0.8669508  
C   -0.6372019    0.0003520   -2.2486278  
N    0.7342867    0.0007338   -2.1395012  
C   -1.4147744    0.0001354   -3.3608712  
C   -2.8576052   -0.0001047   -3.1854454  
O   -3.6427785   -0.0002490   -4.1244896  
C   -3.4275841   -0.0000727   -1.7311660  
O   -4.6406832    0.0000333   -1.5710049  
C   -2.4891868   -0.0001090   -0.6116739  
H   -1.0150456    0.0001617   -4.3654239  
H   -2.8919122   -0.0002919    0.3920871  
H    2.1388270    0.0000663   -0.5261650  
C    2.4951002    2.0940188    2.9809380  
C    1.9440701    1.6314916    1.8291961  
C    0.8759964    0.7350050    2.2038498  
C    0.8497377    0.7130254    3.6788474  
N    1.8560616    1.5571714    4.0882609  
C   -0.0205033   -0.0168748    4.4215661  
C   -0.9962600   -0.8356168    3.7214979  
O   -1.8224391   -1.5286685    4.3006425  
C   -0.9864710   -0.8277881    2.1595606  
O   -1.8030528   -1.5133726    1.5592035  
C    0.0000000    0.0000000    1.4700000  
H    2.2509283    1.8888011    0.8310761  
H   -0.0229599   -0.0187323    5.5027230  
H    3.3143982    2.7817323    3.1139444  
H    2.0889452    1.7545833    5.0442112  
