60

C    5.9870137   -1.8395315   -4.9503392  
C    7.0706757   -2.6593390   -4.7357245  
C    7.8946664   -2.5727741   -5.8968210  
C    7.2575086   -1.6773104   -6.7935375  
N    6.1009076   -1.2519995   -6.1885572  
C    7.7906664   -1.3528503   -8.0446400  
C    8.9890108   -1.9428736   -8.3968040  
O    9.5542301   -1.6608590   -9.6067663  
C    9.6397499   -2.8391743   -7.5158949  
O   10.8243082   -3.3437940   -8.0114007  
C    9.1142198   -3.1599303   -6.2816099  
H    7.2451895   -3.2482552   -3.8515778  
H    5.4454600   -0.6012839   -6.5821795  
H    7.3099023   -0.6712208   -8.7327169  
H   10.3737722   -2.1704517   -9.6507125  
H   11.1990401   -3.9396591   -7.3555616  
H    9.6353709   -3.8499455   -5.6283423  
C    4.6190968   -2.0899186   -2.8279649  
C    3.4606683   -1.6280057   -2.2906061  
C    2.8761397   -0.7301693   -3.2586202  
C    3.7955631   -0.7067284   -4.4122673  
N    4.8319966   -1.5514031   -4.0878913  
C    3.5979916    0.0246977   -5.5381831  
C    2.3999528    0.8436572   -5.6190795  
O    2.1321346    1.5380348   -6.5908891  
C    1.4124499    0.8342975   -4.4088912  
O    0.4006154    1.5200499   -4.4654210  
C    1.7334695    0.0049281   -3.2500363  
H    3.0613134   -1.8865706   -1.3260989  
H    4.2848598    0.0276109   -6.3731160  
H    5.3352944   -2.7782577   -2.4094675  
C    1.1319246    0.0015678   -0.8009268  
C    0.7969914    0.0034958   -2.1169401  
C   -0.6453340    0.0035696   -2.1842669  
C   -1.1266832    0.0015410   -0.7896025  
N    0.0000000    0.0000000    0.0000000  
C   -2.4346129    0.0013913   -0.4276292  
C   -3.4350111    0.0031335   -1.4820181  
O   -4.6384614    0.0030875   -1.2583914  
C   -2.9478961    0.0050442   -2.9661074  
O   -3.7809382    0.0062135   -3.8623773  
C   -1.5113825    0.0053055   -3.2312122  
H   -2.7664565    0.0000174    0.6013448  
H   -1.1823533    0.0068381   -4.2614848  
H    2.1104316    0.0009435   -0.3488059  
C    0.0000000    0.0000000    1.4700000  
C    1.0662921    0.0000102    2.3034270  
C    0.4961870   -0.0000064    3.6418889  
C   -0.9663858    0.0000850    3.4240247  
N   -1.2632773    0.0000084    2.1528658  
C   -1.8985362    0.0000517    4.5177257  
C   -1.3925775   -0.0004564    5.7720543  
O   -2.1456383   -0.0005410    6.8851312  
C    0.0786232   -0.0009323    6.0245000  
O    0.4683759   -0.0012588    7.1921102  
C    1.0143166   -0.0008442    4.8859032  
H    2.1107198   -0.0000632    2.0421868  
H   -2.9622183    0.0003270    4.3293377  
H   -1.5042274   -0.0009692    7.6184419  
H    2.0724152   -0.0013148    5.1109744  
