60

C    6.7841712   -1.9938171   -1.7325052  
C    7.3385015   -2.8331034   -0.7940046  
C    8.7501286   -2.8107572   -0.9974991  
C    9.0003182   -1.9325881   -2.0829254  
N    7.7849763   -1.4553679   -2.5069790  
C   10.2874262   -1.6683282   -2.5607417  
C   11.3411901   -2.3018855   -1.9311654  
O   12.6187067   -2.0793500   -2.3571238  
C   11.1117541   -3.1818247   -0.8467841  
O   12.2635765   -3.7349762   -0.3265222  
C    9.8422368   -3.4432011   -0.3750526  
H    6.7924979   -3.3934581   -0.0544941  
H    7.6475358   -0.8027268   -3.2574127  
H   10.4847698   -1.0001761   -3.3876823  
H   13.1921327   -2.6113689   -1.7901987  
H   12.0203771   -4.3158770    0.4008099  
H    9.6975231   -4.1220614    0.4572249  
C    4.3047792   -2.1086498   -1.2859242  
C    5.3774559   -1.6442158   -1.9771117  
C    4.8701585   -0.7486134   -2.9897229  
C    3.4034921   -0.7291860   -2.8306571  
N    3.1250161   -1.5744517   -1.7814350  
C    2.5562217   -0.0001543   -3.6003001  
C    3.1269051    0.8199333   -4.6559103  
O    2.4474934    1.5122577   -5.4024942  
C    4.6776933    0.8144236   -4.8425426  
O    5.1696079    1.5006859   -5.7281636  
C    5.4870227   -0.0121788   -3.9505977  
H    6.5600128   -0.0102594   -4.0862903  
H    4.2768484   -2.7963878   -0.4563912  
H    2.2064273   -1.7712340   -1.4285626  
C    0.0000000    0.0000000    0.0000000  
C    1.0541688   -0.0001719   -0.8560391  
C    0.5103141   -0.0000449   -2.1935955  
C   -0.9576367    0.0002461   -2.0455733  
N   -1.2018459   -0.0001392   -0.6915970  
C   -1.8348306    0.0008319   -3.0810611  
C   -1.2972842    0.0009739   -4.4314605  
O   -2.0050664    0.0014267   -5.4301321  
C    0.2542628    0.0004190   -4.6117571  
O    0.7184677    0.0002263   -5.7439119  
C    1.0974556    0.0000880   -3.4189127  
H    2.0940752   -0.0005479   -0.5817978  
H   -2.9081050    0.0011669   -2.9507065  
H   -2.1128195    0.0014911   -0.2706793  
C    3.2798086   -0.0005857    2.9199648  
C    2.5571146   -0.0005566    4.0696553  
C    1.1637436   -0.0001548    3.6910360  
C    1.1336965    0.0000200    2.2159470  
N    2.4483514    0.0001428    1.8102719  
C    0.0000000    0.0000000    1.4700000  
C   -1.2757367    0.0000186    2.1664417  
O   -2.3524596    0.0000640    1.5842315  
C   -1.2676493    0.0000873    3.7284083  
O   -2.3355761    0.0004100    4.3257297  
C    0.0181563   -0.0001760    4.4216297  
H    2.9547357   -0.0006076    5.0689105  
H    0.0150794   -0.0003319    5.5031631  
H    4.3498549   -0.0008612    2.7900019  
H    2.7563627   -0.0012824    0.8551938  
