60

C    7.2738490   -3.5761981   -3.7336576  
C    8.3625366   -4.3509259   -4.0608025  
C    8.5846647   -4.1871582   -5.4602450  
C    7.5921260   -3.2932240   -5.9373997  
N    6.8116939   -2.9430575   -4.8636557  
C    7.5072359   -2.9026098   -7.2771767  
C    8.4415098   -3.4236759   -8.1511334  
O    8.4047294   -3.0753017   -9.4703365  
C    9.4392453   -4.3172814   -7.6941757  
O   10.2953676   -4.7489578   -8.6861699  
C    9.5234248   -4.7032791   -6.3726443  
H    8.9264714   -4.9601183   -3.3753428  
H    6.7530833   -2.2217630   -7.6471818  
H    9.1337430   -3.5441162   -9.8969710  
H   10.9378696   -5.3480864   -8.2939442  
H   10.2985938   -5.3894422   -6.0520672  
H    6.7895642   -3.4262784   -2.7839466  
C    5.6703524   -2.0177344   -4.9085743  
C    4.8680132   -1.6338541   -3.8885417  
C    3.9117994   -0.7160921   -4.4884317  
C    4.2939635   -0.6601083   -5.9158071  
N    5.3241007   -1.4211366   -6.1680806  
C    3.5804919    0.1513591   -6.8632060  
C    2.5326227    0.8737497   -6.4055417  
O    1.7779995    1.6737359   -7.1779450  
C    2.1221166    0.8381007   -4.9708377  
O    1.1586088    1.5213822   -4.6244278  
C    2.8699641   -0.0020530   -4.0185824  
H    4.9187306   -1.9362135   -2.8565134  
H    3.8818032    0.1733865   -7.9003344  
H    1.1149872    2.0503428   -6.5715340  
C    3.2573670   -0.0002921   -1.5109382  
C    2.5379468   -0.0001711   -0.3591962  
C    1.1435043    0.0000330   -0.7338498  
C    1.1092608   -0.0000085   -2.2088474  
N    2.4227562    0.0001906   -2.6182610  
C   -0.0265533   -0.0002525   -2.9515663  
C   -1.3003033   -0.0002641   -2.2514979  
O   -2.3786785   -0.0004132   -2.8306425  
C   -1.2877724    0.0000310   -0.6895608  
O   -2.3539956    0.0003306   -0.0892035  
C    0.0000000    0.0000000    0.0000000  
H    2.9384091   -0.0000370    0.6389240  
H   -0.0296290   -0.0004088   -4.0327231  
H    4.3270394   -0.0004767   -1.6439445  
C    2.3971438    2.0127888    3.1728260  
C    1.9431056    1.6308205    1.9564670  
C    0.8496017    0.7127664    2.2356185  
C    0.7794028    0.6545384    3.7115134  
N    1.6840587    1.4146091    4.2663826  
C   -0.1885723   -0.1578550    4.3957118  
C   -1.0476298   -0.8789867    3.6398520  
O   -2.0015663   -1.6796266    4.1448486  
C   -1.0022026   -0.8410666    2.1483229  
O   -1.8147390   -1.5232959    1.5241687  
C    0.0000000    0.0000000    1.4700000  
H    2.3054237    1.9346118    0.9892483  
H   -0.2170646   -0.1815267    5.4753125  
H   -2.4487139   -2.0549881    3.3649027  
H    3.2048689    2.6911772    3.3971983  
