62

C   -6.3386079    2.3765977   -0.5204837  
C   -6.3456173    1.0733393   -0.9608648  
C   -7.4825472    0.4419598   -0.3749040  
C   -8.1370777    1.4177313    0.4196930  
N   -7.4153085    2.5803763    0.3105030  
C   -9.3001335    1.1452859    1.1462362  
C   -9.8119341   -0.1354452    1.0689933  
O  -10.9457556   -0.4555614    1.7581861  
C   -9.1729973   -1.1228752    0.2818733  
O   -9.8046063   -2.3491394    0.3081180  
C   -8.0254329   -0.8548813   -0.4349264  
H   -7.6448992    3.4500544    0.7565183  
H   -9.8036882    1.8845281    1.7538189  
H  -11.1271960   -1.3852929    1.5685993  
H   -9.3096719   -2.9581570   -0.2484263  
H   -7.5582295   -1.6316384   -1.0289362  
H   -5.6499632    3.1765226   -0.7322551  
C   -3.9884051    0.7039233   -1.8242582  
C   -3.3460097   -0.0004262   -2.7913647  
C   -4.3537578   -0.7427567   -3.5112428  
C   -5.6451796   -0.4107430   -2.8797469  
N   -5.3546447    0.4703282   -1.8637780  
C   -6.8441771   -0.9105383   -3.2725756  
C   -6.8640255   -1.8374912   -4.3919060  
O   -7.8934837   -2.3421816   -4.8206283  
C   -5.5080965   -2.2034208   -5.0755418  
O   -5.5122767   -2.9830138   -6.0186632  
C   -4.2805265   -1.6000814   -4.5627984  
H   -7.7799856   -0.6539437   -2.7957829  
H   -3.3459152   -1.8584816   -5.0418130  
H   -3.5786585    1.3738261   -1.0858631  
C    0.0000000    0.0000000    0.0000000  
C    1.0662919   -0.0000103   -0.8334272  
C    0.4961868    0.0000066   -2.1718889  
C   -0.9663860   -0.0000849   -1.9540248  
N   -1.2632775   -0.0000084   -0.6828659  
C   -1.8985364   -0.0000515   -3.0477258  
C   -1.3925778    0.0004567   -4.3020543  
O   -2.1456385    0.0005412   -5.4151314  
C    0.0786229    0.0009326   -4.5544999  
O    0.4683756    0.0012594   -5.7221104  
C    1.0143162    0.0008443   -3.4159034  
H    2.1107195    0.0000631   -0.5721869  
H   -1.5042277    0.0009692   -6.1484420  
H    2.0724151    0.0013151   -3.6409746  
C    1.1243417   -0.0099156    2.2619005  
C    0.7474090   -0.0234034    3.5848544  
C   -0.6787367   -0.0234952    3.6114698  
C   -1.1201739   -0.0099357    2.2635546  
N    0.0000000    0.0000000    1.4700000  
C   -2.4730812   -0.0065396    1.9108239  
C   -3.3971947   -0.0173298    2.9375057  
O   -4.7313508   -0.0149487    2.6493466  
C   -2.9763630   -0.0305536    4.2886322  
O   -4.0166453   -0.0397858    5.1947621  
C   -1.6418541   -0.0336380    4.6373480  
H    1.4178735   -0.0310004    4.4271209  
H   -2.8160170    0.0039190    0.8854031  
H   -5.1938803   -0.0234410    3.4974381  
H   -3.6464643   -0.0484781    6.0827341  
H   -1.3497443   -0.0436789    5.6809233  
H    2.1062470   -0.0051382    1.8205408  
