60

C    4.2114876    0.5252500   -7.3431573  
C    5.2329504   -0.3258490   -6.9900121  
C    6.1555375   -0.3428966   -8.0777361  
C    5.6398542    0.5245225   -9.0745216  
N    4.4576347    1.0335080   -8.5971251  
C    6.2918944    0.7518135  -10.2902393  
C    7.4864248    0.0916552  -10.5034698  
O    8.1648760    0.2776706  -11.6731344  
C    8.0169234   -0.7781060   -9.5211747  
O    9.2139295   -1.3609367   -9.8828801  
C    7.3740758   -1.0030173   -8.3217225  
H    5.3037836   -0.8685931   -6.0629715  
H    3.8695080    1.6872139   -9.0816423  
H    5.9040434    1.4115912  -11.0540901  
H    8.9600925   -0.2680182  -11.6172826  
H    9.5030508   -1.9325648   -9.1650674  
H    7.8046745   -1.6749249   -7.5885084  
C    2.8304415   -0.6884963   -3.3925845  
C    1.6707636   -0.0012343   -3.2725974  
C    1.5456301    0.7433281   -4.5161685  
C    2.7498703    0.3774787   -5.2924057  
N    3.5067375   -0.4616185   -4.6389092  
C    3.0025205    0.9125020   -6.6019871  
C    2.0932668    1.7735556   -7.1130440  
O    2.2014895    2.3487949   -8.3227663  
C    0.8678250    2.1620229   -6.3543960  
O    0.0833285    2.9508791   -6.8811709  
C    0.6312572    1.5996151   -5.0128829  
H    1.4067970    2.9064664   -8.4041227  
H   -0.2683269    1.9060259   -4.4960741  
H    3.2808702   -1.3606811   -2.6796641  
C    1.0965514    0.0001358   -0.8010306  
C    0.0000000    0.0000000    0.0000000  
C   -1.1546565    0.0001470   -0.8669508  
C   -0.6372019    0.0003520   -2.2486278  
N    0.7342867    0.0007338   -2.1395012  
C   -1.4147744    0.0001354   -3.3608712  
C   -2.8576052   -0.0001047   -3.1854454  
O   -3.6427785   -0.0002490   -4.1244896  
C   -3.4275841   -0.0000727   -1.7311660  
O   -4.6406832    0.0000333   -1.5710049  
C   -2.4891868   -0.0001090   -0.6116739  
H   -1.0150456    0.0001617   -4.3654239  
H   -2.8919122   -0.0002919    0.3920871  
H    2.1388270    0.0000663   -0.5261650  
C    2.5528530    2.1414826    2.8079335  
C    2.0663498    1.7338582    4.0032312  
C    0.9804344    0.8229586    3.6752840  
C    0.9495562    0.7966882    2.1971295  
N    1.8690446    1.5676019    1.6831036  
C    0.0000000    0.0000000    1.4700000  
C   -0.8785127   -0.7372425    2.1869543  
O   -1.8187535   -1.5261249    1.6395491  
C   -0.8723269   -0.7321790    3.6796354  
O   -1.7010379   -1.4274584    4.2670412  
C    0.1115397    0.0933559    4.4024240  
H    2.4028853    2.0163452    4.9860947  
H   -2.2861435   -1.9184361    2.3990168  
H    0.0832434    0.0693689    5.4835595  
H    3.3664920    2.8238276    2.6198634  
