60

C    7.3647625   -0.7163401   -5.3329224  
C    6.8068101    0.0011169   -6.3655945  
C    7.8649993    0.7286064   -6.9865571  
C    9.0558317    0.4123308   -6.2838376  
N    8.7161866   -0.4659484   -5.2848962  
C   10.3003379    0.9513175   -6.6236733  
C   10.3435412    1.8252715   -7.6925581  
O   11.5328635    2.3803345   -8.0672997  
C    9.1661414    2.1534658   -8.4058853  
O    9.3736085    3.0379378   -9.4441571  
C    7.9380196    1.6223296   -8.0710161  
H    9.3568663   -0.8744708   -4.6286796  
H   11.2115996    0.7143965   -6.0920033  
H   11.3416893    2.9513974   -8.8226831  
H    8.5292424    3.2065851   -9.8733513  
H    7.0534248    1.8924993   -8.6357979  
H    6.9054137   -1.3857562   -4.6259295  
C    3.1006060    0.0006268   -3.9654947  
C    4.3965753    0.0006907   -4.3711275  
C    4.3857809    0.0007807   -5.8149828  
C    2.9671185    0.0007930   -6.2201829  
N    2.2396186    0.0002982   -5.0524356  
C    2.5349230    0.0012657   -7.5066168  
C    3.5336528    0.0015717   -8.5625879  
O    3.2452525    0.0019411   -9.7521779  
C    5.0419203    0.0013125   -8.1564675  
O    5.8918153    0.0012596   -9.0367734  
C    5.3843457    0.0010806   -6.7363982  
H    5.2614037    0.0004941   -3.7318422  
H    1.4895031    0.0013959   -7.7823117  
H    1.2375717    0.0017396   -4.9981503  
C    3.2798085    0.0005859   -1.4499648  
C    2.5571146    0.0005569   -2.5996553  
C    1.1637437    0.0001551   -2.2210359  
C    1.1336966   -0.0000198   -0.7459471  
N    2.4483513   -0.0001427   -0.3402720  
C    0.0000000    0.0000000    0.0000000  
C   -1.2757366   -0.0000185   -0.6964416  
O   -2.3524595   -0.0000640   -0.1142313  
C   -1.2676493   -0.0000870   -2.2584084  
O   -2.3355759   -0.0004098   -2.8557296  
C    0.0181563    0.0001763   -2.9516295  
H    0.0150795    0.0003323   -4.0331630  
H    4.3498549    0.0008614   -1.3200020  
H    2.7563627    0.0012824    0.6148062  
C    2.5528530    2.1414826    2.8079335  
C    2.0663498    1.7338582    4.0032312  
C    0.9804344    0.8229586    3.6752840  
C    0.9495562    0.7966882    2.1971295  
N    1.8690446    1.5676019    1.6831036  
C    0.0000000    0.0000000    1.4700000  
C   -0.8785127   -0.7372425    2.1869543  
O   -1.8187535   -1.5261249    1.6395491  
C   -0.8723269   -0.7321790    3.6796354  
O   -1.7010379   -1.4274584    4.2670412  
C    0.1115397    0.0933559    4.4024240  
H    2.4028853    2.0163452    4.9860947  
H   -2.2861435   -1.9184361    2.3990168  
H    0.0832434    0.0693689    5.4835595  
H    3.3664920    2.8238276    2.6198634  
