64

C    1.2235113   -0.2384301   -4.5828762  
C   -0.0142982   -0.0497492   -5.1526963  
C    0.1675264   -0.0919429   -6.5668248  
C    1.5489408   -0.3112290   -6.8024818  
N    2.1614521   -0.3934892   -5.5766433  
C    2.0907110   -0.4090338   -8.0876700  
C    1.2220815   -0.2834810   -9.1543924  
O    1.6979649   -0.3712193  -10.4306567  
C   -0.1594072   -0.0640145   -8.9395906  
O   -0.8932576    0.0397709  -10.1032212  
C   -0.6945293    0.0328487   -7.6719995  
H   -0.9348531    0.1009820   -4.6152468  
H    3.1408104   -0.5560827   -5.4269733  
H    3.1426764   -0.5759450   -8.2739809  
H    0.9366675   -0.2573006  -11.0143645  
H   -1.8148238    0.1870514   -9.8694954  
C   -1.1124679    0.1632688   -0.7919003  
C   -0.7421039    0.0919217   -2.1148548  
C    0.6670315   -0.1276909   -2.1414700  
C    1.1052948   -0.1822419   -0.7935545  
N    0.0000000    0.0000000    0.0000000  
C    2.4426011   -0.3871348   -0.4408235  
C    3.3540407   -0.5400422   -1.4675050  
O    4.6726629   -0.7430516   -1.1793463  
C    2.9361888   -0.4883311   -2.8186316  
O    3.9626523   -0.6575804   -3.7247614  
C    1.6171096   -0.2859622   -3.1673481  
H   -1.4057470    0.1876176   -2.9571212  
H    2.7830596   -0.4295879    0.5845973  
H    5.1283730   -0.8226384   -2.0274376  
H    3.5955455   -0.6091885   -4.6127343  
H   -2.0819359    0.3191306   -0.3505410  
C   -2.1353205    0.2615540   -7.4911278  
C   -2.8742764    0.3905868   -6.3379749  
C   -4.2288620    0.6000055   -6.7327425  
C   -4.2556109    0.5886078   -8.1508679  
N   -2.9676645    0.3827884   -8.5791781  
C   -5.4312756    0.7657285   -8.8865518  
C   -6.6012978    0.9575518   -8.1777295  
O   -7.7780018    1.1352068   -8.8461768  
C   -6.5948809    0.9724947   -6.7626138  
O   -7.8396685    1.1748109   -6.2032256  
C   -5.4353875    0.7980964   -6.0361933  
H   -2.4847226    0.3410873   -5.3355818  
H   -2.6786580    0.3164321   -9.5383725  
H   -5.4583209    0.7582355   -9.9674837  
H   -8.4603121    1.2502546   -8.1720237  
H   -7.7470453    1.1709942   -5.2456192  
H   -5.4615039    0.8146057   -4.9529000  
C    0.0000000    0.0000000    1.4700000  
C    1.0541688    0.0001722    2.3260392  
C    0.5103138    0.0000454    3.6635956  
C   -0.9576371   -0.0002459    3.5155732  
N   -1.2018458    0.0001392    2.1615969  
C   -1.8348311   -0.0008317    4.5510609  
C   -1.2972847   -0.0009736    5.9014604  
O   -2.0050672   -0.0014265    6.9001319  
C    0.2542623   -0.0004184    6.0817573  
O    0.7184670   -0.0002256    7.2139121  
C    1.0974552   -0.0000873    4.8889129  
H    2.0940752    0.0005483    2.0517982  
H   -2.9081052   -0.0011668    4.4207061  
H    2.1707277    0.0000911    5.0223670  
H   -2.1128194   -0.0014912    1.7406791  
