62

C    3.8616515   -3.7068106   -5.1199383  
C    4.5396968   -4.5103902   -4.2328190  
C    3.9032560   -4.3606676   -2.9650942  
C    2.8339507   -3.4456123   -3.1416918  
N    2.8381504   -3.0666529   -4.4611576  
C    1.9868847   -3.0616891   -2.0977231  
C    2.2233996   -3.6117578   -0.8528685  
O    1.4262388   -3.2716698    0.2015922  
C    3.2855490   -4.5261805   -0.6566901  
O    3.3914897   -4.9851857    0.6400113  
C    4.1217647   -4.9051747   -1.6860749  
H    5.3892759   -5.1276170   -4.4699699  
H    1.1702416   -2.3646239   -2.2257703  
H    1.7597542   -3.7608837    0.9649423  
H    4.1324469   -5.5970908    0.6864681  
H    4.9271535   -5.6074716   -1.5055013  
H    4.0280267   -3.5385477   -6.1701600  
C    1.8836765   -2.1362878   -5.0810771  
C    1.8358577   -1.7275852   -6.3703619  
C    0.7030357   -0.8169581   -6.4333933  
C    0.1677631   -0.7920094   -5.0551901  
N    0.8558147   -1.5634002   -4.2579886  
C   -0.9736297    0.0040464   -4.6965763  
C   -1.5536731    0.7419470   -5.6704281  
O   -2.6247580    1.5303580   -5.4774857  
C   -1.0366304    0.7382185   -7.0707186  
O   -1.6142412    1.4340391   -7.9058358  
C    0.1355193   -0.0866884   -7.4135273  
H    2.4887432   -2.0091995   -7.1787617  
H   -2.8038829    1.9233573   -6.3507659  
H    0.4792065   -0.0617341   -8.4389471  
C    1.1188642    0.0008222   -0.8003808  
C    0.0000000    0.0000000    0.0000000  
C   -1.1323862    0.0008899   -0.8673528  
C   -0.6382663    0.0019679   -2.1969280  
N    0.7324016    0.0038481   -2.1202242  
C   -1.4770914    0.0027318   -3.3154808  
C   -2.8395473    0.0020945   -3.0876857  
O   -3.7039201    0.0024425   -4.1440349  
C   -3.3517868    0.0013931   -1.7684331  
O   -4.7300497    0.0012366   -1.7073121  
C   -2.5248543    0.0009123   -0.6644817  
H    1.3576314   -0.0056167   -2.9057046  
H   -4.5940032    0.0021826   -3.7685128  
H   -4.9934602    0.0007259   -0.7819913  
H   -2.9462577    0.0005603    0.3339659  
H    2.1619895    0.0009355   -0.5342068  
C    0.0000000    0.0000000    1.4700000  
C    1.0541688    0.0001722    2.3260392  
C    0.5103138    0.0000454    3.6635956  
C   -0.9576371   -0.0002459    3.5155732  
N   -1.2018458    0.0001392    2.1615969  
C   -1.8348311   -0.0008317    4.5510609  
C   -1.2972847   -0.0009736    5.9014604  
O   -2.0050672   -0.0014265    6.9001319  
C    0.2542623   -0.0004184    6.0817573  
O    0.7184670   -0.0002256    7.2139121  
C    1.0974552   -0.0000873    4.8889129  
H    2.0940752    0.0005483    2.0517982  
H   -2.9081052   -0.0011668    4.4207061  
H    2.1707277    0.0000911    5.0223670  
H   -2.1128194   -0.0014912    1.7406791  
