64

C   -3.9582754    0.7120022   -2.0436205  
C   -5.3029533    0.4626353   -2.1923657  
C   -5.4396990   -0.4462402   -3.2831662  
C   -4.1334638   -0.7183581   -3.7644436  
N   -3.2578650    0.0024046   -2.9908509  
C   -3.8873043   -1.5782271   -4.8390691  
C   -4.9796586   -2.1744890   -5.4385777  
O   -4.7962363   -3.0231302   -6.4917524  
C   -6.2907034   -1.9152406   -4.9729929  
O   -7.2721847   -2.5844442   -5.6745656  
C   -6.5343101   -1.0668597   -3.9130723  
H   -2.8941504   -1.7896627   -5.2107445  
H   -5.6753437   -3.3236379   -6.7565770  
H   -8.1265772   -2.3544127   -5.2968044  
H   -7.5494840   -0.8874746   -3.5788253  
H   -3.4434890    1.3410042   -1.3377099  
C    0.0000000    0.0000000    0.0000000  
C    1.0521669   -0.0011915   -0.8862343  
C    0.4917220   -0.0011969   -2.1979130  
C   -0.9187427    0.0003147   -2.0478684  
N   -1.1833170   -0.0009408   -0.7007915  
C   -1.7951697    0.0010349   -3.1372093  
C   -1.2375836    0.0005217   -4.4010424  
O   -2.0474212    0.0015352   -5.4997582  
C    0.1673586   -0.0013586   -4.5711963  
O    0.5673528   -0.0020711   -5.8915553  
C    1.0325773   -0.0023433   -3.4969891  
H    2.0953059   -0.0030667   -0.6200562  
H   -2.0989778    0.0102381   -0.2891826  
H   -1.4634883    0.0006485   -6.2693597  
H    1.5290720   -0.0033183   -5.9180043  
H    2.1042158   -0.0039636   -3.6584453  
C   -6.4289292    2.3377596   -0.9185633  
C   -6.3758786    1.0391190   -1.3693242  
C   -7.5456467    0.3821460   -0.8849389  
C   -8.2811648    1.3382644   -0.1387646  
N   -7.5740852    2.5143321   -0.1777606  
C   -9.4950921    1.0382698    0.4866737  
C   -9.9754166   -0.2503146    0.3562269  
O  -11.1562655   -0.5970830    0.9464486  
C   -9.2558421   -1.2184366   -0.3838872  
O   -9.8650802   -2.4557008   -0.4206437  
C   -8.0580741   -0.9232608   -1.0009363  
H   -7.8554769    3.3753095    0.2552729  
H  -10.0604366    1.7624325    1.0569162  
H  -11.3045133   -1.5278538    0.7344285  
H   -9.3149047   -3.0503338   -0.9396063  
H   -7.5293898   -1.6857011   -1.5609866  
H   -5.7397970    3.1516474   -1.0656777  
C    0.0000000    0.0000000    1.4700000  
C    1.0662921    0.0000102    2.3034270  
C    0.4961870   -0.0000064    3.6418889  
C   -0.9663858    0.0000850    3.4240247  
N   -1.2632773    0.0000084    2.1528658  
C   -1.8985362    0.0000517    4.5177257  
C   -1.3925775   -0.0004564    5.7720543  
O   -2.1456383   -0.0005410    6.8851312  
C    0.0786232   -0.0009323    6.0245000  
O    0.4683759   -0.0012588    7.1921102  
C    1.0143166   -0.0008442    4.8859032  
H    2.1107198   -0.0000632    2.0421868  
H   -2.9622183    0.0003270    4.3293377  
H   -1.5042274   -0.0009692    7.6184419  
H    2.0724152   -0.0013148    5.1109744  
