60

C    2.0399568    2.1229473   -7.9931858  
C    2.9125359    1.6609817   -7.0352392  
C    3.8173224    0.7733628   -7.6895285  
C    3.4447503    0.7331545   -9.0575559  
N    2.3609395    1.5623425   -9.2072859  
C    4.1213619   -0.0432800  -10.0031431  
C    5.1938058   -0.7925430   -9.5596922  
O    5.8899908   -1.5682554  -10.4409472  
C    5.5805845   -0.7659277   -8.1986225  
O    6.6674629   -1.5665258   -7.9138752  
C    4.9133809   -0.0003960   -7.2651735  
H    2.8979547    1.9297372   -5.9928614  
H    1.8840115    1.7436628  -10.0719500  
H    3.8422915   -0.0783821  -11.0472158  
H    6.5874435   -2.0012689   -9.9317091  
H    6.8631050   -1.4910839   -6.9749200  
H    1.2131347    2.8068729   -7.9061836  
C    2.5562217   -0.0001551   -3.6003001  
C    3.5148525   -0.0005087   -2.6449957  
C    4.7727386   -0.0006025   -3.3759008  
C    4.3760685   -0.0003758   -4.8004136  
N    3.0779897   -0.0000323   -4.9381841  
C    5.3463906   -0.0003429   -5.8603952  
C    6.6535653   -0.0001393   -5.5130783  
O    7.6652140   -0.0000931   -6.3977299  
C    7.0856175    0.0000110   -4.0842706  
O    8.2923979    0.0000700   -3.8415710  
C    6.0711795   -0.0000700   -3.0152331  
H    3.3844835   -0.0005937   -1.5763148  
H    8.4720652    0.0000902   -5.8517059  
H    6.4250928    0.0001594   -1.9929925  
C    0.0000000    0.0000000    0.0000000  
C    1.0541688   -0.0001722   -0.8560390  
C    0.5103141   -0.0000453   -2.1935955  
C   -0.9576367    0.0002460   -2.0455731  
N   -1.2018459   -0.0001392   -0.6915969  
C   -1.8348307    0.0008318   -3.0810611  
C   -1.2972843    0.0009738   -4.4314606  
O   -2.0050665    0.0014267   -5.4301321  
C    0.2542628    0.0004186   -4.6117570  
O    0.7184676    0.0002258   -5.7439117  
C    1.0974555    0.0000874   -3.4189127  
H    2.0940752   -0.0005483   -0.5817978  
H   -2.9081051    0.0011670   -2.9507061  
H   -2.1128194    0.0014912   -0.2706792  
C    1.0965515   -0.0001358    2.2710304  
C    0.0000000    0.0000000    1.4700000  
C   -1.1546562   -0.0001469    2.3369512  
C   -0.6372014   -0.0003519    3.7186280  
N    0.7342871   -0.0007337    3.6095011  
C   -1.4147739   -0.0001353    4.8308716  
C   -2.8576048    0.0001048    4.6554461  
O   -3.6427778    0.0002493    5.5944904  
C   -3.4275839    0.0000726    3.2011665  
O   -4.6406829   -0.0000333    3.0410059  
C   -2.4891866    0.0001091    2.0816745  
H   -1.0150448   -0.0001615    5.8354244  
H   -2.8919121    0.0002919    1.0779135  
H    2.1388271   -0.0000662    1.9961646  
H    1.3735872    0.0006099    4.3830260  
