62

C    5.4580613   -0.9849236   -8.5618938  
C    4.9635583    0.0900295   -7.8601744  
C    5.0905071    1.2325379   -8.7046620  
C    5.6737402    0.7895115   -9.9193608  
N    5.8858700   -0.5614098   -9.7984069  
C    5.9454943    1.6512532  -10.9862897  
C    5.6223172    2.9844613  -10.8241480  
O    5.8660286    3.8692570  -11.8344719  
C    5.0401192    3.4457171   -9.6195304  
O    4.7768110    4.7999551   -9.6123181  
C    4.7719964    2.5962003   -8.5664595  
H    6.2793524   -1.1528977  -10.5078389  
H    6.3900033    1.3198681  -11.9146209  
H    5.5704560    4.7329261  -11.5182814  
H    4.3851614    5.0291346   -8.7639717  
H    4.3256538    2.9785104   -7.6559125  
H    5.5407665   -2.0199738   -8.2776587  
C    6.2380164   -2.1231804   -4.2495877  
C    5.2558083   -1.6611809   -3.4044307  
C    4.4368138   -0.7737768   -4.1636158  
C    4.9722984   -0.7337286   -5.4764672  
N    6.0663544   -1.5628008   -5.4937160  
C    4.4150850    0.0424761   -6.4971570  
C    3.2967540    0.7916695   -6.1869598  
O    2.7123221    1.5671593   -7.1461624  
C    2.7480081    0.7652113   -4.8827381  
O    1.6345600    1.5657144   -4.7318326  
C    3.2973506   -0.0000934   -3.8752374  
H    5.1440869   -1.9297761   -2.3679137  
H    6.6444975   -1.7441919   -6.2942341  
H    1.9582891    2.0001611   -6.7251998  
H    1.3266648    1.4903898   -3.8234657  
H    7.0482931   -2.8069872   -4.0629901  
C    3.3321174    0.0004714   -1.3379332  
C    2.6974186    0.0000115   -2.5332308  
C    1.2800441   -0.0002119   -2.2052838  
C    1.2395035    0.0000643   -0.7271293  
N    2.4394063    0.0005458   -0.2131034  
C    0.0000000    0.0000000    0.0000000  
C   -1.1468701    0.0000634   -0.7169542  
O   -2.3742201    0.0000072   -0.1695492  
C   -1.1388767    0.0001606   -2.2096354  
O   -2.2206229    0.0000903   -2.7970413  
C    0.1454526    0.0001815   -2.9324239  
H   -2.9844344    0.0001023   -0.9290168  
H    0.1083580    0.0003680   -4.0135594  
H    4.3940040    0.0007617   -1.1498630  
C    0.8400945    0.7047457    2.2710304  
C    0.0000000    0.0000000    1.4700000  
C   -0.8844236   -0.7423113    2.3369512  
C   -0.4878984   -0.4098547    3.7186280  
N    0.5629682    0.4714286    3.6095011  
C   -1.0836927   -0.9095027    4.8308716  
C   -2.1891196   -1.8367527    4.6554461  
O   -2.7906899   -2.3413415    5.5944904  
C   -2.6257283   -2.2031529    3.2011665  
O   -3.5549479   -2.9829990    3.0410059  
C   -1.9068976   -1.5999348    2.0816745  
H   -0.7774656   -0.6525820    5.8354244  
H   -2.2155208   -1.8586617    1.0779135  
H    1.6384792    1.3747609    1.9961646  
H    1.0518368    0.8833920    4.3830260  
