64

C    8.1095235   -0.0125747   -1.0772940  
C    8.4329404   -0.0146904    0.2598162  
C    9.8567654   -0.0312514    0.3437649  
C   10.3520075   -0.0384209   -0.9853744  
N    9.2646962   -0.0286989   -1.8233939  
C   11.7179133   -0.0543970   -1.2834263  
C   12.5999466   -0.0629906   -0.2203547  
O   13.9445250   -0.0782854   -0.4546354  
C   12.1251591   -0.0564215    1.1128182  
O   13.1281020   -0.0668849    2.0600977  
C   10.7777945   -0.0409348    1.4075962  
H    7.7291917   -0.0065409    1.0744718  
H    9.3051726   -0.0201532   -2.8265237  
H   12.1017727   -0.0600763   -2.2942785  
H   14.3725540   -0.0823401    0.4114135  
H   12.7225441   -0.0614880    2.9325063  
H   10.4439794   -0.0364131    2.4386274  
C    5.5836005   -0.0008282   -1.0808163  
C    4.5679461   -0.0016854   -2.0086701  
C    5.1807168   -0.0015774   -3.2967354  
C    6.5840020   -0.0009183   -3.0900574  
N    6.7941555    0.0014752   -1.7334266  
C    7.5035533   -0.0009455   -4.1432502  
C    6.9972727   -0.0019578   -5.4284959  
O    7.8506655   -0.0023820   -6.4937341  
C    5.6003149   -0.0022512   -5.6550446  
O    5.2537729   -0.0028622   -6.9904296  
C    4.6925710   -0.0019514   -4.6165225  
H    8.5742737   -0.0003012   -3.9923864  
H    7.2981735   -0.0027858   -7.2862092  
H    4.2938967   -0.0030529   -7.0555555  
H    3.6282967   -0.0020065   -4.8209694  
H    5.5402815   -0.0002318   -0.0051389  
C    3.1301149   -0.0010311   -1.7028252  
C    2.5367768   -0.0002767   -0.4864665  
C    1.1089904    0.0001028   -0.7656183  
C    1.0177872   -0.0004148   -2.2415132  
N    2.1993578   -0.0011611   -2.7963820  
C   -0.2459209   -0.0002877   -2.9257118  
C   -1.3675319   -0.0000605   -2.1698524  
O   -2.6129313    0.0000867   -2.6748490  
C   -1.3083584    0.0000910   -0.6783232  
O   -2.3693261    0.0004206   -0.0541692  
C    0.0000000    0.0000000    0.0000000  
H    3.0096017   -0.0001007    0.4807525  
H   -0.2829630   -0.0004687   -4.0053125  
H   -3.1967441    0.0002094   -1.8949034  
C    0.8576279    0.7185626    2.2703808  
C    0.0000000    0.0000000    1.4700000  
C   -0.8668858   -0.7285659    2.3373528  
C   -0.4876752   -0.4117774    3.6669281  
N    0.5635254    0.4678311    3.5902241  
C   -1.1297612   -0.9515493    4.7854808  
C   -2.1738724   -1.8268314    4.5576857  
O   -2.8357962   -2.3827064    5.6140350  
C   -2.5667212   -2.1555554    3.2384331  
O   -3.6226318   -3.0413663    3.1773122  
C   -1.9335634   -1.6236449    2.1344818  
H    1.0363952    0.8769718    4.3757045  
H   -0.8454472   -0.7142436    5.8013813  
H   -3.5178062   -2.9546422    5.2385129  
H   -3.8247440   -3.2102924    2.2519915  
H   -2.2566033   -1.8942483    1.1360343  
H    1.6567807    1.3889844    2.0042067  
