60

C    2.3489647   -4.6214383   -6.4333365  
C    1.5736294   -3.5149856   -6.1743270  
C    2.0714489   -2.4571787   -6.9915299  
C    3.1599956   -2.9819831   -7.7342090  
N    3.3027210   -4.2978323   -7.3698066  
C    3.8925033   -2.2161072   -8.6461607  
C    3.5191378   -0.8964856   -8.8116150  
O    4.2001342   -0.1038162   -9.6896439  
C    2.4360685   -0.3545252   -8.0794580  
O    2.1880273    0.9742303   -8.3555510  
C    1.7131570   -1.1094228   -7.1794268  
H    0.7511952   -3.4748855   -5.4807949  
H    3.9881278   -4.9313920   -7.7396718  
H    4.7232756   -2.6101189   -9.2151722  
H    3.7831264    0.7667700   -9.6515755  
H    1.4423522    1.2620815   -7.8200943  
H    2.2980078   -5.6154584   -6.0231098  
C    0.2908560   -0.7259183   -5.1324811  
C    0.5947738   -0.5089631   -6.4380995  
C   -0.3866757    0.4179347   -6.9504009  
C   -1.2937770    0.7254250   -5.8281674  
N   -0.8287665    0.0000939   -4.7555305  
C   -2.3565462    1.5657074   -5.9065966  
C   -2.6250328    2.2100934   -7.1814363  
O   -3.5581917    2.9833442   -7.3534793  
C   -1.6774718    1.8988250   -8.3835369  
O   -1.8937523    2.4352001   -9.4618618  
C   -0.5642202    0.9759821   -8.1764506  
H   -3.0094333    1.7776982   -5.0713069  
H    0.0873206    0.7659220   -9.0137631  
H    0.7904799   -1.3552650   -4.4140186  
C    1.0672569   -0.0000698   -0.8321910  
C    0.0000000    0.0000000    0.0000000  
C   -1.1601223   -0.0000736   -0.8778472  
C   -0.5938729   -0.0000768   -2.2438435  
N    0.7113367   -0.0001553   -2.2234123  
C   -1.4286985   -0.0001877   -3.4135239  
C   -2.7683113   -0.0006798   -3.2270524  
O   -3.6653902   -0.0008302   -4.2276970  
C   -3.3702024   -0.0010610   -1.8610774  
O   -4.5974910   -0.0013779   -1.7662963  
C   -2.4926825   -0.0008943   -0.6770658  
H   -4.5324245   -0.0012258   -3.7833954  
H   -2.9677772   -0.0012974    0.2947961  
H    2.1134391   -0.0000547   -0.5705119  
C    0.8400945    0.7047457    2.2710304  
C    0.0000000    0.0000000    1.4700000  
C   -0.8844236   -0.7423113    2.3369512  
C   -0.4878984   -0.4098547    3.7186280  
N    0.5629682    0.4714286    3.6095011  
C   -1.0836927   -0.9095027    4.8308716  
C   -2.1891196   -1.8367527    4.6554461  
O   -2.7906899   -2.3413415    5.5944904  
C   -2.6257283   -2.2031529    3.2011665  
O   -3.5549479   -2.9829990    3.0410059  
C   -1.9068976   -1.5999348    2.0816745  
H   -0.7774656   -0.6525820    5.8354244  
H   -2.2155208   -1.8586617    1.0779135  
H    1.6384792    1.3747609    1.9961646  
H    1.0518368    0.8833920    4.3830260  
