64

C    0.8465251   -1.0681510   -7.7061049  
C    1.8962304   -1.9542123   -7.7801394  
C    2.1283637   -2.2099980   -9.1640794  
C    1.1818321   -1.4454728   -9.8931232  
N    0.4179106   -0.7654884   -8.9773372  
C    1.1184044   -1.4527415  -11.2898025  
C    2.0272447   -2.2460142  -11.9627851  
O    2.0097542   -2.2900313  -13.3268852  
C    2.9790145   -3.0162703  -11.2530983  
O    3.8143897   -3.7542856  -12.0660091  
C    3.0419894   -3.0097946   -9.8752313  
H    2.4283817   -2.3664433   -6.9399769  
H   -0.3294678   -0.1332543   -9.2002427  
H    0.3993000   -0.8724333  -11.8513486  
H    2.7154537   -2.8951989  -13.5896131  
H    4.4259706   -4.2448108  -11.5083731  
H    3.7819005   -3.6103726   -9.3591742  
C    0.5332458   -0.7193585   -5.2240418  
C   -0.2963293   -0.0005341   -4.3948471  
C   -1.1923432    0.7280154   -5.2320895  
C   -0.8589930    0.4109477   -6.5738313  
N    0.1940937   -0.4688043   -6.5330672  
C   -1.5389804    0.9506278   -7.6698022  
C   -2.5745410    1.8261035   -7.4064882  
O   -3.2722188    2.3818999   -8.4396147  
C   -2.9218737    2.1551069   -6.0745976  
O   -3.9749410    3.0410854   -5.9774574  
C   -2.2513088    1.6232871   -4.9929147  
H   -1.2897035    0.7131097   -8.6948128  
H   -3.9408690    2.9540001   -8.0410249  
H   -4.1451801    3.2101967   -5.0457796  
H   -2.5398827    1.8941059   -3.9840238  
H    1.3409600   -1.3898545   -4.9853120  
C    3.1301146   -0.0010313   -1.7028256  
C    2.5367765   -0.0002766   -0.4864669  
C    1.1089901    0.0001027   -0.7656184  
C    1.0177865   -0.0004150   -2.2415133  
N    2.1993571   -0.0011612   -2.7963824  
C   -0.2459219   -0.0002879   -2.9257116  
C   -1.3675326   -0.0000606   -2.1698520  
O   -2.6129318    0.0000865   -2.6748483  
C   -1.3083588    0.0000910   -0.6783229  
O   -2.3693264    0.0004206   -0.0541685  
C    0.0000000    0.0000000    0.0000000  
H    3.0096016   -0.0001007    0.4807518  
H   -3.1967444    0.0002093   -1.8949026  
H    4.1849275   -0.0015114   -1.9271979  
C    0.8576279    0.7185626    2.2703808  
C    0.0000000    0.0000000    1.4700000  
C   -0.8668858   -0.7285659    2.3373528  
C   -0.4876752   -0.4117774    3.6669281  
N    0.5635254    0.4678311    3.5902241  
C   -1.1297612   -0.9515493    4.7854808  
C   -2.1738724   -1.8268314    4.5576857  
O   -2.8357962   -2.3827064    5.6140350  
C   -2.5667212   -2.1555554    3.2384331  
O   -3.6226318   -3.0413663    3.1773122  
C   -1.9335634   -1.6236449    2.1344818  
H    1.0363952    0.8769718    4.3757045  
H   -0.8454472   -0.7142436    5.8013813  
H   -3.5178062   -2.9546422    5.2385129  
H   -3.8247440   -3.2102924    2.2519915  
H   -2.2566033   -1.8942483    1.1360343  
H    1.6567807    1.3889844    2.0042067  
