62

C   -4.4516595    2.1220205   -0.2154630  
C   -5.6505107    1.6231913   -0.6697669  
C   -5.3525996    0.7489266   -1.7567399  
C   -3.9437155    0.7540398   -1.9208881  
N   -3.4276992    1.5994572   -0.9703017  
C   -3.2941075    0.0012873   -2.9038235  
C   -4.0810730   -0.7709252   -3.7360196  
O   -3.4983893   -1.5256630   -4.7126791  
C   -5.4884223   -0.7889639   -3.5881684  
O   -6.1319964   -1.6071818   -4.4935272  
C   -6.1299737   -0.0463973   -2.6188732  
H   -6.6205215    1.8611249   -0.2679462  
H   -2.4522689    1.7958516   -0.8363403  
H   -4.2167866   -1.9799196   -5.1718314  
H   -7.0781684   -1.5620013   -4.3252413  
H   -7.2095094   -0.0802620   -2.5298041  
H   -4.2460853    2.8103285    0.5863659  
C    0.0000000    0.0000000    0.0000000  
C    1.0541688   -0.0001722   -0.8560392  
C    0.5103135   -0.0000454   -2.1935954  
C   -0.9576375    0.0002459   -2.0455728  
N   -1.2018462   -0.0001392   -0.6915966  
C   -1.8348315    0.0008316   -3.0810604  
C   -1.2972851    0.0009737   -4.4314603  
O   -2.0050681    0.0014265   -5.4301316  
C    0.2542617    0.0004185   -4.6117570  
O    0.7184664    0.0002257   -5.7439119  
C    1.0974549    0.0000874   -3.4189129  
H    2.0940751   -0.0005482   -0.5817983  
H   -2.1128195    0.0014911   -0.2706785  
C    2.5562209   -0.0001551   -3.6003007  
C    3.5357955   -0.0006719   -2.6598172  
C    4.7960222   -0.0006608   -3.3645613  
C    4.4679959   -0.0000618   -4.8030288  
N    3.0942332   -0.0001764   -4.8783002  
C    5.3873307    0.0005225   -5.8012910  
C    6.7937398    0.0003379   -5.4344827  
O    7.6974440    0.0007626   -6.2600850  
C    7.1641087   -0.0005465   -3.9170402  
O    8.3448907   -0.0010157   -3.5960830  
C    6.0844243   -0.0008436   -2.9331024  
H    3.3919669   -0.0012035   -1.5940186  
H    5.1255381    0.0010862   -6.8502781  
H    6.3492930   -0.0012511   -1.8844993  
H    2.5641247    0.0016992   -5.7303733  
C    3.3041272   -0.0001177    3.0120429  
C    2.5845372    0.0004780    1.8395852  
C    1.2040006    0.0000008    2.1983588  
C    1.1422373   -0.0006037    3.6154372  
N    2.4348639   -0.0026109    4.0777464  
C   -0.0655181   -0.0008797    4.3197917  
C   -1.2321768   -0.0002324    3.5801400  
O   -2.4392816   -0.0001146    4.2172520  
C   -1.1911209    0.0000007    2.1655264  
O   -2.4371527    0.0002320    1.5732860  
C    0.0000000    0.0000000    1.4700000  
H    3.0031534    0.0000661    0.8477417  
H    2.7054629    0.0071099    5.0445261  
H   -0.1193549   -0.0014844    5.3997470  
H   -3.1132988    0.0000648    3.5251786  
H   -2.3200282    0.0004071    0.6183591  
H    4.3686625   -0.0004071    3.1724291  
