60

C    5.3029689   -4.3488098   -3.6781515  
C    4.2944875   -3.5154771   -4.1035800  
C    4.2942342   -3.5563513   -5.5293885  
C    5.3332157   -4.4391664   -5.9206445  
N    5.9267844   -4.9012136   -4.7722514  
C    5.6223786   -4.7206992   -7.2592678  
C    4.8484026   -4.0999582   -8.2204236  
O    5.0875893   -4.3395752   -9.5426893  
C    3.8074895   -3.2156428   -7.8498800  
O    3.1277369   -2.6767180   -8.9226525  
C    3.5218373   -2.9372290   -6.5294953  
H    3.6402920   -2.9470986   -3.4648577  
H    6.6894764   -5.5530489   -4.7349596  
H    6.4129716   -5.3924776   -7.5640253  
H    4.4442953   -3.8142393  -10.0361058  
H    2.4423242   -2.0917267   -8.5856081  
H    5.6275743   -4.5917432   -2.6808684  
C    2.4320882   -2.0124030   -6.1859205  
C    2.0200837   -1.6305796   -4.9546439  
C    0.9177872   -0.7123209   -5.1959807  
C    0.7970290   -0.6538285   -6.6685907  
N    1.6820128   -1.4139329   -7.2542818  
C   -0.1937174    0.1588212   -7.3190579  
C   -1.0262436    0.8799454   -6.5340644  
O   -1.9968167    1.6808089   -7.0059188  
C   -0.9297033    0.8417617   -5.0449767  
O   -1.7202575    1.5239995   -4.3932128  
C    0.0950446    0.0004351   -4.4015596  
H    2.4153101   -1.9345894   -4.0004689  
H   -0.2592098    0.1826830   -8.3970423  
H   -2.4169006    2.0561000   -6.2110357  
C    3.3321173    0.0004713   -1.3379338  
C    2.6974181    0.0000116   -2.5332314  
C    1.2800438   -0.0002119   -2.2052841  
C    1.2395034    0.0000643   -0.7271299  
N    2.4394062    0.0005460   -0.2131038  
C    0.0000000    0.0000000    0.0000000  
C   -1.1468702    0.0000634   -0.7169543  
O   -2.3742203    0.0000074   -0.1695487  
C   -1.1388770    0.0001607   -2.2096355  
O   -2.2206234    0.0000905   -2.7970411  
C    0.1454522    0.0001815   -2.9324241  
H    3.1367984   -0.0000653   -3.5160950  
H   -2.9844346    0.0001026   -0.9290167  
H    4.3940038    0.0007618   -1.1498640  
C    2.4951002    2.0940188    2.9809380  
C    1.9440701    1.6314916    1.8291961  
C    0.8759964    0.7350050    2.2038498  
C    0.8497377    0.7130254    3.6788474  
N    1.8560616    1.5571714    4.0882609  
C   -0.0205033   -0.0168748    4.4215661  
C   -0.9962600   -0.8356168    3.7214979  
O   -1.8224391   -1.5286685    4.3006425  
C   -0.9864710   -0.8277881    2.1595606  
O   -1.8030528   -1.5133726    1.5592035  
C    0.0000000    0.0000000    1.4700000  
H    2.2509283    1.8888011    0.8310761  
H   -0.0229599   -0.0187323    5.5027230  
H    3.3143982    2.7817323    3.1139444  
H    2.0889452    1.7545833    5.0442112  
