60

C    4.6170338    0.5595432   -8.4628485  
C    5.7068116   -0.2799339   -8.4514691  
C    6.2636914   -0.2571084   -9.7644671  
C    5.4648204    0.6215362  -10.5401701  
N    4.4728030    1.0985670   -9.7198283  
C    5.7225840    0.8863416  -11.8885857  
C    6.8067292    0.2528513  -12.4643430  
O    7.1038831    0.4759104  -13.7777197  
C    7.6154535   -0.6275575  -11.7069379  
O    8.6568714   -1.1805731  -12.4231539  
C    7.3615929   -0.8894722  -10.3767187  
H    6.0566309   -0.8407198   -7.6016816  
H    3.7597561    1.7514482   -9.9905520  
H    5.1174446    1.5548582  -12.4853231  
H    7.8857217   -0.0561557  -13.9749500  
H    9.1530663   -1.7618143  -11.8387280  
H    7.9985482   -1.5686832   -9.8222480  
C    4.3913907   -0.7046358   -4.2635296  
C    3.2973506   -0.0000934   -3.8752374  
C    2.8435635    0.7418819   -5.0277935  
C    3.7695334    0.4094497   -6.1272746  
N    4.6845879   -0.4715002   -5.5986044  
C    3.6794141    0.9088337   -7.3859248  
C    2.5984071    1.8357535   -7.6770940  
O    2.4323282    2.3400888   -8.7799836  
C    1.6062052    2.2021221   -6.5276973  
O    0.6923306    2.9816915   -6.7608613  
C    1.8057160    1.5992066   -5.2121968  
H    1.1142472    1.8579094   -4.4218378  
H    5.0082525   -1.3743839   -3.6866339  
H    5.4466834   -0.8833671   -6.1051831  
C    3.3321174    0.0004714   -1.3379332  
C    2.6974186    0.0000115   -2.5332308  
C    1.2800441   -0.0002119   -2.2052838  
C    1.2395035    0.0000643   -0.7271293  
N    2.4394063    0.0005458   -0.2131034  
C    0.0000000    0.0000000    0.0000000  
C   -1.1468701    0.0000634   -0.7169542  
O   -2.3742201    0.0000072   -0.1695492  
C   -1.1388767    0.0001606   -2.2096354  
O   -2.2206229    0.0000903   -2.7970413  
C    0.1454526    0.0001815   -2.9324239  
H   -2.9844344    0.0001023   -0.9290168  
H    0.1083580    0.0003680   -4.0135594  
H    4.3940040    0.0007617   -1.1498630  
C    0.8175213    0.6860729    2.3021913  
C    0.0000000    0.0000000    1.4700000  
C   -0.8887526   -0.7456559    2.3478473  
C   -0.4549825   -0.3816753    3.7138435  
N    0.5448156    0.4573574    3.6934124  
C   -1.0945674   -0.9182058    4.8835240  
C   -2.1210866   -1.7789155    4.6970523  
O   -2.8083856   -2.3554314    5.6976972  
C   -2.5824069   -2.1655116    3.3310774  
O   -3.5227682   -2.9541547    3.2362962  
C   -1.9100805   -1.6015804    2.1470656  
H   -0.7567140   -0.6349833    5.8697035  
H   -3.4728268   -2.9124471    5.2533954  
H   -2.2742832   -1.9066565    1.1752040  
H    1.6189533    1.3585343    2.0405121  
