62

C    9.8238171    0.7022834   -0.6637137  
C   11.1758941    0.4503087   -0.6343154  
C   11.4067869   -0.4584681    0.4405860  
C   10.1476951   -0.7278408    1.0356098  
N    9.2085264   -0.0056090    0.3420965  
C    9.9958487   -1.5868598    2.1282298  
C   11.1357734   -2.1850783    2.6291127  
O   11.0445426   -3.0330005    3.6948128  
C   12.4010176   -1.9285790    2.0493011  
O   13.4393861   -2.5994853    2.6616885  
C   12.5515997   -1.0810384    0.9715602  
H   11.9061050    0.8707436   -1.3044054  
H    9.0390383   -1.7962063    2.5863684  
H   11.9430372   -3.3351560    3.8810256  
H   14.2574762   -2.3712708    2.2097476  
H   13.5335909   -0.9037732    0.5487725  
H    9.2498536    1.3320642   -1.3216650  
C    5.6706431   -0.0000128   -2.2998307  
C    6.9366747   -0.0017195   -1.8086715  
C    6.8296106   -0.0022717   -0.3687505  
C    5.3870842   -0.0007650   -0.0590649  
N    4.7390840    0.0009613   -1.2727298  
C    4.8700564   -0.0011572    1.1956807  
C    5.7961368   -0.0029737    2.3159068  
O    5.4290435   -0.0033984    3.4836152  
C    7.3281312   -0.0043376    2.0112791  
O    8.1174245   -0.0055641    2.9463061  
C    7.7645008   -0.0040378    0.6172084  
H    7.8422116   -0.0023200   -2.3888570  
H    3.8085782   -0.0001604    1.4010419  
H    5.3397979    0.0008321   -3.3257109  
C    3.2798077    0.0005856   -1.4499661  
C    2.5571132    0.0005565   -2.5996564  
C    1.1637425    0.0001547   -2.2210366  
C    1.1336959   -0.0000200   -0.7459475  
N    2.4483509   -0.0001429   -0.3402730  
C    0.0000000    0.0000000    0.0000000  
C   -1.2757370   -0.0000187   -0.6964411  
O   -2.3524597   -0.0000640   -0.1142306  
C   -1.2676502   -0.0000874   -2.2584078  
O   -2.3355774   -0.0004102   -2.8557287  
C    0.0181551    0.0001758   -2.9516297  
H    2.9547342    0.0006074   -3.5989118  
H    0.0150776    0.0003317   -4.0331632  
H    2.7563626    0.0012823    0.6148051  
C    0.8576279    0.7185626    2.2703808  
C    0.0000000    0.0000000    1.4700000  
C   -0.8668858   -0.7285659    2.3373528  
C   -0.4876752   -0.4117774    3.6669281  
N    0.5635254    0.4678311    3.5902241  
C   -1.1297612   -0.9515493    4.7854808  
C   -2.1738724   -1.8268314    4.5576857  
O   -2.8357962   -2.3827064    5.6140350  
C   -2.5667212   -2.1555554    3.2384331  
O   -3.6226318   -3.0413663    3.1773122  
C   -1.9335634   -1.6236449    2.1344818  
H    1.0363952    0.8769718    4.3757045  
H   -0.8454472   -0.7142436    5.8013813  
H   -3.5178062   -2.9546422    5.2385129  
H   -3.8247440   -3.2102924    2.2519915  
H   -2.2566033   -1.8942483    1.1360343  
H    1.6567807    1.3889844    2.0042067  
