62

C   -0.1373700   -0.5966889   -9.6303070  
C   -0.6141455    0.6530452   -9.3088765  
C   -0.2176638    1.5327944  -10.3593260  
C    0.5041617    0.7567337  -11.3019937  
N    0.5358869   -0.5311591  -10.8277122  
C    1.0470011    1.2990502  -12.4707573  
C    0.8574519    2.6493334  -12.6920806  
O    1.3660851    3.2302006  -13.8176466  
C    0.1404179    3.4403600  -11.7631257  
O    0.0376657    4.7675004  -12.1257332  
C   -0.3951506    2.9060754  -10.6097691  
H    0.9708149   -1.3092075  -11.2897300  
H    1.5982854    0.7129781  -13.1931206  
H    1.1237843    4.1644539  -13.7761092  
H   -0.4603619    5.2309790  -11.4454690  
H   -0.9393984    3.5369144   -9.9167214  
H   -0.2230598   -1.5293335   -9.0994675  
C   -0.2208272   -0.6524174   -5.1346212  
C   -1.2456329    0.0471727   -4.5828766  
C   -1.8635340    0.7999335   -5.6488904  
C   -1.1093178    0.4792270   -6.8757136  
N   -0.1268907   -0.4059225   -6.4959280  
C   -1.3831927    0.9908181   -8.1024867  
C   -2.4948519    1.9194408   -8.2225247  
O   -2.8209722    2.4343803   -9.2840256  
C   -3.3072320    2.2735255   -6.9362639  
O   -4.2451137    3.0544077   -7.0249357  
C   -2.9168444    1.6579632   -5.6703520  
H   -3.4845595    1.9082095   -4.7844627  
H    0.4738210   -1.3271519   -4.6612429  
H    0.5523182   -0.8120321   -7.1130151  
C    1.1243410    0.0099923   -0.7919003  
C    0.7474076    0.0234544   -2.1148543  
C   -0.6787381    0.0234490   -2.1414700  
C   -1.1201745    0.0098592   -0.7935546  
N    0.0000000    0.0000000    0.0000000  
C   -2.4730816    0.0063709   -0.4408240  
C   -3.3971958    0.0170982   -1.4675058  
O   -4.7313517    0.0146259   -1.1793471  
C   -2.9763648    0.0303504   -2.8186324  
O   -4.0166480    0.0395118   -3.7247624  
C   -1.6418562    0.0335260   -3.1673481  
H    1.4178717    0.0310972   -2.9571209  
H   -2.8160166   -0.0041111    0.5845966  
H   -5.1938818    0.0230867   -2.0274384  
H   -3.6464675    0.0482293   -4.6127343  
H    2.1062467    0.0052819   -0.3505407  
C    2.5528530    2.1414826    2.8079335  
C    2.0663498    1.7338582    4.0032312  
C    0.9804344    0.8229586    3.6752840  
C    0.9495562    0.7966882    2.1971295  
N    1.8690446    1.5676019    1.6831036  
C    0.0000000    0.0000000    1.4700000  
C   -0.8785127   -0.7372425    2.1869543  
O   -1.8187535   -1.5261249    1.6395491  
C   -0.8723269   -0.7321790    3.6796354  
O   -1.7010379   -1.4274584    4.2670412  
C    0.1115397    0.0933559    4.4024240  
H    2.4028853    2.0163452    4.9860947  
H   -2.2861435   -1.9184361    2.3990168  
H    0.0832434    0.0693689    5.4835595  
H    3.3664920    2.8238276    2.6198634  
