64

C    4.4251618    0.0565986   -6.7175106  
C    5.6078302   -0.6166420   -6.9187821  
C    6.0855137   -0.2423599   -8.2096471  
C    5.1448026    0.6694822   -8.7532766  
N    4.1483224    0.8273999   -7.8223070  
C    5.2947111    1.2466268  -10.0178796  
C    6.4148180    0.8971354  -10.7468483  
O    6.6107442    1.4315301  -11.9874324  
C    7.3645117   -0.0112342  -10.2217169  
O    8.4248514   -0.2584618  -11.0690088  
C    7.2171309   -0.5811959   -8.9743412  
H    6.0689087   -1.2950092   -6.2214890  
H    3.3475807    1.4242905   -7.9248534  
H    4.5812730    1.9421444  -10.4379560  
H    7.4395179    1.0602385  -12.3168888  
H    9.0190433   -0.8810497  -10.6389806  
H    7.9611002   -1.2739220   -8.5986842  
C    4.5310509   -2.0790483   -2.8543218  
C    4.8140929   -1.6029429   -4.0941952  
C    3.7433603   -0.7037146   -4.4544100  
C    2.8066152   -0.6948786   -3.3145762  
N    3.3414838   -1.5491129   -2.3780456  
C    1.6628945    0.0339172   -3.2649299  
C    1.3323530    0.8649107   -4.4106727  
O    0.3247032    1.5579297   -4.4623211  
C    2.3099258    0.8707261   -5.6289188  
O    2.0419948    1.5662235   -6.5993601  
C    3.5120773    0.0432787   -5.5655567  
H    5.6746400   -1.8532651   -4.6886790  
H    5.0912896   -2.7726318   -2.2485456  
H    2.9319190   -1.7542583   -1.4851743  
C    1.1243410    0.0100105   -0.7919003  
C    0.7474072    0.0234665   -2.1148542  
C   -0.6787384    0.0234379   -2.1414698  
C   -1.1201748    0.0098411   -0.7935547  
N    0.0000000    0.0000000    0.0000000  
C   -2.4730818    0.0063307   -0.4408240  
C   -3.3971962    0.0170429   -1.4675058  
O   -4.7313520    0.0145490   -1.1793468  
C   -2.9763654    0.0303020   -2.8186325  
O   -4.0166484    0.0394464   -3.7247625  
C   -1.6418567    0.0334992   -3.1673480  
H   -2.8160166   -0.0041569    0.5845966  
H   -5.1938823    0.0230023   -2.0274386  
H   -3.6464680    0.0481700   -4.6127343  
H   -1.3497475    0.0435647   -4.2109234  
H    2.1062466    0.0053162   -0.3505405  
C    0.8676693    0.7151171    2.2619005  
C    0.5875920    0.4624972    3.5848544  
C   -0.5048400   -0.4542819    3.6114698  
C   -0.8517165   -0.7276451    2.2635546  
N    0.0000000    0.0000000    1.4700000  
C   -1.8902865   -1.5946756    1.9108239  
C   -2.5912627   -2.1969500    2.9375057  
O   -3.6148162   -3.0527051    2.6493466  
C   -2.2603868   -1.9365747    4.2886322  
O   -3.0513550   -2.6123276    5.1947621  
C   -1.2361111   -1.0811317    4.6373480  
H    1.1060808    0.8876438    4.4271209  
H   -2.1597133   -1.8070987    0.8854031  
H   -3.9636755   -3.3565188    3.4974381  
H   -2.7621927   -2.3810384    6.0827341  
H   -1.0058879   -0.9010589    5.6809233  
H    1.6167816    1.3499334    1.8205408  
