62

C   -0.3584581   -0.6908959   -9.5289349  
C   -0.0692645   -0.6447750  -10.8730730  
C   -0.2743762    0.7015912  -11.2971328  
C   -0.6914948    1.4375906  -10.1586064  
N   -0.7338938    0.5615265   -9.1025138  
C   -0.9843439    2.8038605  -10.2069194  
C   -0.8534423    3.4387735  -11.4267262  
O   -1.1263160    4.7721345  -11.5301761  
C   -0.4389001    2.7214851  -12.5741012  
O   -0.3570280    3.4948881  -13.7136129  
C   -0.1500908    1.3735539  -12.5272324  
H    0.2491711   -1.4791536  -11.4742431  
H   -1.3028589    3.3704863   -9.3428093  
H   -0.9738922    5.0111813  -12.4536961  
H   -0.0706785    2.9346959  -14.4414823  
H    0.1650333    0.8507358  -13.4226854  
H   -0.3280033   -1.5183843   -8.8409718  
C    0.9070721   -0.7042925   -5.2310448  
C    0.0950446    0.0004351   -4.4015596  
C   -0.8184768    0.7430225   -5.2375492  
C   -0.4696132    0.4107475   -6.6320662  
N    0.5842462   -0.4707050   -6.5591865  
C   -1.1031226    0.9106725   -7.7231417  
C   -2.2017459    1.8380503   -7.5097580  
O   -2.8350879    2.3428870   -8.4275373  
C   -2.5881745    2.2042621   -6.0413008  
O   -3.5112398    2.9842135   -5.8492396  
C   -1.8314683    1.6007480   -4.9472170  
H   -2.1054515    1.8593460   -3.9334203  
H    1.7143130   -1.3744693   -4.9838303  
H    1.0462412   -0.8826050   -7.3490886  
C    3.3321173    0.0004713   -1.3379338  
C    2.6974181    0.0000116   -2.5332314  
C    1.2800438   -0.0002119   -2.2052841  
C    1.2395034    0.0000643   -0.7271299  
N    2.4394062    0.0005460   -0.2131038  
C    0.0000000    0.0000000    0.0000000  
C   -1.1468702    0.0000634   -0.7169543  
O   -2.3742203    0.0000074   -0.1695487  
C   -1.1388770    0.0001607   -2.2096355  
O   -2.2206234    0.0000905   -2.7970411  
C    0.1454522    0.0001815   -2.9324241  
H    3.1367984   -0.0000653   -3.5160950  
H   -2.9844346    0.0001026   -0.9290167  
H    4.3940038    0.0007618   -1.1498640  
C    0.8676693    0.7151171    2.2619005  
C    0.5875920    0.4624972    3.5848544  
C   -0.5048400   -0.4542819    3.6114698  
C   -0.8517165   -0.7276451    2.2635546  
N    0.0000000    0.0000000    1.4700000  
C   -1.8902865   -1.5946756    1.9108239  
C   -2.5912627   -2.1969500    2.9375057  
O   -3.6148162   -3.0527051    2.6493466  
C   -2.2603868   -1.9365747    4.2886322  
O   -3.0513550   -2.6123276    5.1947621  
C   -1.2361111   -1.0811317    4.6373480  
H    1.1060808    0.8876438    4.4271209  
H   -2.1597133   -1.8070987    0.8854031  
H   -3.9636755   -3.3565188    3.4974381  
H   -2.7621927   -2.3810384    6.0827341  
H   -1.0058879   -0.9010589    5.6809233  
H    1.6167816    1.3499334    1.8205408  
