60

C    5.4650857   -2.7707742   -8.6773698  
C    6.1183465   -2.2444024   -9.7676214  
C    5.8073844   -0.8528874   -9.8074821  
C    4.9534275   -0.5855545   -8.7069300  
N    4.7642792   -1.7720288   -8.0427619  
C    4.4474960    0.6890224   -8.4343948  
C    4.8104815    1.7124298   -9.2882424  
O    4.3452044    2.9766037   -9.0682526  
C    5.6612318    1.4654706  -10.3918968  
O    5.9300517    2.5873754  -11.1484733  
C    6.1605004    0.2082680  -10.6615213  
H    6.7413736   -2.7957862  -10.4508542  
H    4.2114146   -1.8910172   -7.2132059  
H    4.7134137    3.5290469   -9.7700315  
H    6.5105510    2.3339466  -11.8726282  
H    6.8099392    0.0495463  -11.5144667  
H    5.4424458   -3.7798943   -8.3030411  
C    4.4169323   -0.7262681   -4.2519965  
C    4.7208627   -0.5096733   -5.5576722  
C    3.7394655    0.4171453   -6.0702173  
C    2.8323815    0.7249817   -4.9480652  
N    3.2973506   -0.0000934   -3.8752374  
C    1.7696597    1.5653036   -5.0267153  
C    1.5012095    2.2093696   -6.3017244  
O    0.5680943    2.9826278   -6.4739712  
C    2.4487537    1.8977314   -7.5037428  
O    2.2325035    2.4338349   -8.5822092  
C    3.5619530    0.9748805   -7.2964140  
H    5.5390529   -0.9491615   -6.0999154  
H    1.1167845    1.7775507   -4.1914813  
H    4.9165210   -1.3554542   -3.5333689  
C    3.3321174    0.0004714   -1.3379332  
C    2.6974186    0.0000115   -2.5332308  
C    1.2800441   -0.0002119   -2.2052838  
C    1.2395035    0.0000643   -0.7271293  
N    2.4394063    0.0005458   -0.2131034  
C    0.0000000    0.0000000    0.0000000  
C   -1.1468701    0.0000634   -0.7169542  
O   -2.3742201    0.0000072   -0.1695492  
C   -1.1388767    0.0001606   -2.2096354  
O   -2.2206229    0.0000903   -2.7970413  
C    0.1454526    0.0001815   -2.9324239  
H   -2.9844344    0.0001023   -0.9290168  
H    0.1083580    0.0003680   -4.0135594  
H    4.3940040    0.0007617   -1.1498630  
C    2.5128556    2.1077716    2.9199648  
C    1.9592212    1.6432552    4.0696553  
C    0.8915788    0.7479214    3.6910360  
C    0.8684491    0.7287414    2.2159470  
N    1.8754542    1.5738793    1.8102719  
C    0.0000000    0.0000000    1.4700000  
C   -0.9772830   -0.8200135    2.1664417  
O   -1.8021297   -1.5120829    1.5842315  
C   -0.9711318   -0.8147624    3.7284083  
O   -1.7894187   -1.5009653    4.3257297  
C    0.0140216    0.0115358    4.4216297  
H    2.2638494    1.8988021    5.0689105  
H    0.0117648    0.0094386    5.5031631  
H    3.3327358    2.7953732    2.7900019  
H    2.1123206    1.7707734    0.8551938  
