66

C    7.5161552   -0.6273220   -4.8403109  
C    8.8861751   -0.5573834   -4.7372441  
C    9.2545295    0.7963246   -4.9949061  
C    8.0569518    1.5120484   -5.2507816  
N    7.0205195    0.6173800   -5.1508124  
C    8.0408075    2.8789979   -5.5440027  
C    9.2557177    3.5354485   -5.5792673  
O    9.2974901    4.8704699   -5.8603124  
C   10.4613790    2.8385894   -5.3271039  
O   11.5876297    3.6320894   -5.3996224  
C   10.4780797    1.4900027   -5.0380358  
H    9.5397651   -1.3809980   -4.5060042  
H    7.1314744    3.4302338   -5.7401001  
H   10.2288302    5.1258541   -5.8348084  
H   12.3575143    3.0848709   -5.2167693  
H   11.4172245    0.9831238   -4.8494654  
H    6.8534418   -1.4668968   -4.7183128  
C    3.4043357   -0.7242382   -2.9869837  
C    2.4861704   -0.0045255   -3.7159919  
C    3.2157601    0.7227063   -4.7026190  
C    4.5865270    0.4039558   -4.5256374  
N    4.6659996   -0.4754871   -3.4745038  
C    5.5977273    0.9420304   -5.3273469  
C    5.2182040    1.8176007   -6.3261040  
O    6.1649633    2.3718700   -7.1381671  
C    3.8556303    2.1482705   -6.5181128  
O    3.6391784    3.0341207   -7.5533719  
C    2.8575497    1.6180349   -5.7274092  
H    5.5125626   -0.8857746   -3.1238232  
H    5.6928636    2.9443313   -7.7567739  
H    2.6943217    3.2044150   -7.6154184  
H    1.8225156    1.8901100   -5.8981669  
H    3.2592093   -1.3942244   -2.1569140  
C    0.0000000    0.0000000    0.0000000  
C    1.0521669   -0.0011848   -0.8862341  
C    0.4917221   -0.0011931   -2.1979130  
C   -0.9187427    0.0003100   -2.0478683  
N   -1.1833170   -0.0009472   -0.7007915  
C   -1.7951698    0.0010259   -3.1372090  
C   -1.2375835    0.0005161   -4.4010425  
O   -2.0474208    0.0015256   -5.4997580  
C    0.1673584   -0.0013557   -4.5711962  
O    0.5673529   -0.0020659   -5.8915551  
C    1.0325773   -0.0023359   -3.4969890  
H    2.0953059   -0.0030542   -0.6200560  
H   -2.0989777    0.0102265   -0.2891825  
H   -2.8710930    0.0020274   -3.0295514  
H   -1.4634881    0.0006427   -6.2693593  
H    1.5290715   -0.0033076   -5.9180042  
C    1.1243417   -0.0099156    2.2619005  
C    0.7474090   -0.0234034    3.5848544  
C   -0.6787367   -0.0234952    3.6114698  
C   -1.1201739   -0.0099357    2.2635546  
N    0.0000000    0.0000000    1.4700000  
C   -2.4730812   -0.0065396    1.9108239  
C   -3.3971947   -0.0173298    2.9375057  
O   -4.7313508   -0.0149487    2.6493466  
C   -2.9763630   -0.0305536    4.2886322  
O   -4.0166453   -0.0397858    5.1947621  
C   -1.6418541   -0.0336380    4.6373480  
H    1.4178735   -0.0310004    4.4271209  
H   -2.8160170    0.0039190    0.8854031  
H   -5.1938803   -0.0234410    3.4974381  
H   -3.6464643   -0.0484781    6.0827341  
H   -1.3497443   -0.0436789    5.6809233  
H    2.1062470   -0.0051382    1.8205408  
