64

C    7.3839562   -3.0531721   -1.6830725  
C    6.8150906   -1.8299120   -1.9523206  
C    7.8835696   -0.8949127   -2.0891716  
C    9.0916027   -1.6115383   -1.8916089  
N    8.7521110   -2.9187168   -1.6453435  
C   10.3497402   -1.0050089   -1.9548609  
C   10.3891062    0.3495674   -2.2227263  
O   11.5912110    0.9918953   -2.2960233  
C    9.1946692    1.0818672   -2.4224075  
O    9.4004451    2.4216303   -2.6793796  
C    7.9531248    0.4842176   -2.3598858  
H    9.4019786   -3.6653861   -1.4775987  
H   11.2741559   -1.5455864   -1.8050855  
H   11.3946926    1.9178631   -2.4889698  
H    8.5441897    2.8428322   -2.8019289  
H    7.0556343    1.0709920   -2.5170000  
H    6.9219508   -4.0106531   -1.5135426  
C    4.3984119   -2.1246586   -1.2791002  
C    3.1669350   -1.6622720   -1.6817537  
C    3.3926771   -0.7743696   -2.7750379  
C    4.7931430   -0.7344304   -2.9964545  
N    5.3741073   -1.5640446   -2.0697197  
C    5.3781201    0.0421737   -4.0011815  
C    4.5339318    0.7918860   -4.7970812  
O    5.0522108    1.5677810   -5.7932676  
C    3.1339865    0.7655444   -4.5914709  
O    2.4286232    1.5665827   -5.4656245  
C    2.5562217   -0.0001543   -3.6003001  
H    2.2222233   -1.9309359   -1.2409227  
H    6.4447877    0.0770722   -4.1749749  
H    4.3017817    2.0011078   -6.2202927  
H    1.4920373    1.4913025   -5.2588810  
H    4.6580916   -2.8088909   -0.4895741  
C    0.0000000    0.0000000    0.0000000  
C    1.0541688   -0.0001719   -0.8560391  
C    0.5103141   -0.0000449   -2.1935955  
C   -0.9576367    0.0002461   -2.0455733  
N   -1.2018459   -0.0001392   -0.6915970  
C   -1.8348306    0.0008319   -3.0810611  
C   -1.2972842    0.0009739   -4.4314605  
O   -2.0050664    0.0014267   -5.4301321  
C    0.2542628    0.0004190   -4.6117571  
O    0.7184677    0.0002263   -5.7439119  
C    1.0974556    0.0000880   -3.4189127  
H    2.0940752   -0.0005479   -0.5817978  
H   -2.9081050    0.0011669   -2.9507065  
H   -2.1128195    0.0014911   -0.2706793  
C    1.1188642   -0.0008217    2.2703808  
C    0.0000000    0.0000000    1.4700000  
C   -1.1323862   -0.0008904    2.3373528  
C   -0.6382662   -0.0019682    3.6669281  
N    0.7324016   -0.0038477    3.5902241  
C   -1.4770914   -0.0027325    4.7854808  
C   -2.8395474   -0.0020958    4.5576857  
O   -3.7039201   -0.0024443    5.6140350  
C   -3.3517868   -0.0013946    3.2384331  
O   -4.7300496   -0.0012389    3.1773122  
C   -2.5248543   -0.0009135    2.1344818  
H    1.3576314    0.0056174    4.3757045  
H   -1.1067570   -0.0036993    5.8013813  
H   -4.5940033   -0.0021850    5.2385129  
H   -4.9934601   -0.0007286    2.2519915  
H   -2.9462578   -0.0005617    1.1360343  
H    2.1619896   -0.0009344    2.0042067  
