60

C    4.2436258   -3.5894930   -5.5140232  
C    3.4620052   -2.9379061   -6.4397505  
C    3.9275250   -3.3322399   -7.7290886  
C    5.0037493   -4.2334357   -7.5253419  
N    5.1705508   -4.3659926   -6.1691624  
C    5.7049639   -4.8249069   -8.5804482  
C    5.3123901   -4.5009550   -9.8646293  
O    5.9626237   -5.0502210  -10.9316421  
C    4.2411862   -3.6035549  -10.0882596  
O    3.9711004   -3.3819740  -11.4229130  
C    3.5491481   -3.0194704   -9.0478502  
H    5.8540929   -4.9504524   -5.7228906  
H    6.5262026   -5.5124228   -8.4318210  
H    5.5365785   -4.6958649  -11.7229582  
H    3.2353467   -2.7653010  -11.4860356  
H    2.7330581   -2.3356711   -9.2500739  
H    4.2141896   -3.5606733   -4.4382623  
C    2.3617623   -2.0132534   -6.1309080  
C    1.9111468   -1.6311561   -4.9133176  
C    0.8167587   -0.7132545   -5.1894898  
C    0.7423558   -0.6552471   -6.6651875  
N    1.6455077   -1.4153050   -7.2225180  
C   -0.2276453    0.1569480   -7.3467464  
C   -1.0846236    0.8781008   -6.5885501  
O   -2.0400755    1.6785700   -7.0909464  
C   -1.0349498    0.8404009   -5.0971509  
O   -1.8457776    1.5226371   -4.4707861  
C   -0.0307352   -0.0004646   -4.4215603  
H    2.2762462   -1.9347703   -3.9470896  
H   -0.2592112    0.1804607   -8.4262657  
H   -2.4850413    2.0539985   -6.3097857  
C    3.2573670   -0.0002920   -1.5109380  
C    2.5379468   -0.0001709   -0.3591961  
C    1.1435043    0.0000332   -0.7338500  
C    1.1092609   -0.0000082   -2.2088477  
N    2.4227562    0.0001909   -2.6182613  
C   -0.0265532   -0.0002522   -2.9515663  
C   -1.3003035   -0.0002639   -2.2514981  
O   -2.3786784   -0.0004131   -2.8306429  
C   -1.2877725    0.0000312   -0.6895608  
O   -2.3539958    0.0003307   -0.0892036  
C    0.0000000    0.0000000    0.0000000  
H    2.9384091   -0.0000369    0.6389239  
H    4.3270394   -0.0004765   -1.6439446  
H    2.7280494   -0.0013406   -3.5742113  
C    2.5128556    2.1077716    2.9199648  
C    1.9592212    1.6432552    4.0696553  
C    0.8915788    0.7479214    3.6910360  
C    0.8684491    0.7287414    2.2159470  
N    1.8754542    1.5738793    1.8102719  
C    0.0000000    0.0000000    1.4700000  
C   -0.9772830   -0.8200135    2.1664417  
O   -1.8021297   -1.5120829    1.5842315  
C   -0.9711318   -0.8147624    3.7284083  
O   -1.7894187   -1.5009653    4.3257297  
C    0.0140216    0.0115358    4.4216297  
H    2.2638494    1.8988021    5.0689105  
H    0.0117648    0.0094386    5.5031631  
H    3.3327358    2.7953732    2.7900019  
H    2.1123206    1.7707734    0.8551938  
