60

C    8.7184388   -0.0009991   -0.3845226  
C    8.1180696   -0.0002780    0.8532268  
C    9.1638594   -0.0000798    1.8232394  
C   10.3911418   -0.0004205    1.1121113  
N   10.0845357   -0.0029270   -0.2260226  
C   11.6350648   -0.0000406    1.7504271  
C   11.6401443    0.0010037    3.1317857  
O   12.8270571    0.0017659    3.8057654  
C   10.4260903    0.0009827    3.8590332  
O   10.5981244    0.0016708    5.2278819  
C    9.1985648    0.0003349    3.2299803  
H    7.0569036   -0.0010421    1.0346625  
H   10.7534029    0.0068342   -0.9746906  
H   12.5740212   -0.0004412    1.2141781  
H   12.6069142    0.0021306    4.7464041  
H    9.7304317    0.0016345    5.6434714  
H    8.2854194    0.0001541    3.8136263  
C    4.5679461   -0.0016854   -2.0086701  
C    5.6049853   -0.0016931   -1.1391129  
C    6.7955420   -0.0024716   -1.9752194  
C    6.2781462   -0.0029781   -3.3604576  
N    4.9730339   -0.0024398   -3.3863778  
C    7.1539718   -0.0037578   -4.4997622  
C    8.4861199   -0.0036307   -4.2658482  
O    9.4181587   -0.0043052   -5.2340138  
C    9.0391358   -0.0027522   -2.8793659  
O   10.2622858   -0.0028087   -2.7410729  
C    8.1201341   -0.0020061   -1.7272553  
H    5.5667631   -0.0011377   -0.0631881  
H    6.7483985   -0.0043217   -5.5009716  
H   10.2688728   -0.0039787   -4.7592102  
C    3.1301149   -0.0010311   -1.7028252  
C    2.5367768   -0.0002767   -0.4864665  
C    1.1089904    0.0001028   -0.7656183  
C    1.0177872   -0.0004148   -2.2415132  
N    2.1993578   -0.0011611   -2.7963820  
C   -0.2459209   -0.0002877   -2.9257118  
C   -1.3675319   -0.0000605   -2.1698524  
O   -2.6129313    0.0000867   -2.6748490  
C   -1.3083584    0.0000910   -0.6783232  
O   -2.3693261    0.0004206   -0.0541692  
C    0.0000000    0.0000000    0.0000000  
H    3.0096017   -0.0001007    0.4807525  
H   -0.2829630   -0.0004687   -4.0053125  
H   -3.1967441    0.0002094   -1.8949034  
C    0.8400945    0.7047457    2.2710304  
C    0.0000000    0.0000000    1.4700000  
C   -0.8844236   -0.7423113    2.3369512  
C   -0.4878984   -0.4098547    3.7186280  
N    0.5629682    0.4714286    3.6095011  
C   -1.0836927   -0.9095027    4.8308716  
C   -2.1891196   -1.8367527    4.6554461  
O   -2.7906899   -2.3413415    5.5944904  
C   -2.6257283   -2.2031529    3.2011665  
O   -3.5549479   -2.9829990    3.0410059  
C   -1.9068976   -1.5999348    2.0816745  
H   -0.7774656   -0.6525820    5.8354244  
H   -2.2155208   -1.8586617    1.0779135  
H    1.6384792    1.3747609    1.9961646  
H    1.0518368    0.8833920    4.3830260  
