62

C    0.0479587   -0.9795295   -9.5812834  
C   -0.1139545    0.0959899   -8.7389591  
C   -0.3454905    1.2379975   -9.5616445  
C   -0.3136437    0.7940961  -10.9084413  
N   -0.0707171   -0.5568425  -10.8845878  
C   -0.5047377    1.6551622  -11.9932624  
C   -0.7324253    2.9885819  -11.7133906  
O   -0.9257905    3.8727431  -12.7350970  
C   -0.7674734    3.4507070  -10.3762199  
O   -1.0043229    4.8050505  -10.2622046  
C   -0.5787686    2.6018569   -9.3055323  
H   -0.0039892   -1.1488618  -11.6926970  
H   -0.4815151    1.3231087  -13.0220499  
H   -1.0650088    4.7366957  -12.3258681  
H   -1.0122833    5.0348353   -9.3280000  
H   -0.6109718    2.9848264   -8.2922330  
H    0.2401302   -2.0144597   -9.3555656  
C    2.5385454   -2.1201622   -5.9030165  
C    1.9398804   -1.6207032   -7.0364216  
C    0.8981434   -0.7464320   -6.6062662  
C    0.9090951   -0.7521905   -5.1878960  
N    1.9159261   -1.5979815   -4.7935027  
C    0.0139741    0.0003876   -4.4216236  
C   -0.9088193    0.7730861   -5.0995376  
O   -1.8059698    1.5276806   -4.4004515  
C   -0.9357512    0.7917718   -6.5143672  
O   -1.9134458    1.6104178   -7.0409369  
C   -0.0531703    0.0493775   -7.2709569  
H    2.2188913   -1.8582314   -8.0487102  
H    2.1691871   -1.7948563   -3.8421456  
H   -2.3501706    1.9823401   -5.0564961  
H   -1.8632060    1.5656629   -8.0006639  
H    3.3594807   -2.8086769   -5.7982655  
C    3.2798085    0.0005853   -1.4499648  
C    2.5571144    0.0005562   -2.5996554  
C    1.1637436    0.0001546   -2.2210360  
C    1.1336965   -0.0000201   -0.7459470  
N    2.4483513   -0.0001430   -0.3402717  
C    0.0000000    0.0000000    0.0000000  
C   -1.2757367   -0.0000188   -0.6964414  
O   -2.3524597   -0.0000640   -0.1142313  
C   -1.2676494   -0.0000875   -2.2584081  
O   -2.3355762   -0.0004102   -2.8557294  
C    0.0181562    0.0001757   -2.9516296  
H    2.9547357    0.0006072   -3.5989105  
H    4.3498550    0.0008609   -1.3200021  
H    2.7563627    0.0012824    0.6148063  
C    0.8175213    0.6860729    2.3021913  
C    0.0000000    0.0000000    1.4700000  
C   -0.8887526   -0.7456559    2.3478473  
C   -0.4549825   -0.3816753    3.7138435  
N    0.5448156    0.4573574    3.6934124  
C   -1.0945674   -0.9182058    4.8835240  
C   -2.1210866   -1.7789155    4.6970523  
O   -2.8083856   -2.3554314    5.6976972  
C   -2.5824069   -2.1655116    3.3310774  
O   -3.5227682   -2.9541547    3.2362962  
C   -1.9100805   -1.6015804    2.1470656  
H   -0.7567140   -0.6349833    5.8697035  
H   -3.4728268   -2.9124471    5.2533954  
H   -2.2742832   -1.9066565    1.1752040  
H    1.6189533    1.3585343    2.0405121  
