60

C   -0.1867740    0.7184247   -7.1631899  
C   -1.1988917    0.4688313   -8.0608467  
C   -0.6801931   -0.4386374   -9.0314403  
C    0.6646186   -0.7097033   -8.6709807  
N    0.9325841    0.0103074   -7.5332652  
C    1.4866550   -1.5680662   -9.4073627  
C    0.9410805   -2.1638763  -10.5278704  
O    1.6994893   -3.0110599  -11.2829262  
C   -0.3985903   -1.9056602  -10.9039334  
O   -0.7946424   -2.5742412  -12.0438822  
C   -1.2100447   -1.0587651  -10.1780979  
H   -2.1888882    0.8899746   -8.0216156  
H    2.5124628   -1.7786948   -9.1380007  
H    1.1346420   -3.3114926  -12.0067728  
H   -1.7106542   -2.3449816  -12.2281854  
H   -2.2322057   -0.8801447  -10.4907637  
H   -0.1743360    1.3466509   -6.2890411  
C    1.7334697    0.0049246   -3.2500361  
C    3.0863258    0.0047397   -3.2131620  
C    3.4995612    0.0065860   -4.6080574  
C    2.2333967    0.0076344   -5.3718706  
N    1.1947440    0.0067484   -4.5811811  
C    2.2116350    0.0095936   -6.8087451  
C    3.4007174    0.0108547   -7.4532722  
O    3.5293445    0.0127183   -8.7909914  
C    4.6955633    0.0102163   -6.7106184  
O    5.7398279    0.0113190   -7.3623322  
C    4.6914544    0.0081552   -5.2368803  
H    3.7249597    0.0035935   -2.3464319  
H    4.4909158    0.0132670   -8.9476201  
H    5.6504362    0.0078670   -4.7362960  
C    1.1319247    0.0015655   -0.8009267  
C    0.7969916    0.0034943   -2.1169401  
C   -0.6453337    0.0035710   -2.1842668  
C   -1.1266832    0.0015433   -0.7896026  
N    0.0000000    0.0000000    0.0000000  
C   -2.4346130    0.0013964   -0.4276294  
C   -3.4350109    0.0031408   -1.4820183  
O   -4.6384610    0.0030973   -1.2583915  
C   -2.9478956    0.0050505   -2.9661075  
O   -3.7809378    0.0062218   -3.8623775  
C   -1.5113821    0.0053090   -3.2312122  
H   -2.7664565    0.0000232    0.6013446  
H   -1.1823527    0.0068407   -4.2614846  
H    2.1104317    0.0009391   -0.3488056  
C    2.3971438    2.0127888    3.1728260  
C    1.9431056    1.6308205    1.9564670  
C    0.8496017    0.7127664    2.2356185  
C    0.7794028    0.6545384    3.7115134  
N    1.6840587    1.4146091    4.2663826  
C   -0.1885723   -0.1578550    4.3957118  
C   -1.0476298   -0.8789867    3.6398520  
O   -2.0015663   -1.6796266    4.1448486  
C   -1.0022026   -0.8410666    2.1483229  
O   -1.8147390   -1.5232959    1.5241687  
C    0.0000000    0.0000000    1.4700000  
H    2.3054237    1.9346118    0.9892483  
H   -0.2170646   -0.1815267    5.4753125  
H   -2.4487139   -2.0549881    3.3649027  
H    3.2048689    2.6911772    3.3971983  
