62

C    9.8634395    0.7063991   -0.3009189  
C   11.2150640    0.4549158   -0.2526114  
C   11.4312315   -0.4537686    0.8254261  
C   10.1640398   -0.7235940    1.4027867  
N    9.2343996   -0.0017087    0.6961974  
C    9.9972389   -1.5826595    2.4931873  
C   11.1302636   -2.1804599    3.0099708  
O   11.0244454   -3.0284070    4.0743021  
C   12.4034013   -1.9235057    2.4479077  
O   13.4333465   -2.5940303    3.0747657  
C   12.5687320   -1.0759189    1.3723667  
H   11.9544221    0.8756106   -0.9124287  
H    9.0341908   -1.7923496    2.9379019  
H   11.9203566   -3.3302348    4.2730663  
H   14.2575950   -2.3655222    2.6343070  
H   13.5564760   -0.8983005    0.9633520  
H    9.2985041    1.3359664   -0.9668410  
C    5.7628302    0.0000245   -2.0437088  
C    4.7795901    0.0008674   -1.0815733  
C    5.4361690    0.0004501    0.1847223  
C    6.8315417   -0.0003741   -0.0699539  
N    6.9950519   -0.0025644   -1.4329936  
C    7.7866665   -0.0006597    0.9510872  
C    7.3247562    0.0002039    2.2529380  
O    8.2141754    0.0003228    3.2882870  
C    5.9363881    0.0006582    2.5272563  
O    5.6358413    0.0010892    3.8737390  
C    4.9935669    0.0006671    1.5204720  
H    7.8775299    0.0069799   -1.9116607  
H    7.6891811    0.0006695    4.0992409  
H    4.6787629    0.0014063    3.9717414  
H    3.9369291    0.0008392    1.7612932  
H    5.6826514   -0.0003807   -3.1172687  
C    3.3321168    0.0004716   -1.3379341  
C    2.6974177    0.0000118   -2.5332316  
C    1.2800432   -0.0002116   -2.2052842  
C    1.2395033    0.0000644   -0.7271298  
N    2.4394059    0.0005460   -0.2131041  
C    0.0000000    0.0000000    0.0000000  
C   -1.1468704    0.0000635   -0.7169542  
O   -2.3742206    0.0000074   -0.1695488  
C   -1.1388774    0.0001608   -2.2096352  
O   -2.2206238    0.0000906   -2.7970409  
C    0.1454514    0.0001818   -2.9324241  
H    3.1367978   -0.0000649   -3.5160956  
H   -2.9844350    0.0001027   -0.9290164  
H    0.1083567    0.0003684   -4.0135594  
C    2.3971438    2.0127888    3.1728260  
C    1.9431056    1.6308205    1.9564670  
C    0.8496017    0.7127664    2.2356185  
C    0.7794028    0.6545384    3.7115134  
N    1.6840587    1.4146091    4.2663826  
C   -0.1885723   -0.1578550    4.3957118  
C   -1.0476298   -0.8789867    3.6398520  
O   -2.0015663   -1.6796266    4.1448486  
C   -1.0022026   -0.8410666    2.1483229  
O   -1.8147390   -1.5232959    1.5241687  
C    0.0000000    0.0000000    1.4700000  
H    2.3054237    1.9346118    0.9892483  
H   -0.2170646   -0.1815267    5.4753125  
H   -2.4487139   -2.0549881    3.3649027  
H    3.2048689    2.6911772    3.3971983  
