62

C    0.5335753   -0.7189664   -5.2240529  
C   -0.2963289   -0.0005348   -4.3948470  
C   -1.1926763    0.7276175   -5.2320779  
C   -0.8591806    0.4107232   -6.5738253  
N    0.1943088   -0.4685472   -6.5330745  
C   -1.5394153    0.9501093   -7.6697869  
C   -2.5753767    1.8251064   -7.4064600  
O   -3.2733090    2.3805997   -8.4395776  
C   -2.9228600    2.1539302   -6.0745639  
O   -3.9763323    3.0394244   -5.9774101  
C   -2.2520516    1.6224005   -4.9928895  
H    0.6400945   -0.8776732   -7.3342434  
H   -1.2900295    0.7127208   -8.6948023  
H   -3.9422210    2.9523873   -8.0409805  
H   -4.1466492    3.2084433   -5.0457295  
H   -2.5407495    1.8930714   -3.9839946  
H    1.3415964   -1.3890960   -4.9853337  
C    3.1301148   -0.0010315   -1.7028253  
C    2.5367766   -0.0002767   -0.4864666  
C    1.1089903    0.0001025   -0.7656183  
C    1.0177867   -0.0004153   -2.2415131  
N    2.1993574   -0.0011616   -2.7963821  
C   -0.2459218   -0.0002884   -2.9257117  
C   -1.3675324   -0.0000610   -2.1698519  
O   -2.6129318    0.0000862   -2.6748483  
C   -1.3083588    0.0000908   -0.6783229  
O   -2.3693264    0.0004202   -0.0541688  
C    0.0000000    0.0000000    0.0000000  
H    3.0096015   -0.0001006    0.4807520  
H   -3.1967441    0.0002093   -1.8949029  
C    4.5679459   -0.0016858   -2.0086704  
C    5.6245800   -0.0018699   -1.1556762  
C    6.8197129   -0.0025289   -1.9659190  
C    6.3695107   -0.0026859   -3.3709487  
N    4.9943545   -0.0025539   -3.3281077  
C    7.1998306   -0.0028683   -4.4443882  
C    8.6325199   -0.0031392   -4.1995666  
O    9.4620772   -0.0033788   -5.0996420  
C    9.1316829   -0.0032312   -2.7194850  
O   10.3356432   -0.0037654   -2.5009923  
C    8.1403751   -0.0027360   -1.6465634  
H    5.5727012   -0.0017596   -0.0814685  
H    6.8490261   -0.0028511   -5.4670542  
H    8.4942119   -0.0025979   -0.6245440  
H    4.3931129   -0.0010552   -4.1315715  
C    0.8576279    0.7185626    2.2703808  
C    0.0000000    0.0000000    1.4700000  
C   -0.8668858   -0.7285659    2.3373528  
C   -0.4876752   -0.4117774    3.6669281  
N    0.5635254    0.4678311    3.5902241  
C   -1.1297612   -0.9515493    4.7854808  
C   -2.1738724   -1.8268314    4.5576857  
O   -2.8357962   -2.3827064    5.6140350  
C   -2.5667212   -2.1555554    3.2384331  
O   -3.6226318   -3.0413663    3.1773122  
C   -1.9335634   -1.6236449    2.1344818  
H    1.0363952    0.8769718    4.3757045  
H   -0.8454472   -0.7142436    5.8013813  
H   -3.5178062   -2.9546422    5.2385129  
H   -3.8247440   -3.2102924    2.2519915  
H   -2.2566033   -1.8942483    1.1360343  
H    1.6567807    1.3889844    2.0042067  
