60

C    3.3413559   -3.5655512   -4.3571225  
C    4.4304000   -4.3388118   -4.6865443  
C    4.6524525   -4.1708245   -6.0854986  
C    3.6595025   -3.2759469   -6.5600219  
N    2.8789095   -2.9293009   -5.4852531  
C    3.5744325   -2.8814309   -7.8986438  
C    4.5089460   -3.3994931   -8.7741288  
O    4.4720051   -3.0472554  -10.0923011  
C    5.5070927   -4.2939800   -8.3198014  
O    6.3634138   -4.7223417   -9.3130604  
C    5.5914500   -4.6838262   -6.9994116  
H    4.9946152   -4.9497591   -4.0028796  
H    2.8199666   -2.1998455   -8.2666446  
H    5.2012344   -3.5144767  -10.5203124  
H    7.0061915   -5.3223262   -8.9225987  
H    6.3669351   -5.3705732   -6.6808540  
H    2.8570023   -3.4186498   -3.4069750  
C    1.7371424   -2.0043750   -5.5274499  
C    0.9346266   -1.6238673   -4.5062931  
C   -0.0220096   -0.7047842   -5.1034810  
C    0.3601286   -0.6444245   -6.5306850  
N    1.3906159   -1.4042329   -6.7851956  
C   -0.3537166    0.1694992   -7.4756929  
C   -1.4019181    0.8900574   -7.0159061  
O   -2.1569094    1.6919656   -7.7859529  
C   -1.8124076    0.8499979   -5.5813138  
O   -2.7762296    1.5318134   -5.2328958  
C   -1.0641734    0.0073898   -4.6315339  
H    0.9854830   -1.9292388   -3.4751590  
H   -0.0524154    0.1947168   -8.5127516  
H   -2.8200949    2.0664814   -7.1784370  
C    1.1319248    0.0015675   -0.8009270  
C    0.7969916    0.0034959   -2.1169404  
C   -0.6453336    0.0035703   -2.1842672  
C   -1.1266831    0.0015415   -0.7896027  
N    0.0000000    0.0000000    0.0000000  
C   -2.4346129    0.0013924   -0.4276297  
C   -3.4350110    0.0031352   -1.4820184  
O   -4.6384610    0.0030897   -1.2583919  
C   -2.9478958    0.0050460   -2.9661075  
O   -3.7809377    0.0062160   -3.8623775  
C   -1.5113821    0.0053068   -3.2312125  
H    1.4821240    0.0045436   -2.9459192  
H   -2.7664565    0.0000185    0.6013447  
H    2.1104318    0.0009428   -0.3488058  
C    0.0000000    0.0000000    1.4700000  
C    1.0662921    0.0000102    2.3034270  
C    0.4961870   -0.0000064    3.6418889  
C   -0.9663858    0.0000850    3.4240247  
N   -1.2632773    0.0000084    2.1528658  
C   -1.8985362    0.0000517    4.5177257  
C   -1.3925775   -0.0004564    5.7720543  
O   -2.1456383   -0.0005410    6.8851312  
C    0.0786232   -0.0009323    6.0245000  
O    0.4683759   -0.0012588    7.1921102  
C    1.0143166   -0.0008442    4.8859032  
H    2.1107198   -0.0000632    2.0421868  
H   -2.9622183    0.0003270    4.3293377  
H   -1.5042274   -0.0009692    7.6184419  
H    2.0724152   -0.0013148    5.1109744  
