60

C    0.6154058   -0.0047905   -7.7869105  
C   -0.4520808   -0.0017859   -6.9191953  
C   -1.6356971   -0.0016470   -7.7152188  
C   -1.2243361   -0.0049498   -9.0726787  
N    0.1484551   -0.0048433   -9.0804739  
C   -2.1304070   -0.0060544  -10.1374904  
C   -3.4762625   -0.0040906   -9.8262831  
O   -4.4040049   -0.0054027  -10.8274360  
C   -3.9063417   -0.0004137   -8.4780123  
O   -5.2782299    0.0015946   -8.3321919  
C   -3.0130395    0.0009513   -7.4270438  
H   -0.3858274    0.0011817   -5.8446747  
H    0.7241471   -0.0173788   -9.9029103  
H   -1.8232944   -0.0084243  -11.1742538  
H   -5.2692903   -0.0033382  -10.3978531  
H   -5.4841969    0.0040164   -7.3924179  
H   -3.3721984    0.0039620   -6.4045599  
C    2.8699641   -0.0020527   -4.0185824  
C    4.1345930   -0.0036616   -4.5133420  
C    4.0234314   -0.0055091   -5.9529510  
C    2.5800287   -0.0048106   -6.2585304  
N    1.9354845   -0.0030990   -5.0430271  
C    2.0594329   -0.0056969   -7.5117999  
C    2.9823227   -0.0076823   -8.6346564  
O    2.6119075   -0.0086663   -9.8013143  
C    4.5151773   -0.0087043   -8.3343882  
O    5.3018065   -0.0106823   -9.2716567  
C    4.9555126   -0.0073189   -6.9415654  
H    5.0417777   -0.0037476   -3.9357356  
H    6.0185127   -0.0078336   -6.7421798  
H    0.9396386   -0.0007138   -4.9192027  
C    3.2573673   -0.0002921   -1.5109381  
C    2.5379469   -0.0001710   -0.3591962  
C    1.1435042    0.0000332   -0.7338498  
C    1.1092607   -0.0000083   -2.2088474  
N    2.4227562    0.0001908   -2.6182610  
C   -0.0265532   -0.0002523   -2.9515663  
C   -1.3003033   -0.0002639   -2.2514979  
O   -2.3786784   -0.0004132   -2.8306425  
C   -1.2877726    0.0000312   -0.6895609  
O   -2.3539956    0.0003308   -0.0892035  
C    0.0000000    0.0000000    0.0000000  
H    2.9384091   -0.0000368    0.6389240  
H   -0.0296292   -0.0004086   -4.0327231  
H    4.3270395   -0.0004765   -1.6439444  
C    0.0000000    0.0000000    1.4700000  
C    1.0662921    0.0000102    2.3034270  
C    0.4961870   -0.0000064    3.6418889  
C   -0.9663858    0.0000850    3.4240247  
N   -1.2632773    0.0000084    2.1528658  
C   -1.8985362    0.0000517    4.5177257  
C   -1.3925775   -0.0004564    5.7720543  
O   -2.1456383   -0.0005410    6.8851312  
C    0.0786232   -0.0009323    6.0245000  
O    0.4683759   -0.0012588    7.1921102  
C    1.0143166   -0.0008442    4.8859032  
H    2.1107198   -0.0000632    2.0421868  
H   -2.9622183    0.0003270    4.3293377  
H   -1.5042274   -0.0009692    7.6184419  
H    2.0724152   -0.0013148    5.1109744  
