62

C    7.3478076   -0.3751664   -5.3604312  
C    6.7422192    0.8406274   -5.5785494  
C    7.7834973    1.7933179   -5.7852413  
C    9.0135270    1.0946839   -5.6810133  
N    8.7128749   -0.2192748   -5.4207470  
C   10.2543158    1.7214869   -5.8305082  
C   10.2533729    3.0782155   -6.0902486  
O   11.4370064    3.7399874   -6.2454377  
C    9.0365079    3.7927502   -6.1974543  
O    9.2025349    5.1372374   -6.4584795  
C    7.8120767    3.1750943   -6.0498203  
H    9.3845734   -0.9566087   -5.3061116  
H   11.1953438    1.1946845   -5.7520919  
H   11.2128344    4.6639461   -6.4166423  
H    8.3332855    5.5455868   -6.5155761  
H    6.8966605    3.7485610   -6.1371540  
H    6.9140517   -1.3409273   -5.1651860  
C    3.4075051   -0.7135436   -3.0380983  
C    4.6431440   -0.4602656   -3.5872018  
C    4.4415535    0.4568466   -4.6609182  
C    3.0508655    0.7297251   -4.7196559  
N    2.4521483    0.0014840   -3.7217481  
C    2.4894551    1.5969074   -5.6617819  
C    3.3476058    2.1998352   -6.5607998  
O    2.8524827    3.0557657   -7.5016764  
C    4.7381013    1.9399506   -6.5183756  
O    5.4595883    2.6163301   -7.4803063  
C    5.2926064    1.0843579   -5.5893912  
H    5.5750094   -0.8851980   -3.2554603  
H    1.4303405    1.8089636   -5.7118855  
H    3.6093213    3.3600514   -8.0192390  
H    6.3883749    2.3853431   -7.3823091  
H    3.1318943   -1.3487722   -2.2137910  
C    0.0000000    0.0000000    0.0000000  
C    1.0662923   -0.0000101   -0.8334270  
C    0.4961873    0.0000065   -2.1718887  
C   -0.9663854   -0.0000848   -1.9540250  
N   -1.2632773   -0.0000083   -0.6828660  
C   -1.8985359   -0.0000514   -3.0477261  
C   -1.3925770    0.0004566   -4.3020547  
O   -2.1456378    0.0005414   -5.4151314  
C    0.0786240    0.0009326   -4.5545000  
O    0.4683767    0.0012591   -5.7221100  
C    1.0143171    0.0008444   -3.4159031  
H    2.1107200    0.0000633   -0.5721865  
H   -2.9622181   -0.0003268   -2.8593381  
H   -1.5042265    0.0009697   -6.1484419  
C    3.2798086   -0.0005857    2.9199648  
C    2.5571146   -0.0005566    4.0696553  
C    1.1637436   -0.0001548    3.6910360  
C    1.1336965    0.0000200    2.2159470  
N    2.4483514    0.0001428    1.8102719  
C    0.0000000    0.0000000    1.4700000  
C   -1.2757367    0.0000186    2.1664417  
O   -2.3524596    0.0000640    1.5842315  
C   -1.2676493    0.0000873    3.7284083  
O   -2.3355761    0.0004100    4.3257297  
C    0.0181563   -0.0001760    4.4216297  
H    2.9547357   -0.0006076    5.0689105  
H    0.0150794   -0.0003319    5.5031631  
H    4.3498549   -0.0008612    2.7900019  
H    2.7563627   -0.0012824    0.8551938  
