60

C   -9.0863597    3.2310823   -1.6485916  
C  -10.2285131    2.4643022   -1.6488800  
C   -9.8306567    1.1247975   -1.9353009  
C   -8.4220319    1.1354937   -2.1013953  
N   -8.0023765    2.4303088   -1.9226193  
C   -7.6862934   -0.0167344   -2.3943933  
C   -8.3852512   -1.2013936   -2.5217449  
O   -7.7162431   -2.3564351   -2.8069122  
C   -9.7908465   -1.2322648   -2.3599849  
O  -10.3411081   -2.4874882   -2.5180038  
C  -10.5173501   -0.0959028   -2.0711942  
H  -11.2258854    2.8261244   -1.4663219  
H   -7.0496410    2.7433915   -1.9701071  
H   -8.3829134   -3.0541442   -2.8518198  
H  -11.2926476   -2.4204033   -2.3928041  
H  -11.5932441   -0.1504535   -1.9530688  
H   -8.9593481    4.2860901   -1.4760109  
C   -4.4924717    2.0950385   -0.2442177  
C   -3.4157280    1.6323169   -0.9302108  
C   -3.9167334    0.7362617   -1.9455502  
C   -5.3841445    0.7147473   -1.7937831  
N   -5.6689495    1.5587231   -0.7452222  
C   -6.2266195   -0.0146657   -2.5683130  
C   -5.6495861   -0.8333367   -3.6215676  
O   -6.3243554   -1.5259649   -4.3720696  
C   -4.0978604   -0.8259954   -3.8001700  
O   -3.6005729   -1.5115249   -4.6833547  
C   -3.2941076    0.0012878   -2.9038237  
H   -2.3878033    1.8892264   -0.7458682  
H   -4.5254896    2.7825514    0.5853157  
H   -6.5897791    1.7563628   -0.3987286  
C    0.0000000    0.0000000    0.0000000  
C    1.0541688   -0.0001723   -0.8560392  
C    0.5103136   -0.0000455   -2.1935956  
C   -0.9576373    0.0002461   -2.0455730  
N   -1.2018460   -0.0001389   -0.6915968  
C   -1.8348314    0.0008319   -3.0810607  
C   -1.2972851    0.0009739   -4.4314603  
O   -2.0050676    0.0014268   -5.4301316  
C    0.2542619    0.0004184   -4.6117572  
O    0.7184666    0.0002257   -5.7439122  
C    1.0974551    0.0000873   -3.4189129  
H    2.0940752   -0.0005484   -0.5817983  
H    2.1707276   -0.0000912   -3.5523673  
H   -2.1128194    0.0014915   -0.2706789  
C    0.0000000    0.0000000    1.4700000  
C    1.0662921    0.0000102    2.3034270  
C    0.4961870   -0.0000064    3.6418889  
C   -0.9663858    0.0000850    3.4240247  
N   -1.2632773    0.0000084    2.1528658  
C   -1.8985362    0.0000517    4.5177257  
C   -1.3925775   -0.0004564    5.7720543  
O   -2.1456383   -0.0005410    6.8851312  
C    0.0786232   -0.0009323    6.0245000  
O    0.4683759   -0.0012588    7.1921102  
C    1.0143166   -0.0008442    4.8859032  
H    2.1107198   -0.0000632    2.0421868  
H   -2.9622183    0.0003270    4.3293377  
H   -1.5042274   -0.0009692    7.6184419  
H    2.0724152   -0.0013148    5.1109744  
