62

C    6.7312669   -2.1226663    2.0290277  
C    6.8695243   -1.6614797    0.7403623  
C    7.9870681   -0.7751155    0.7330014  
C    8.4950726   -0.7348346    2.0567216  
N    7.7083547   -1.5627726    2.8184381  
C    9.6005868    0.0405380    2.4192467  
C   10.2044570    0.7886443    1.4273522  
O   11.2877396    1.5632889    1.7264157  
C    9.7120396    0.7619375    0.1008417  
O   10.4214050    1.5613188   -0.7715877  
C    8.6213016   -0.0025467   -0.2574580  
H    6.2414170   -1.9299351   -0.0917469  
H    7.8344427   -1.7437594    3.7978899  
H    9.9925532    0.0756893    3.4263857  
H   11.5498807    1.9956098    0.9032240  
H   10.0242184    1.4858984   -1.6446043  
H    6.0121089   -2.8055836    2.4478291  
C    4.5679461   -0.0016854   -2.0086701  
C    5.6245801   -0.0018691   -1.1556757  
C    6.8197127   -0.0025277   -1.9659180  
C    6.3695112   -0.0026848   -3.3709478  
N    4.9943549   -0.0025530   -3.3281074  
C    7.1998322   -0.0028670   -4.4443873  
C    8.6325205   -0.0031374   -4.1995651  
O    9.4620789   -0.0033768   -5.0996406  
C    9.1316833   -0.0032294   -2.7194836  
O   10.3356445   -0.0037633   -2.5009908  
C    8.1403754   -0.0027345   -1.6465622  
H    5.5727011   -0.0017590   -0.0814681  
H    6.8490268   -0.0028498   -5.4670534  
H    4.3931139   -0.0010546   -4.1315712  
C    3.1301149   -0.0010311   -1.7028252  
C    2.5367768   -0.0002767   -0.4864665  
C    1.1089904    0.0001028   -0.7656183  
C    1.0177872   -0.0004148   -2.2415132  
N    2.1993578   -0.0011611   -2.7963820  
C   -0.2459209   -0.0002877   -2.9257118  
C   -1.3675319   -0.0000605   -2.1698524  
O   -2.6129313    0.0000867   -2.6748490  
C   -1.3083584    0.0000910   -0.6783232  
O   -2.3693261    0.0004206   -0.0541692  
C    0.0000000    0.0000000    0.0000000  
H    3.0096017   -0.0001007    0.4807525  
H   -0.2829630   -0.0004687   -4.0053125  
H   -3.1967441    0.0002094   -1.8949034  
C    0.8676693    0.7151171    2.2619005  
C    0.5875920    0.4624972    3.5848544  
C   -0.5048400   -0.4542819    3.6114698  
C   -0.8517165   -0.7276451    2.2635546  
N    0.0000000    0.0000000    1.4700000  
C   -1.8902865   -1.5946756    1.9108239  
C   -2.5912627   -2.1969500    2.9375057  
O   -3.6148162   -3.0527051    2.6493466  
C   -2.2603868   -1.9365747    4.2886322  
O   -3.0513550   -2.6123276    5.1947621  
C   -1.2361111   -1.0811317    4.6373480  
H    1.1060808    0.8876438    4.4271209  
H   -2.1597133   -1.8070987    0.8854031  
H   -3.9636755   -3.3565188    3.4974381  
H   -2.7621927   -2.3810384    6.0827341  
H   -1.0058879   -0.9010589    5.6809233  
H    1.6167816    1.3499334    1.8205408  
