64

C   -2.8124222   -0.3245811   -4.0232747  
C   -4.0559507   -0.4707580   -4.5931311  
C   -3.8730668   -0.4321916   -6.0072268  
C   -2.4850631   -0.2593883   -6.2428328  
N   -1.8704033   -0.1959211   -5.0169525  
C   -1.9404585   -0.1782690   -7.5279845  
C   -2.8128917   -0.2736298   -8.5947286  
O   -2.3343873   -0.2010819   -9.8709673  
C   -4.2010694   -0.4458481   -8.3799709  
O   -4.9381635   -0.5231768   -9.5436091  
C   -4.7390660   -0.5256856   -7.1124093  
H   -4.9812060   -0.5893638   -4.0557037  
H   -0.8836248   -0.0868250   -4.8674615  
H   -3.0992028   -0.2882011  -10.4546900  
H   -5.8642060   -0.6390888   -9.3099139  
H   -5.8064515   -0.6575714   -6.9790940  
C   -3.2807431   -0.3924024   -1.5420425  
C   -2.5663138   -0.3063771   -0.3695849  
C   -1.1954849   -0.1429453   -0.7283585  
C   -1.1340867   -0.1362125   -2.1454373  
N   -2.4173321   -0.2916738   -2.6077464  
C    0.0651593    0.0069054   -2.8497914  
C    1.2234893    0.1460609   -2.1101398  
O    2.4220425    0.2894926   -2.7472516  
C    1.1826961    0.1414179   -0.6955264  
O    2.4198875    0.2895839   -0.1032864  
C    0.0000000    0.0000000    0.0000000  
H   -2.9819198   -0.3564868    0.6222585  
H    0.1186871    0.0126971   -3.9297470  
H    3.0912711    0.3696941   -2.0551784  
H    2.3035703    0.2758518    0.8516409  
H   -4.3377150   -0.5190779   -1.7024291  
C   -0.5035640    0.0009226   -7.7812130  
C    0.5441532    0.1185729   -6.8975191  
C    1.7297236    0.2727068   -7.6755075  
C    1.3398398    0.2414372   -9.0389367  
N   -0.0223351    0.0732675   -9.0674999  
C    2.2535450    0.3659450  -10.0898546  
C    3.5850544    0.5252198   -9.7583574  
O    4.5193614    0.6518452  -10.7452973  
C    3.9936878    0.5585183   -8.4038361  
O    5.3533200    0.7228679   -8.2373043  
C    3.0928765    0.4354778   -7.3665675  
H    0.4639389    0.0949732   -5.8242060  
H   -0.5838117    0.0247879   -9.8983883  
H    1.9627989    0.3427766  -11.1310719  
H    5.3723549    0.7507732  -10.3027140  
H    5.5450370    0.7347268   -7.2945914  
H    3.4355458    0.4645520   -6.3388464  
C    2.4951002    2.0940188    2.9809380  
C    1.9440701    1.6314916    1.8291961  
C    0.8759964    0.7350050    2.2038498  
C    0.8497377    0.7130254    3.6788474  
N    1.8560616    1.5571714    4.0882609  
C   -0.0205033   -0.0168748    4.4215661  
C   -0.9962600   -0.8356168    3.7214979  
O   -1.8224391   -1.5286685    4.3006425  
C   -0.9864710   -0.8277881    2.1595606  
O   -1.8030528   -1.5133726    1.5592035  
C    0.0000000    0.0000000    1.4700000  
H    2.2509283    1.8888011    0.8310761  
H   -0.0229599   -0.0187323    5.5027230  
H    3.3143982    2.7817323    3.1139444  
H    2.0889452    1.7545833    5.0442112  
