64

C    8.0573293    0.7180724   -4.4124313  
C    8.6569830    0.4706170   -5.6255471  
C    9.7289943   -0.4383711   -5.3823739  
C    9.7346470   -0.7125243   -3.9907083  
N    8.7081107    0.0071868   -3.4313735  
C   10.6605115   -1.5730580   -3.3931736  
C   11.5975505   -2.1679034   -4.2155442  
O   12.5247074   -3.0171121   -3.6842834  
C   11.6082920   -1.9066171   -5.6063821  
O   12.6033455   -2.5745950   -6.2897682  
C   10.6953759   -1.0575796   -6.1965057  
H    8.3591588    0.8941233   -6.5694406  
H   10.6702155   -1.7860425   -2.3331054  
H   13.0742505   -3.3164176   -4.4202751  
H   12.5404682   -2.3432142   -7.2214947  
H   10.7283807   -0.8766244   -7.2645155  
H    7.2177968    1.3465279   -4.1691473  
C    4.7630507    0.0004755   -1.3275395  
C    5.7496385    0.0026097   -2.2862402  
C    6.9990004    0.0020490   -1.5979847  
C    6.7092701   -0.0007640   -0.2094692  
N    5.3425445    0.0002945   -0.0803285  
C    7.7059377   -0.0023356    0.7710609  
C    9.0190064   -0.0013508    0.3420777  
O   10.0316325   -0.0031543    1.2572819  
C    9.3281966    0.0018248   -1.0389397  
O   10.6818191    0.0028611   -1.3054863  
C    8.3454711    0.0036499   -2.0068103  
H    5.5886421    0.0054611   -3.3506954  
H    4.8418150   -0.0117182    0.7897905  
H    7.4916924   -0.0043362    1.8309178  
H   10.8555488   -0.0017543    0.7528762  
H   10.8038891    0.0049982   -2.2597913  
C    3.3003548    0.0005276   -1.4738982  
C    2.5232817    0.0003497   -2.6090743  
C    1.1623204   -0.0001319   -2.1820101  
C    1.1711886    0.0000583   -0.7636140  
N    2.4852302   -0.0014919   -0.3662356  
C    0.0000000    0.0000000    0.0000000  
C   -1.2020379    0.0000520   -0.6806479  
O   -2.3759249    0.0003495    0.0157742  
C   -1.2314652   -0.0005112   -2.0955511  
O   -2.5054384   -0.0008036   -2.6250184  
C   -0.0764510   -0.0007271   -2.8495195  
H    2.8919962   -0.0005619   -3.6205297  
H    2.8036267    0.0088181    0.5858667  
H   -3.0835636    0.0000348   -0.6418823  
H   -2.4360038   -0.0011526   -3.5845925  
H   -0.1304090   -0.0013420   -3.9319089  
C    0.8175213    0.6860729    2.3021913  
C    0.0000000    0.0000000    1.4700000  
C   -0.8887526   -0.7456559    2.3478473  
C   -0.4549825   -0.3816753    3.7138435  
N    0.5448156    0.4573574    3.6934124  
C   -1.0945674   -0.9182058    4.8835240  
C   -2.1210866   -1.7789155    4.6970523  
O   -2.8083856   -2.3554314    5.6976972  
C   -2.5824069   -2.1655116    3.3310774  
O   -3.5227682   -2.9541547    3.2362962  
C   -1.9100805   -1.6015804    2.1470656  
H   -0.7567140   -0.6349833    5.8697035  
H   -3.4728268   -2.9124471    5.2533954  
H   -2.2742832   -1.9066565    1.1752040  
H    1.6189533    1.3585343    2.0405121  
