60

C    3.4139327   -0.7157106   -3.0486430  
C    2.4521480    0.0014830   -3.7217483  
C    3.1196678    0.7293942   -4.7509045  
C    4.4992575    0.4136353   -4.6562809  
N    4.6435344   -0.4647552   -3.6111822  
C    5.4593789    0.9531296   -5.5176186  
C    5.0187445    1.8270698   -6.4924252  
O    5.9138847    2.3826163   -7.3602413  
C    3.6464060    2.1547521   -6.6025488  
O    3.3663363    3.0392793   -7.6235855  
C    2.6987037    1.6231153   -5.7529906  
H    5.5104848   -0.8729912   -3.3116471  
H    6.5123601    0.7166040   -5.4506373  
H    5.4042989    2.9535767   -7.9498100  
H    2.4191006    3.2075626   -7.6289354  
H    1.6547132    1.8928996   -5.8615160  
H    3.3203042   -1.3852968   -2.2108799  
C    0.0000000    0.0000000    0.0000000  
C    1.0662921   -0.0000106   -0.8334269  
C    0.4961870    0.0000059   -2.1718889  
C   -0.9663856   -0.0000854   -1.9540246  
N   -1.2632773   -0.0000087   -0.6828657  
C   -1.8985362   -0.0000522   -3.0477258  
C   -1.3925773    0.0004558   -4.3020541  
O   -2.1456384    0.0005402   -5.4151311  
C    0.0786236    0.0009315   -4.5544999  
O    0.4683762    0.0012578   -5.7221098  
C    1.0143167    0.0008435   -3.4159031  
H    2.1107198    0.0000631   -0.5721865  
H   -1.5042271    0.0009682   -6.1484419  
C   -4.0230210    0.6852474   -1.8410563  
C   -3.3460094   -0.0004268   -2.7913647  
C   -4.3652411   -0.7461035   -3.5136062  
C   -5.6347338   -0.3825701   -2.8481619  
N   -5.4404329    0.4562396   -1.8670223  
C   -6.8979172   -0.9192526   -3.2741034  
C   -6.8931418   -1.7796806   -4.3176434  
O   -7.9981923   -2.3562945   -4.8200573  
C   -5.6284695   -2.1658232   -5.0102177  
O   -5.6989692   -2.9542275   -5.9529104  
C   -4.3454707   -1.6017437   -4.5545287  
H   -7.8101238   -0.6363586   -2.7693660  
H   -7.6764571   -2.9130454   -5.5519503  
H   -3.4519528   -1.9064890   -5.0827203  
H   -3.6257278    1.3575925   -1.0973603  
C    3.1301144    0.0010313    3.1728260  
C    2.5367765    0.0002768    1.9564670  
C    1.1089900   -0.0001027    2.2356185  
C    1.0177864    0.0004150    3.7115134  
N    2.1993570    0.0011613    4.2663826  
C   -0.2459220    0.0002880    4.3957118  
C   -1.3675327    0.0000606    3.6398520  
O   -2.6129319   -0.0000866    4.1448486  
C   -1.3083589   -0.0000910    2.1483229  
O   -2.3693264   -0.0004206    1.5241687  
C    0.0000000    0.0000000    1.4700000  
H    3.0096015    0.0001008    0.9892483  
H   -0.2829642    0.0004689    5.4753125  
H   -3.1967446   -0.0002093    3.3649027  
H    4.1849273    0.0015113    3.3971983  
