62

C   -0.8363310   -0.5373625   -9.4111012  
C   -0.6390026   -0.4292117  -10.7682425  
C   -0.8691466    0.9351102  -11.1150269  
C   -1.2061544    1.6176288   -9.9181472  
N   -1.1788610    0.6938442   -8.9030145  
C   -1.4982594    2.9844751   -9.8835731  
C   -1.4489675    3.6749619  -11.0789718  
O   -1.7249692    5.0114853  -11.1022187  
C   -1.1150849    3.0115394  -12.2836332  
O   -1.1089152    3.8366390  -13.3893064  
C   -0.8270640    1.6630767  -12.3185291  
H   -0.3641870   -1.2348118  -11.4273928  
H   -1.7559486    3.5105010   -8.9746748  
H   -1.6350478    5.2928995  -12.0219936  
H   -0.8740463    3.3107461  -14.1599407  
H   -0.5747794    1.1822524  -13.2564191  
H   -0.7612407   -1.3956255   -8.7655742  
C    0.6885596   -0.7240816   -5.1615363  
C    0.3679863   -0.5066236   -6.4630814  
C   -0.7389728    0.4203823   -6.4747905  
C   -1.0391602    0.7273879   -5.0632572  
N   -0.1387079    0.0017019   -4.3179684  
C   -2.0220498    1.5676130   -4.6513664  
C   -2.8389243    2.2124441   -5.6659819  
O   -3.7486888    2.9856822   -5.3962920  
C   -2.5388529    1.9016926   -7.1670468  
O   -3.2201631    2.4384450   -8.0301652  
C   -1.4526772    0.9788645   -7.4871443  
H    0.8516418   -0.9456581   -7.3174464  
H   -2.2256239    1.7792448   -3.6108473  
H    1.4594144   -1.3536511   -4.7476343  
C    3.3041273    0.0001178   -1.5420428  
C    2.5845373   -0.0004780   -0.3695851  
C    1.2040007   -0.0000007   -0.7283589  
C    1.1422374    0.0006038   -2.1454372  
N    2.4348641    0.0026111   -2.6077464  
C   -0.0655179    0.0008799   -2.8497918  
C   -1.2321766    0.0002325   -2.1101402  
O   -2.4392814    0.0001148   -2.7472522  
C   -1.1911209   -0.0000007   -0.6955266  
O   -2.4371528   -0.0002320   -0.1032862  
C    0.0000000    0.0000000    0.0000000  
H    3.0031533   -0.0000660    0.6222584  
H    2.7054631   -0.0071097   -3.5745261  
H   -3.1132988   -0.0000648   -2.0551787  
H   -2.3200282   -0.0004072    0.8516409  
H    4.3686625    0.0004073   -1.7024290  
C    0.0000000    0.0000000    1.4700000  
C    1.0541688    0.0001722    2.3260392  
C    0.5103138    0.0000454    3.6635956  
C   -0.9576371   -0.0002459    3.5155732  
N   -1.2018458    0.0001392    2.1615969  
C   -1.8348311   -0.0008317    4.5510609  
C   -1.2972847   -0.0009736    5.9014604  
O   -2.0050672   -0.0014265    6.9001319  
C    0.2542623   -0.0004184    6.0817573  
O    0.7184670   -0.0002256    7.2139121  
C    1.0974552   -0.0000873    4.8889129  
H    2.0940752    0.0005483    2.0517982  
H   -2.9081052   -0.0011668    4.4207061  
H    2.1707277    0.0000911    5.0223670  
H   -2.1128194   -0.0014912    1.7406791  
