64

C    8.9473293    0.0035056   -4.2226717  
C    9.4567516    0.0053420   -5.5005419  
C   10.8782190    0.0057516   -5.3820985  
C   11.1803937    0.0038102   -3.9962367  
N    9.9853738    0.0044320   -3.3205574  
C   12.4904530    0.0033182   -3.5078379  
C   13.5141170    0.0045065   -4.4353555  
O   14.8120838    0.0037425   -4.0131069  
C   13.2327667    0.0068233   -5.8223143  
O   14.3597473    0.0081937   -6.6180890  
C   11.9406029    0.0075830   -6.3048464  
H    8.8753494    0.0073773   -6.4066113  
H    9.8833599   -0.0071578   -2.3218381  
H   12.7274087    0.0019856   -2.4528251  
H   15.3584042    0.0051039   -4.8098491  
H   14.0817203    0.0097022   -7.5391226  
H   11.7560551    0.0095500   -7.3727483  
C    6.4260933    0.0030632   -4.5098901  
C    7.5522593    0.0028890   -3.7593365  
C    7.0848226    0.0018027   -2.3816566  
C    5.6099763    0.0015411   -2.4884882  
N    5.2179714    0.0021963   -3.7336068  
C    4.7630507    0.0004755   -1.3275395  
C    5.3622559   -0.0006825   -0.1149862  
O    4.6953716   -0.0017512    1.0517635  
C    6.8483164   -0.0008252    0.0256769  
O    7.3251007   -0.0017842    1.1605319  
C    7.6953855    0.0003258   -1.1803068  
H    5.3903103   -0.0024423    1.7345607  
H    8.7674560    0.0000663   -1.0357547  
H    6.3446833    0.0037694   -5.5852244  
C    3.3003548    0.0005276   -1.4738982  
C    2.5232817    0.0003497   -2.6090743  
C    1.1623204   -0.0001319   -2.1820101  
C    1.1711886    0.0000583   -0.7636140  
N    2.4852302   -0.0014919   -0.3662356  
C    0.0000000    0.0000000    0.0000000  
C   -1.2020379    0.0000520   -0.6806479  
O   -2.3759249    0.0003495    0.0157742  
C   -1.2314652   -0.0005112   -2.0955511  
O   -2.5054384   -0.0008036   -2.6250184  
C   -0.0764510   -0.0007271   -2.8495195  
H    2.8919962   -0.0005619   -3.6205297  
H    2.8036267    0.0088181    0.5858667  
H   -3.0835636    0.0000348   -0.6418823  
H   -2.4360038   -0.0011526   -3.5845925  
H   -0.1304090   -0.0013420   -3.9319089  
C    2.5285572    2.1210227    2.9438989  
C    1.9331703    1.6216660    4.0790748  
C    0.8903039    0.7472258    3.6520102  
C    0.8972198    0.7527806    2.2336141  
N    1.9028376    1.5986179    1.8362361  
C    0.0000000    0.0000000    1.4700000  
C   -0.9207814   -0.7726952    2.1506477  
O   -1.8198395   -1.5274828    1.4542253  
C   -0.9436862   -0.7911793    3.5655508  
O   -1.9197945   -1.6098497    4.0950179  
C   -0.0590329   -0.0485852    4.3195194  
H    2.2150357    1.8593692    5.0905303  
H    2.1533708    1.7953814    0.8841339  
H   -2.3621246   -1.9821033    2.1118817  
H   -1.8668290   -1.5649508    5.0545920  
H   -0.1007624   -0.0827977    5.4019087  
H    3.3491200    2.8096064    2.8367138  
