64

C   -0.9229780    0.8378300   -9.0017321  
C    0.0372790    0.0363169   -9.5744023  
C   -0.1005496    0.1666605  -10.9881254  
C   -1.1701840    1.0687465  -11.2206100  
N   -1.6484104    1.4557216   -9.9933501  
C   -1.5869684    1.4328065  -12.5045647  
C   -0.9114637    0.8763090  -13.5732939  
O   -1.2770346    1.1976796  -14.8484770  
C    0.1580822   -0.0259673  -13.3616651  
O    0.7292091   -0.4941224  -14.5269917  
C    0.5696128   -0.3857806  -12.0952902  
H    0.7487706   -0.5688142   -9.0390617  
H   -2.4021433    2.1013157   -9.8414424  
H   -2.4015691    2.1196912  -12.6884607  
H   -0.6860057    0.7065742  -15.4339394  
H    1.4424868   -1.0967792  -14.2953813  
H    1.3919442   -1.0794034  -11.9643845  
C    0.8794601   -0.7145260   -5.2160928  
C    0.5955941   -0.4617443   -6.5382079  
C   -0.4970033    0.4549262   -6.5615831  
C   -0.8400714    0.7280594   -5.2126466  
N    0.0139741    0.0003876   -4.4216236  
C   -1.8777226    1.5949322   -4.8568374  
C   -2.5816787    2.1972823   -5.8814339  
O   -3.6044956    3.0528903   -5.5902406  
C   -2.2546214    1.9371357   -7.2335340  
O   -3.0482339    2.6129379   -8.1373123  
C   -1.2312544    1.0818486   -7.5852859  
H    1.1117280   -0.8867161   -7.3820075  
H   -2.1442525    1.8071797   -3.8306237  
H   -3.9557977    3.3567903   -6.4372914  
H   -2.7615756    2.3818067   -9.0261366  
H    1.6298900   -1.3493287   -4.7769580  
C    3.2798085    0.0005853   -1.4499648  
C    2.5571144    0.0005562   -2.5996554  
C    1.1637436    0.0001546   -2.2210360  
C    1.1336965   -0.0000201   -0.7459470  
N    2.4483513   -0.0001430   -0.3402717  
C    0.0000000    0.0000000    0.0000000  
C   -1.2757367   -0.0000188   -0.6964414  
O   -2.3524597   -0.0000640   -0.1142313  
C   -1.2676494   -0.0000875   -2.2584081  
O   -2.3355762   -0.0004102   -2.8557294  
C    0.0181562    0.0001757   -2.9516296  
H    2.9547357    0.0006072   -3.5989105  
H    4.3498550    0.0008609   -1.3200021  
H    2.7563627    0.0012824    0.6148063  
C    2.5285572    2.1210227    2.9438989  
C    1.9331703    1.6216660    4.0790748  
C    0.8903039    0.7472258    3.6520102  
C    0.8972198    0.7527806    2.2336141  
N    1.9028376    1.5986179    1.8362361  
C    0.0000000    0.0000000    1.4700000  
C   -0.9207814   -0.7726952    2.1506477  
O   -1.8198395   -1.5274828    1.4542253  
C   -0.9436862   -0.7911793    3.5655508  
O   -1.9197945   -1.6098497    4.0950179  
C   -0.0590329   -0.0485852    4.3195194  
H    2.2150357    1.8593692    5.0905303  
H    2.1533708    1.7953814    0.8841339  
H   -2.3621246   -1.9821033    2.1118817  
H   -1.8668290   -1.5649508    5.0545920  
H   -0.1007624   -0.0827977    5.4019087  
H    3.3491200    2.8096064    2.8367138  
