64

C    0.1067682   -0.7134232   -5.1553162  
C   -0.9736305    0.0040473   -4.6965763  
C   -1.4915509    0.7330083   -5.8078704  
C   -0.6796794    0.4175751   -6.9273761  
N    0.2823069   -0.4616403   -6.4958911  
C   -0.9002265    0.9580657   -8.1978162  
C   -1.9598376    1.8326857   -8.3407930  
O   -2.2203380    2.3892148   -9.5595750  
C   -2.7809953    2.1600572   -7.2356487  
O   -3.7946146    3.0453494   -7.5392530  
C   -2.5638414    1.6274373   -5.9819792  
H    0.9958917   -0.8698707   -7.0721947  
H   -2.9901244    2.9605152   -9.4399521  
H   -4.3015388    3.2133595   -6.7390003  
H   -3.2094974    1.8970058   -5.1543687  
H    0.7669086   -1.3837318   -4.6320004  
C    1.1188640    0.0008226   -0.8003814  
C    0.0000000    0.0000000    0.0000000  
C   -1.1323862    0.0008901   -0.8673531  
C   -0.6382668    0.0019684   -2.1969280  
N    0.7324012    0.0038484   -2.1202243  
C   -1.4770920    0.0027325   -3.3154808  
C   -2.8395478    0.0020950   -3.0876858  
O   -3.7039209    0.0024430   -4.1440343  
C   -3.3517874    0.0013935   -1.7684326  
O   -4.7300498    0.0012368   -1.7073121  
C   -2.5248543    0.0009124   -0.6644821  
H    1.3576310   -0.0056162   -2.9057047  
H   -4.5940039    0.0021832   -3.7685127  
H   -4.9934606    0.0007262   -0.7819905  
H   -2.9462579    0.0005604    0.3339662  
H    2.1619892    0.0009358   -0.5342072  
C    0.9489105   -2.8566028   -9.6186095  
C    0.2518662   -1.9130829   -8.9000238  
C    0.3998687   -0.6725136   -9.5882706  
C    1.2041125   -0.9230324  -10.7294793  
N    1.5217241   -2.2585381  -10.7165867  
C    1.5556489    0.0769211  -11.6412376  
C    1.0865129    1.3529573  -11.3966588  
O    1.3994934    2.3669042  -12.2551275  
C    0.2831282    1.6227941  -10.2632656  
O   -0.1050439    2.9425305  -10.1585627  
C   -0.0638395    0.6368582   -9.3632268  
H   -0.2949868   -2.0961916   -7.9909493  
H    2.0748883   -2.7302335  -11.4090417  
H    2.1684050   -0.1075064  -12.5128570  
H    0.9779809    3.1620018  -11.9038268  
H   -0.6437181    3.0392626   -9.3673126  
H    1.0839875   -3.9085746   -9.4340317  
C    2.3971438    2.0127888    3.1728260  
C    1.9431056    1.6308205    1.9564670  
C    0.8496017    0.7127664    2.2356185  
C    0.7794028    0.6545384    3.7115134  
N    1.6840587    1.4146091    4.2663826  
C   -0.1885723   -0.1578550    4.3957118  
C   -1.0476298   -0.8789867    3.6398520  
O   -2.0015663   -1.6796266    4.1448486  
C   -1.0022026   -0.8410666    2.1483229  
O   -1.8147390   -1.5232959    1.5241687  
C    0.0000000    0.0000000    1.4700000  
H    2.3054237    1.9346118    0.9892483  
H   -0.2170646   -0.1815267    5.4753125  
H   -2.4487139   -2.0549881    3.3649027  
H    3.2048689    2.6911772    3.3971983  
