60

C   -7.3058445    3.2465880    0.3713061  
C   -8.5892814    3.2009983    0.8644389  
C   -9.0410840    1.8551860    0.7256483  
C   -7.9812172    1.1189614    0.1369358  
N   -6.9435647    1.9943670   -0.0669232  
C   -8.0753355   -0.2468943   -0.1465588  
C   -9.2608718   -0.8811539    0.1702947  
O   -9.4063543   -2.2140889   -0.0849146  
C  -10.3298945   -0.1636306    0.7578056  
O  -11.4437862   -0.9363699    1.0136611  
C  -10.2378427    1.1838925    1.0375098  
H   -9.1333750    4.0353678    1.2728294  
H   -7.2712324   -0.8136887   -0.5952950  
H  -10.2954892   -2.4527104    0.2079403  
H  -12.1182508   -0.3760598    1.4095819  
H  -11.0734747    1.7069048    1.4876818  
H   -6.6207072    4.0735721    0.2961889  
C   -4.4297979    2.1087671   -0.2339399  
C   -5.6380117    1.6447705   -0.6450366  
C   -5.3911869    0.7496343   -1.7507692  
C   -3.9296544    0.7300039   -1.9515854  
N   -3.4052348    1.5747190   -1.0006226  
C   -3.2941076    0.0012878   -2.9038237  
C   -4.1035805   -0.8182213   -3.7902174  
O   -3.6253061   -1.5102281   -4.6794204  
C   -5.6534092   -0.8124880   -3.5957845  
O   -6.3452685   -1.4982638   -4.3362583  
C   -6.2225101    0.0137343   -2.5340255  
H   -7.2964264    0.0119731   -2.4058665  
H   -4.2016951    2.7960861    0.5644653  
H   -2.4284977    1.7712471   -0.8805870  
C    0.0000000    0.0000000    0.0000000  
C    1.0541688   -0.0001723   -0.8560392  
C    0.5103136   -0.0000455   -2.1935956  
C   -0.9576373    0.0002461   -2.0455730  
N   -1.2018460   -0.0001389   -0.6915968  
C   -1.8348314    0.0008319   -3.0810607  
C   -1.2972851    0.0009739   -4.4314603  
O   -2.0050676    0.0014268   -5.4301316  
C    0.2542619    0.0004184   -4.6117572  
O    0.7184666    0.0002257   -5.7439122  
C    1.0974551    0.0000873   -3.4189129  
H    2.0940752   -0.0005484   -0.5817983  
H    2.1707276   -0.0000912   -3.5523673  
H   -2.1128194    0.0014915   -0.2706789  
C    3.3321173   -0.0004715    2.8079335  
C    2.6974184   -0.0000116    4.0032312  
C    1.2800439    0.0002118    3.6752840  
C    1.2395035   -0.0000644    2.1971295  
N    2.4394063   -0.0005460    1.6831036  
C    0.0000000    0.0000000    1.4700000  
C   -1.1468701   -0.0000635    2.1869543  
O   -2.3742202   -0.0000073    1.6395491  
C   -1.1388768   -0.0001607    3.6796354  
O   -2.2206231   -0.0000905    4.2670412  
C    0.1454524   -0.0001816    4.4024240  
H    3.1367986    0.0000651    4.9860947  
H   -2.9844344   -0.0001026    2.3990168  
H    0.1083576   -0.0003682    5.4835595  
H    4.3940039   -0.0007619    2.6198634  
