60

C    9.0661420    0.0025169   -0.4486802  
C   10.1043298    0.0045983   -1.3512487  
C   11.3136402    0.0048624   -0.5948314  
C   10.9474276    0.0025840    0.7755003  
N    9.5756462    0.0031536    0.8287213  
C   11.8882406    0.0018729    1.8097436  
C   13.2230597    0.0031843    1.4541672  
O   14.1834250    0.0022170    2.4240697  
C   13.6082854    0.0058367    0.0923997  
O   14.9745968    0.0072919   -0.0987425  
C   12.6806925    0.0068128   -0.9284310  
H   10.0025531    0.0068858   -2.4229901  
H    9.0274830   -0.0086523    1.6697677  
H   11.6156053    0.0002831    2.8561040  
H   15.0340206    0.0037121    1.9660852  
H   15.1493507    0.0090309   -1.0448196  
H   13.0058170    0.0090355   -1.9622433  
C    6.8068811    0.0035022   -4.1747014  
C    5.5278581    0.0022331   -3.7323476  
C    5.6328267    0.0014349   -2.2813197  
C    7.0869584    0.0022985   -2.0128344  
N    7.7802401    0.0035922   -3.1188854  
C    7.6138018    0.0019125   -0.6758519  
C    6.7282252    0.0011070    0.3464434  
O    7.0793813    0.0006614    1.6436441  
C    5.2547112    0.0005945    0.1078690  
O    4.5071908   -0.0002588    1.0858431  
C    4.7390840    0.0009613   -1.2727298  
H    4.6247036    0.0019723   -4.3183394  
H    6.2347352    0.0001390    2.1291603  
H    7.1567941    0.0044017   -5.1947669  
C    3.2798077    0.0005856   -1.4499661  
C    2.5571132    0.0005565   -2.5996564  
C    1.1637425    0.0001547   -2.2210366  
C    1.1336959   -0.0000200   -0.7459475  
N    2.4483509   -0.0001429   -0.3402730  
C    0.0000000    0.0000000    0.0000000  
C   -1.2757370   -0.0000187   -0.6964411  
O   -2.3524597   -0.0000640   -0.1142306  
C   -1.2676502   -0.0000874   -2.2584078  
O   -2.3355774   -0.0004102   -2.8557287  
C    0.0181551    0.0001758   -2.9516297  
H    2.9547342    0.0006074   -3.5989118  
H    0.0150776    0.0003317   -4.0331632  
H    2.7563626    0.0012823    0.6148051  
C    0.8175213    0.6860729    2.3021913  
C    0.0000000    0.0000000    1.4700000  
C   -0.8887526   -0.7456559    2.3478473  
C   -0.4549825   -0.3816753    3.7138435  
N    0.5448156    0.4573574    3.6934124  
C   -1.0945674   -0.9182058    4.8835240  
C   -2.1210866   -1.7789155    4.6970523  
O   -2.8083856   -2.3554314    5.6976972  
C   -2.5824069   -2.1655116    3.3310774  
O   -3.5227682   -2.9541547    3.2362962  
C   -1.9100805   -1.6015804    2.1470656  
H   -0.7567140   -0.6349833    5.8697035  
H   -3.4728268   -2.9124471    5.2533954  
H   -2.2742832   -1.9066565    1.1752040  
H    1.6189533    1.3585343    2.0405121  
