60

C    9.0339157   -0.0011769    0.8952693  
C    9.6260857   -0.0015064    2.1369623  
C   11.0367190   -0.0022929    1.9255077  
C   11.2473112   -0.0021239    0.5228040  
N   10.0105334   -0.0033930   -0.0730092  
C   12.5225019   -0.0024510   -0.0504997  
C   13.6048182   -0.0026512    0.8078539  
O   14.8722835   -0.0026220    0.3013509  
C   13.4150770   -0.0031976    2.2102855  
O   14.5918419   -0.0037603    2.9304020  
C   12.1573581   -0.0031484    2.7765614  
H    9.1053864   -0.0023208    3.0792281  
H    9.8432116    0.0069713   -1.0628966  
H   12.6897243   -0.0024687   -1.1187877  
H   15.4697026   -0.0030809    1.0605312  
H   14.3748453   -0.0040786    3.8676944  
H   12.0432755   -0.0037575    3.8542737  
C    6.5597225   -0.0008208    1.3835019  
C    7.6114515   -0.0009111    0.5244666  
C    7.0637929   -0.0009869   -0.8115371  
C    5.5962696   -0.0009036   -0.6593386  
N    5.3559137   -0.0012035    0.6953271  
C    4.7161325   -0.0005435   -1.6923264  
C    5.2498348   -0.0004421   -3.0442500  
O    4.5392134   -0.0001860   -4.0409037  
C    6.8008623   -0.0007795   -3.2289604  
O    7.2618442   -0.0010043   -4.3624314  
C    7.6474457   -0.0008758   -2.0385199  
H    8.7203338   -0.0009044   -2.1750270  
H    6.5627896   -0.0007237    2.4614069  
H    4.4461411    0.0003273    1.1188348  
C    3.2573665   -0.0002920   -1.5109385  
C    2.5379463   -0.0001709   -0.3591964  
C    1.1435038    0.0000331   -0.7338500  
C    1.1092599   -0.0000083   -2.2088477  
N    2.4227553    0.0001909   -2.6182613  
C   -0.0265539   -0.0002524   -2.9515660  
C   -1.3003040   -0.0002640   -2.2514977  
O   -2.3786790   -0.0004133   -2.8306421  
C   -1.2877727    0.0000311   -0.6895603  
O   -2.3539959    0.0003306   -0.0892030  
C    0.0000000    0.0000000    0.0000000  
H    2.9384091   -0.0000367    0.6389234  
H   -0.0296303   -0.0004086   -4.0327229  
H    2.7280482   -0.0013407   -3.5742119  
C    0.8681109    0.7263879    2.2709268  
C    0.6127770    0.5096195    3.5869401  
C   -0.4920590   -0.4175482    3.6542670  
C   -0.8620974   -0.7254003    2.2596025  
N    0.0000000    0.0000000    1.4700000  
C   -1.8641242   -1.5660088    1.8976294  
C   -2.6293522   -2.2103885    2.9520183  
O   -3.5512764   -2.9839180    2.7283916  
C   -2.2549728   -1.8987399    4.4361073  
O   -2.8923672   -2.4351063    5.3323774  
C   -1.1543735   -0.9755647    4.7012123  
H    1.1382914    0.9492124    4.4159191  
H   -2.1192137   -1.7782617    0.8686553  
H   -0.9013378   -0.7652422    5.7314848  
H    1.6172880    1.3558399    1.8188057  
