62

C   -3.2577311    0.0159268   -8.4717309  
C   -4.3433172    0.0167261   -7.6267636  
C   -5.5098457    0.0193822   -8.4476190  
C   -5.0698897    0.0198170   -9.7960863  
N   -3.6972408    0.0196319   -9.7748676  
C   -5.9532561    0.0219248  -10.8798067  
C   -7.3053860    0.0233176  -10.5971070  
O   -8.2117638    0.0250433  -11.6176419  
C   -7.7638632    0.0232872   -9.2582207  
O   -9.1385261    0.0251973   -9.1414202  
C   -6.8929707    0.0214817   -8.1886100  
H   -4.2997863    0.0166457   -6.5510786  
H   -3.1042981    0.0092862  -10.5849873  
H   -5.6243006    0.0224111  -11.9098504  
H   -9.0859344    0.0260929  -11.2064357  
H   -9.3643068    0.0250137   -8.2062055  
H   -7.2736571    0.0216884   -7.1739393  
C   -1.0641738    0.0073911   -4.6315339  
C    0.2077341    0.0068438   -5.1556688  
C    0.0728972    0.0090222   -6.5756735  
C   -1.3163591    0.0111410   -6.8618346  
N   -1.9782054    0.0081310   -5.6591012  
C   -1.8198414    0.0139141   -8.1661680  
C   -0.9041964    0.0148671   -9.2004660  
O   -1.3413930    0.0179080  -10.4934710  
C    0.4859168    0.0124113   -8.9351424  
O    1.2686359    0.0133365  -10.0712288  
C    0.9833257    0.0094018   -7.6486339  
H    1.1204511    0.0039851   -4.5847636  
H   -2.9756844    0.0192593   -5.5455505  
H   -0.5510072    0.0177720  -11.0489489  
H    2.1928160    0.0115678   -9.8038492  
H    2.0532874    0.0073872   -7.4764230  
C    1.1319245    0.0015656   -0.8009271  
C    0.7969914    0.0034943   -2.1169404  
C   -0.6453340    0.0035712   -2.1842672  
C   -1.1266833    0.0015434   -0.7896027  
N    0.0000000    0.0000000    0.0000000  
C   -2.4346131    0.0013965   -0.4276296  
C   -3.4350110    0.0031409   -1.4820182  
O   -4.6384610    0.0030975   -1.2583916  
C   -2.9478961    0.0050507   -2.9661073  
O   -3.7809383    0.0062220   -3.8623773  
C   -1.5113824    0.0053091   -3.2312124  
H    1.4821237    0.0045409   -2.9459193  
H   -2.7664564    0.0000233    0.6013449  
H    2.1104315    0.0009392   -0.3488061  
C    2.4951002    2.0940188    2.9809380  
C    1.9440701    1.6314916    1.8291961  
C    0.8759964    0.7350050    2.2038498  
C    0.8497377    0.7130254    3.6788474  
N    1.8560616    1.5571714    4.0882609  
C   -0.0205033   -0.0168748    4.4215661  
C   -0.9962600   -0.8356168    3.7214979  
O   -1.8224391   -1.5286685    4.3006425  
C   -0.9864710   -0.8277881    2.1595606  
O   -1.8030528   -1.5133726    1.5592035  
C    0.0000000    0.0000000    1.4700000  
H    2.2509283    1.8888011    0.8310761  
H   -0.0229599   -0.0187323    5.5027230  
H    3.3143982    2.7817323    3.1139444  
H    2.0889452    1.7545833    5.0442112  
