62

C    4.0097041   -3.6424436   -5.2459118  
C    2.9735223   -3.0445978   -4.5666655  
C    3.0346790   -3.5106319   -3.2199390  
C    4.1382990   -4.3977270   -3.1362044  
N    4.7069992   -4.4565388   -4.3842982  
C    4.4988125   -5.0466347   -1.9514102  
C    3.7314286   -4.7952137   -0.8306571  
O    4.0394278   -5.4021506    0.3524651  
C    2.6262163   -3.9135857   -0.8943267  
O    1.9617714   -3.7676065    0.3059005  
C    2.2698187   -3.2732853   -2.0628824  
H    5.5159429   -4.9987192   -4.6284961  
H    5.3387147   -5.7239962   -1.8810583  
H    3.3878695   -5.0934360    0.9954510  
H    1.2299987   -3.1566549    0.1760891  
H    1.4179853   -2.6035662   -2.0811550  
H    4.3056726   -3.5536651   -6.2771634  
C    1.9999919   -2.1070888   -5.1447781  
C    1.9105660   -1.6426489   -6.4177171  
C    0.7784250   -0.7475268   -6.4606992  
C    0.2115578   -0.7283873   -5.0986833  
N    0.9973787   -1.5733444   -4.3494018  
C   -0.8712826    0.0001710   -4.7267111  
C   -1.5219800    0.8200163   -5.7351661  
O   -2.5037639    1.5119150   -5.4992064  
C   -0.9387708    0.8148048   -7.1841811  
O   -1.4783605    1.5008674   -8.0417489  
C    0.2330292   -0.0112898   -7.4640111  
H    2.5631029   -1.8981137   -7.2335281  
H    0.6307982   -0.0091663   -8.4697443  
H    0.8643847   -1.7702171   -3.3744140  
C    1.0965514    0.0001359   -0.8010305  
C    0.0000000    0.0000000    0.0000000  
C   -1.1546563    0.0001470   -0.8669513  
C   -0.6372014    0.0003519   -2.2486282  
N    0.7342871    0.0007337   -2.1395014  
C   -1.4147739    0.0001352   -3.3608717  
C   -2.8576049   -0.0001048   -3.1854462  
O   -3.6427779   -0.0002494   -4.1244907  
C   -3.4275840   -0.0000725   -1.7311666  
O   -4.6406831    0.0000333   -1.5710060  
C   -2.4891867   -0.0001091   -0.6116744  
H   -2.8919122   -0.0002918    0.3920866  
H    2.1388272    0.0000663   -0.5261648  
H    1.3735872   -0.0006099   -2.9130262  
C    2.5285572    2.1210227    2.9438989  
C    1.9331703    1.6216660    4.0790748  
C    0.8903039    0.7472258    3.6520102  
C    0.8972198    0.7527806    2.2336141  
N    1.9028376    1.5986179    1.8362361  
C    0.0000000    0.0000000    1.4700000  
C   -0.9207814   -0.7726952    2.1506477  
O   -1.8198395   -1.5274828    1.4542253  
C   -0.9436862   -0.7911793    3.5655508  
O   -1.9197945   -1.6098497    4.0950179  
C   -0.0590329   -0.0485852    4.3195194  
H    2.2150357    1.8593692    5.0905303  
H    2.1533708    1.7953814    0.8841339  
H   -2.3621246   -1.9821033    2.1118817  
H   -1.8668290   -1.5649508    5.0545920  
H   -0.1007624   -0.0827977    5.4019087  
H    3.3491200    2.8096064    2.8367138  
