64

C    6.2602158   -0.7191235   -3.3843399  
C    6.0171544    0.0017175   -4.5305414  
C    7.2083281    0.7287998   -4.8255952  
C    8.1520753    0.4088003   -3.8162053  
N    7.5433915   -0.4712116   -2.9561472  
C    9.4424489    0.9463982   -3.7894916  
C    9.7864816    1.8227676   -4.8003314  
O   11.0337844    2.3766197   -4.8226355  
C    8.8586268    2.1546863   -5.8160727  
O    9.3516147    3.0412145   -6.7511528  
C    7.5853812    1.6249223   -5.8429057  
H    7.9723867   -0.8823856   -2.1469008  
H   10.1663526    0.7066416   -3.0228871  
H   11.0641733    2.9497775   -5.5997008  
H    8.6628924    3.2123414   -7.4007532  
H    6.8964392    1.8979577   -6.6336578  
H    5.6193113   -1.3893822   -2.8375740  
C    1.7334697    0.0049246   -3.2500361  
C    3.1090791    0.0036299   -3.2628663  
C    3.5126984    0.0054159   -4.6309628  
C    2.3299048    0.0080770   -5.4138543  
N    1.2677984    0.0057533   -4.5440601  
C    2.3483174    0.0106630   -6.8118676  
C    3.5832508    0.0108677   -7.4308333  
O    3.6589641    0.0136950   -8.7936506  
C    4.7745980    0.0078629   -6.6669612  
O    5.9240674    0.0080678   -7.4298928  
C    4.7571865    0.0050375   -5.2877531  
H    3.7435740    0.0005372   -2.3931536  
H    0.2997754    0.0173728   -4.8101016  
H    1.4503964    0.0125541   -7.4143093  
H    4.5993502    0.0130212   -9.0148716  
H    6.6822233    0.0059631   -6.8376102  
C    1.1319247    0.0015655   -0.8009267  
C    0.7969916    0.0034943   -2.1169401  
C   -0.6453337    0.0035710   -2.1842668  
C   -1.1266832    0.0015433   -0.7896026  
N    0.0000000    0.0000000    0.0000000  
C   -2.4346130    0.0013964   -0.4276294  
C   -3.4350109    0.0031408   -1.4820183  
O   -4.6384610    0.0030973   -1.2583915  
C   -2.9478956    0.0050505   -2.9661075  
O   -3.7809378    0.0062218   -3.8623775  
C   -1.5113821    0.0053090   -3.2312122  
H   -2.7664565    0.0000232    0.6013446  
H   -1.1823527    0.0068407   -4.2614846  
H    2.1104317    0.0009391   -0.3488056  
C    0.8576279    0.7185626    2.2703808  
C    0.0000000    0.0000000    1.4700000  
C   -0.8668858   -0.7285659    2.3373528  
C   -0.4876752   -0.4117774    3.6669281  
N    0.5635254    0.4678311    3.5902241  
C   -1.1297612   -0.9515493    4.7854808  
C   -2.1738724   -1.8268314    4.5576857  
O   -2.8357962   -2.3827064    5.6140350  
C   -2.5667212   -2.1555554    3.2384331  
O   -3.6226318   -3.0413663    3.1773122  
C   -1.9335634   -1.6236449    2.1344818  
H    1.0363952    0.8769718    4.3757045  
H   -0.8454472   -0.7142436    5.8013813  
H   -3.5178062   -2.9546422    5.2385129  
H   -3.8247440   -3.2102924    2.2519915  
H   -2.2566033   -1.8942483    1.1360343  
H    1.6567807    1.3889844    2.0042067  
