62

C    3.0881904   -5.4169651   -8.0558051  
C    2.4371012   -4.4621828   -7.3095194  
C    2.5538770   -3.2293526   -8.0173989  
C    3.2925808   -3.4959808   -9.1985648  
N    3.6029468   -4.8332208   -9.1896570  
C    3.5989122   -2.5071904  -10.1383748  
C    3.1511130   -1.2259610   -9.8812688  
O    3.4219634   -0.2224195  -10.7658917  
C    2.4129448   -0.9400982   -8.7081500  
O    2.0385202    0.3829598   -8.5956016  
C    2.1106077   -1.9150145   -7.7804345  
H    1.9401731   -4.6330095   -6.3699060  
H    4.1144548   -5.3150696   -9.9067065  
H    4.1616510   -2.7039127  -11.0404982  
H    3.0249088    0.5786572  -10.3999852  
H    1.5448284    0.4907503   -7.7769109  
H    3.2273511   -6.4678863   -7.8683015  
C    1.5647265   -2.0539606   -5.3222415  
C    1.3415396   -1.5772678   -6.5740504  
C    0.2114929   -0.6825501   -6.4885493  
C   -0.2083727   -0.6770014   -5.0741691  
N    0.6518900   -1.5286394   -4.4202953  
C   -1.2456329    0.0471727   -4.5828766  
C   -1.9989042    0.8763051   -5.5089746  
O   -2.9500475    1.5652089   -5.1639546  
C   -1.5719694    0.8855377   -7.0114550  
O   -2.1988660    1.5795073   -7.8005473  
C   -0.4365508    0.0630003   -7.4214648  
H   -0.1472075    0.0751442   -8.4635094  
H    2.3191289   -2.7449942   -4.9827737  
H    0.6225287   -1.7350432   -3.4386730  
C    1.1243410    0.0099923   -0.7919003  
C    0.7474076    0.0234544   -2.1148543  
C   -0.6787381    0.0234490   -2.1414700  
C   -1.1201745    0.0098592   -0.7935546  
N    0.0000000    0.0000000    0.0000000  
C   -2.4730816    0.0063709   -0.4408240  
C   -3.3971958    0.0170982   -1.4675058  
O   -4.7313517    0.0146259   -1.1793471  
C   -2.9763648    0.0303504   -2.8186324  
O   -4.0166480    0.0395118   -3.7247624  
C   -1.6418562    0.0335260   -3.1673481  
H    1.4178717    0.0310972   -2.9571209  
H   -2.8160166   -0.0041111    0.5845966  
H   -5.1938818    0.0230867   -2.0274384  
H   -3.6464675    0.0482293   -4.6127343  
H    2.1062467    0.0052819   -0.3505407  
C    2.5128556    2.1077716    2.9199648  
C    1.9592212    1.6432552    4.0696553  
C    0.8915788    0.7479214    3.6910360  
C    0.8684491    0.7287414    2.2159470  
N    1.8754542    1.5738793    1.8102719  
C    0.0000000    0.0000000    1.4700000  
C   -0.9772830   -0.8200135    2.1664417  
O   -1.8021297   -1.5120829    1.5842315  
C   -0.9711318   -0.8147624    3.7284083  
O   -1.7894187   -1.5009653    4.3257297  
C    0.0140216    0.0115358    4.4216297  
H    2.2638494    1.8988021    5.0689105  
H    0.0117648    0.0094386    5.5031631  
H    3.3327358    2.7953732    2.7900019  
H    2.1123206    1.7707734    0.8551938  
