64

C    3.3123538   -3.0501838   -7.8941015  
C    2.7868385   -1.8272639   -7.5465844  
C    3.2223267   -0.8918827   -8.5314753  
C    4.0170915   -1.6079353   -9.4628962  
N    4.0527814   -2.9151539   -9.0451373  
C    4.6139088   -1.0009169  -10.5720067  
C    4.4043527    0.3535682  -10.7441541  
O    4.9635506    0.9963583  -11.8105182  
C    3.6148047    1.0852998   -9.8254604  
O    3.5007187    2.4250442  -10.1343504  
C    3.0259470    0.4871678   -8.7309235  
H    4.5331179   -3.6614906   -9.5144345  
H    5.2208760   -1.5410565  -11.2854780  
H    4.6962271    1.9221685  -11.7421239  
H    2.9523951    2.8458471   -9.4651202  
H    2.4266131    1.0735123   -8.0442816  
H    3.2187770   -4.0077856   -7.4111926  
C    2.1120184   -2.1227297   -5.1304393  
C    1.1297844   -1.6610074   -4.2851612  
C    0.3107400   -0.7734496   -5.0441130  
C    0.8462221   -0.7330263   -6.3569535  
N    1.9403246   -1.5620325   -6.3744203  
C    0.2889653    0.0434154   -7.3774395  
C   -0.8294082    0.7924645   -7.0670448  
O   -1.4138836    1.5681737   -8.0260435  
C   -1.3781520    0.7656327   -5.7628299  
O   -2.4916450    1.5660333   -5.6117139  
C   -0.8287665    0.0000939   -4.7555305  
H    1.0180783   -1.9298815   -3.2487147  
H    0.6924066    0.0786806   -8.3800327  
H   -2.1679403    2.0010224   -7.6049667  
H   -2.7995362    1.4904530   -4.7033669  
H    2.9223333   -2.8065403   -4.9440216  
C    1.0672569   -0.0000698   -0.8321910  
C    0.0000000    0.0000000    0.0000000  
C   -1.1601223   -0.0000736   -0.8778472  
C   -0.5938729   -0.0000768   -2.2438435  
N    0.7113367   -0.0001553   -2.2234123  
C   -1.4286985   -0.0001877   -3.4135239  
C   -2.7683113   -0.0006798   -3.2270524  
O   -3.6653902   -0.0008302   -4.2276970  
C   -3.3702024   -0.0010610   -1.8610774  
O   -4.5974910   -0.0013779   -1.7662963  
C   -2.4926825   -0.0008943   -0.6770658  
H   -4.5324245   -0.0012258   -3.7833954  
H   -2.9677772   -0.0012974    0.2947961  
H    2.1134391   -0.0000547   -0.5705119  
C    0.8676693    0.7151171    2.2619005  
C    0.5875920    0.4624972    3.5848544  
C   -0.5048400   -0.4542819    3.6114698  
C   -0.8517165   -0.7276451    2.2635546  
N    0.0000000    0.0000000    1.4700000  
C   -1.8902865   -1.5946756    1.9108239  
C   -2.5912627   -2.1969500    2.9375057  
O   -3.6148162   -3.0527051    2.6493466  
C   -2.2603868   -1.9365747    4.2886322  
O   -3.0513550   -2.6123276    5.1947621  
C   -1.2361111   -1.0811317    4.6373480  
H    1.1060808    0.8876438    4.4271209  
H   -2.1597133   -1.8070987    0.8854031  
H   -3.9636755   -3.3565188    3.4974381  
H   -2.7621927   -2.3810384    6.0827341  
H   -1.0058879   -0.9010589    5.6809233  
H    1.6167816    1.3499334    1.8205408  
