60

C    3.4848204   -3.2431239   -7.6238024  
C    4.3346912   -3.1968789   -8.7045665  
C    4.3351679   -1.8508423   -9.1765667  
C    3.4598112   -1.1151625   -8.3372506  
N    2.9589963   -1.9910940   -7.4063661  
C    3.2164816    0.2507348   -8.5101792  
C    3.8689360    0.8855969   -9.5491365  
O    3.6677945    2.2186000   -9.7628137  
C    4.7458433    0.1686229  -10.3975469  
O    5.3188522    0.9419274  -11.3859819  
C    4.9861575   -1.1789409  -10.2277017  
H    4.8855827   -4.0309669   -9.1043280  
H    2.5503650    0.8171160   -7.8740171  
H    4.2099257    2.4576745  -10.5258343  
H    5.8962517    0.3819644  -11.9138591  
H    5.6629420   -1.7015239  -10.8935449  
H    3.2110238   -4.0704540   -6.9917279  
C    2.0577021   -2.1067618   -5.0538579  
C    2.0213371   -1.6421655   -6.3293585  
C    0.8918563   -0.7471751   -6.4193650  
C    0.2687260   -0.7282838   -5.0821511  
N    1.0227497   -1.5732440   -4.3008824  
C   -0.8287665    0.0000939   -4.7555305  
C   -1.4369817    0.8199931   -5.7901201  
O   -2.4278330    1.5117415   -5.5951873  
C   -0.7938992    0.8150427   -7.2135759  
O   -1.2973733    1.5011524   -8.0927958  
C    0.3886477   -0.0108724   -7.4444391  
H    0.8279791   -0.0085683   -8.4327239  
H    2.7533681   -2.7941799   -4.6006534  
H    0.8492696   -1.7702610   -3.3323083  
C    1.0672569   -0.0000698   -0.8321910  
C    0.0000000    0.0000000    0.0000000  
C   -1.1601223   -0.0000736   -0.8778472  
C   -0.5938729   -0.0000768   -2.2438435  
N    0.7113367   -0.0001553   -2.2234123  
C   -1.4286985   -0.0001877   -3.4135239  
C   -2.7683113   -0.0006798   -3.2270524  
O   -3.6653902   -0.0008302   -4.2276970  
C   -3.3702024   -0.0010610   -1.8610774  
O   -4.5974910   -0.0013779   -1.7662963  
C   -2.4926825   -0.0008943   -0.6770658  
H   -4.5324245   -0.0012258   -3.7833954  
H   -2.9677772   -0.0012974    0.2947961  
H    2.1134391   -0.0000547   -0.5705119  
C    0.0000000    0.0000000    1.4700000  
C    1.0662921    0.0000102    2.3034270  
C    0.4961870   -0.0000064    3.6418889  
C   -0.9663858    0.0000850    3.4240247  
N   -1.2632773    0.0000084    2.1528658  
C   -1.8985362    0.0000517    4.5177257  
C   -1.3925775   -0.0004564    5.7720543  
O   -2.1456383   -0.0005410    6.8851312  
C    0.0786232   -0.0009323    6.0245000  
O    0.4683759   -0.0012588    7.1921102  
C    1.0143166   -0.0008442    4.8859032  
H    2.1107198   -0.0000632    2.0421868  
H   -2.9622183    0.0003270    4.3293377  
H   -1.5042274   -0.0009692    7.6184419  
H    2.0724152   -0.0013148    5.1109744  
