60

C    0.6074433   -3.2753803  -10.3855412  
C    0.4389309   -2.4851846  -11.4989413  
C    0.2136799   -1.1551662  -11.0353536  
C    0.2565499   -1.1955143   -9.6181525  
N    0.4955360   -2.4981013   -9.2565309  
C    0.0745464   -0.0597310   -8.8233823  
C   -0.1546122    1.1386672   -9.4710750  
O   -0.3386845    2.2786678   -8.7433877  
C   -0.2013308    1.1991086  -10.8842206  
O   -0.4389792    2.4648803  -11.3788808  
C   -0.0221360    0.0789829  -11.6689088  
H    0.4729513   -2.8257091  -12.5196659  
H    0.5887819   -2.8309507   -8.3139292  
H   -0.4813822    2.9898373   -9.3814621  
H   -0.4550532    2.4178864  -12.3396812  
H   -0.0635363    0.1561415  -12.7490979  
H    0.7971835   -4.3321909  -10.3073890  
C    2.5632303   -2.1406389   -5.7671238  
C    2.0732866   -1.7328926   -6.9609732  
C    0.9882151   -0.8221521   -6.6298070  
C    0.9615396   -0.7960980   -5.1515671  
N    1.8825657   -1.5669911   -4.6402698  
C    0.0139741    0.0003876   -4.4216236  
C   -0.8666503    0.7376429   -5.1359697  
O   -1.8054109    1.5263496   -4.5857773  
C   -0.8647107    0.7327951   -6.6286630  
O   -1.6951607    1.4280737   -7.2136082  
C    0.1171805   -0.0925343   -7.3543666  
H    2.4070538   -2.0152032   -7.9448313  
H   -2.2750000    1.9187219   -5.3438559  
H    3.3774711   -2.8229274   -5.5814675  
C    3.2798085    0.0005853   -1.4499648  
C    2.5571144    0.0005562   -2.5996554  
C    1.1637436    0.0001546   -2.2210360  
C    1.1336965   -0.0000201   -0.7459470  
N    2.4483513   -0.0001430   -0.3402717  
C    0.0000000    0.0000000    0.0000000  
C   -1.2757367   -0.0000188   -0.6964414  
O   -2.3524597   -0.0000640   -0.1142313  
C   -1.2676494   -0.0000875   -2.2584081  
O   -2.3355762   -0.0004102   -2.8557294  
C    0.0181562    0.0001757   -2.9516296  
H    2.9547357    0.0006072   -3.5989105  
H    4.3498550    0.0008609   -1.3200021  
H    2.7563627    0.0012824    0.6148063  
C    0.8175213    0.6860729    2.3021913  
C    0.0000000    0.0000000    1.4700000  
C   -0.8887526   -0.7456559    2.3478473  
C   -0.4549825   -0.3816753    3.7138435  
N    0.5448156    0.4573574    3.6934124  
C   -1.0945674   -0.9182058    4.8835240  
C   -2.1210866   -1.7789155    4.6970523  
O   -2.8083856   -2.3554314    5.6976972  
C   -2.5824069   -2.1655116    3.3310774  
O   -3.5227682   -2.9541547    3.2362962  
C   -1.9100805   -1.6015804    2.1470656  
H   -0.7567140   -0.6349833    5.8697035  
H   -3.4728268   -2.9124471    5.2533954  
H   -2.2742832   -1.9066565    1.1752040  
H    1.6189533    1.3585343    2.0405121  
