60

C    1.2886891   -3.2398753  -10.0817013  
C    1.5018058   -2.4709060  -11.2022970  
C    1.1449381   -1.1322769  -10.8627128  
C    0.7179095   -1.1457387   -9.5101633  
N    0.8158571   -2.4412881   -9.0667942  
C    0.2914229    0.0049637   -8.8402516  
C    0.2963928    1.1909126   -9.5485443  
O   -0.1099031    2.3445594   -8.9427096  
C    0.7185813    1.2245423  -10.8988933  
O    0.6655193    2.4807581  -11.4667386  
C    1.1391937    0.0896865  -11.5604930  
H    1.8682394   -2.8307442  -12.1484670  
H    0.5909612   -2.7562156   -8.1403907  
H   -0.0296395    3.0435290   -9.6047239  
H    0.9668074    2.4155466  -12.3780992  
H    1.4567389    0.1463462  -12.5951104  
H    1.4351970   -4.2950590   -9.9265209  
C    1.7704312   -2.0997830   -5.2515185  
C    1.5928585   -1.6333167   -6.5144327  
C    0.4607457   -0.7379009   -6.4771946  
C   -0.0100421   -0.7207977   -5.0790331  
N    0.8257125   -1.5670937   -4.3875227  
C   -1.0641734    0.0073898   -4.6315339  
C   -1.7831601    0.8289562   -5.5910239  
O   -2.7459475    1.5206787   -5.2862920  
C   -1.3021140    0.8259151   -7.0770897  
O   -1.8998117    1.5134385   -7.8939923  
C   -0.1528624    0.0000283   -7.4390071  
H    2.1870135   -1.8876241   -7.3740379  
H    2.5118285   -2.7880437   -4.8793388  
H    0.7607707   -1.7654786   -3.4059558  
C    1.1319248    0.0015675   -0.8009270  
C    0.7969916    0.0034959   -2.1169404  
C   -0.6453336    0.0035703   -2.1842672  
C   -1.1266831    0.0015415   -0.7896027  
N    0.0000000    0.0000000    0.0000000  
C   -2.4346129    0.0013924   -0.4276297  
C   -3.4350110    0.0031352   -1.4820184  
O   -4.6384610    0.0030897   -1.2583919  
C   -2.9478958    0.0050460   -2.9661075  
O   -3.7809377    0.0062160   -3.8623775  
C   -1.5113821    0.0053068   -3.2312125  
H    1.4821240    0.0045436   -2.9459192  
H   -2.7664565    0.0000185    0.6013447  
H    2.1104318    0.0009428   -0.3488058  
C    0.8681109    0.7263879    2.2709268  
C    0.6127770    0.5096195    3.5869401  
C   -0.4920590   -0.4175482    3.6542670  
C   -0.8620974   -0.7254003    2.2596025  
N    0.0000000    0.0000000    1.4700000  
C   -1.8641242   -1.5660088    1.8976294  
C   -2.6293522   -2.2103885    2.9520183  
O   -3.5512764   -2.9839180    2.7283916  
C   -2.2549728   -1.8987399    4.4361073  
O   -2.8923672   -2.4351063    5.3323774  
C   -1.1543735   -0.9755647    4.7012123  
H    1.1382914    0.9492124    4.4159191  
H   -2.1192137   -1.7782617    0.8686553  
H   -0.9013378   -0.7652422    5.7314848  
H    1.6172880    1.3558399    1.8188057  
