64

C   -3.9582760    0.7120058   -2.0436188  
C   -5.3029541    0.4626404   -2.1923631  
C   -5.4397014   -0.4462353   -3.2831635  
C   -4.1334667   -0.7183544   -3.7644416  
N   -3.2578668    0.0024075   -2.9908496  
C   -3.8873084   -1.5782237   -4.8390672  
C   -4.9796641   -2.1744844   -5.4385752  
O   -4.7962429   -3.0231259   -6.4917497  
C   -6.2907081   -1.9152347   -4.9729900  
O   -7.2721903   -2.5844372   -5.6745620  
C   -6.5343135   -1.0668536   -3.9130690  
H   -6.0887189    0.8848335   -1.5896018  
H   -2.8941553   -1.7896600   -5.2107429  
H   -5.6753504   -3.3236326   -6.7565737  
H   -8.1265825   -2.3544052   -5.2968003  
H   -3.4434885    1.3410074   -1.3377083  
C    0.0000000    0.0000000    0.0000000  
C    1.0521662   -0.0011926   -0.8862348  
C    0.4917201   -0.0011978   -2.1979136  
C   -0.9187443    0.0003152   -2.0478679  
N   -1.1833179   -0.0009398   -0.7007910  
C   -1.7951714    0.0010364   -3.1372085  
C   -1.2375860    0.0005225   -4.4010420  
O   -2.0474239    0.0015367   -5.4997571  
C    0.1673556   -0.0013588   -4.5711966  
O    0.5673499   -0.0020723   -5.8915559  
C    1.0325755   -0.0023445   -3.4969896  
H    2.0953053   -0.0030687   -0.6200571  
H   -2.0989783    0.0102402   -0.2891815  
H   -1.4634913    0.0006492   -6.2693588  
H    1.5290683   -0.0033204   -5.9180051  
H    2.1042132   -0.0039660   -3.6584464  
C   -8.6426788    2.6262275   -2.5326316  
C   -7.6998596    1.7365494   -2.9931007  
C   -8.3337518    0.4610974   -3.0705799  
C   -9.6743449    0.6358281   -2.6413895  
N   -9.8278795    1.9617133   -2.3203398  
C  -10.5947221   -0.4153317   -2.5888710  
C  -10.1538280   -1.6655994   -2.9769717  
O  -11.0111837   -2.7271843   -2.9454745  
C   -8.8199106   -1.8600152   -3.4078813  
O   -8.5341187   -3.1627035   -3.7609676  
C   -7.9113172   -0.8235304   -3.4596884  
H   -6.6803035    1.9770242   -3.2414362  
H  -10.6777765    2.3852551   -1.9943508  
H  -11.6178078   -0.2887398   -2.2625740  
H  -10.5084089   -3.4933662   -3.2511656  
H   -7.6143734   -3.2074950   -4.0396538  
H   -8.5630910    3.6819449   -2.3374763  
C    1.0672568    0.0000697    2.3021913  
C    0.0000000    0.0000000    1.4700000  
C   -1.1601224    0.0000736    2.3478473  
C   -0.5938729    0.0000769    3.7138435  
N    0.7113367    0.0001554    3.6934124  
C   -1.4286986    0.0001879    4.8835240  
C   -2.7683114    0.0006799    4.6970523  
O   -3.6653903    0.0008304    5.6976972  
C   -3.3702025    0.0010610    3.3310774  
O   -4.5974910    0.0013779    3.2362962  
C   -2.4926826    0.0008943    2.1470656  
H   -0.9878360   -0.0000190    5.8697035  
H   -4.5324246    0.0012261    5.2533954  
H   -2.9677772    0.0012974    1.1752040  
H    2.1134392    0.0000545    2.0405121  
