62

C   -4.7524556    2.1221137   -4.4578987  
C   -5.9662519    1.6233867   -4.8707402  
C   -5.7059141    0.7488957   -5.9671384  
C   -4.3034862    0.7537715   -6.1795028  
N   -3.7550564    1.5992712   -5.2473160  
C   -3.6880742    0.0007577   -7.1840059  
C   -4.5032241   -0.7714769   -7.9885938  
O   -3.9544811   -1.5264652   -8.9845297  
C   -5.9046781   -0.7892811   -7.7925671  
O   -6.5790364   -1.6075548   -8.6751836  
C   -6.5125082   -0.0464567   -6.8019709  
H   -6.9218794    1.8615323   -4.4359345  
H   -2.7755779    1.7955427   -5.1469152  
H   -4.6882658   -1.9806917   -9.4186982  
H   -7.5188750   -1.5622051   -8.4745591  
H   -7.5883594   -0.0801458   -6.6759305  
H   -4.5194082    2.8105251   -3.6637097  
C   -0.2963294   -0.0005341   -4.3948471  
C    0.7278651   -0.0010067   -5.2865309  
C    0.1384639   -0.0010230   -6.6046519  
C   -1.3235478   -0.0004881   -6.4063792  
N   -1.5211840   -0.0006099   -5.0448251  
C   -2.2357336    0.0000549   -7.4111778  
C   -1.7448097   -0.0001093   -8.7792165  
O   -2.4864213    0.0002817   -9.7530304  
C   -0.2003578   -0.0009260   -9.0126110  
O    0.2247513   -0.0013774  -10.1600175  
C    0.6832431   -0.0011828   -7.8493818  
H    1.7765638   -0.0014917   -5.0481108  
H    1.7513078   -0.0015434   -8.0195610  
H   -2.4171880    0.0012266   -4.5929169  
C    3.1301143   -0.0010313   -1.7028257  
C    2.5367765   -0.0002767   -0.4864669  
C    1.1089900    0.0001027   -0.7656184  
C    1.0177864   -0.0004150   -2.2415133  
N    2.1993571   -0.0011613   -2.7963824  
C   -0.2459220   -0.0002879   -2.9257116  
C   -1.3675327   -0.0000606   -2.1698519  
O   -2.6129319    0.0000866   -2.6748482  
C   -1.3083588    0.0000910   -0.6783229  
O   -2.3693264    0.0004206   -0.0541685  
C    0.0000000    0.0000000    0.0000000  
H    3.0096014   -0.0001008    0.4807517  
H   -3.1967445    0.0002093   -1.8949025  
H    4.1849272   -0.0015113   -1.9271980  
C    2.5285572    2.1210227    2.9438989  
C    1.9331703    1.6216660    4.0790748  
C    0.8903039    0.7472258    3.6520102  
C    0.8972198    0.7527806    2.2336141  
N    1.9028376    1.5986179    1.8362361  
C    0.0000000    0.0000000    1.4700000  
C   -0.9207814   -0.7726952    2.1506477  
O   -1.8198395   -1.5274828    1.4542253  
C   -0.9436862   -0.7911793    3.5655508  
O   -1.9197945   -1.6098497    4.0950179  
C   -0.0590329   -0.0485852    4.3195194  
H    2.2150357    1.8593692    5.0905303  
H    2.1533708    1.7953814    0.8841339  
H   -2.3621246   -1.9821033    2.1118817  
H   -1.8668290   -1.5649508    5.0545920  
H   -0.1007624   -0.0827977    5.4019087  
H    3.3491200    2.8096064    2.8367138  
