62

C    6.1102134   -4.5551321   -5.7768092  
C    7.0597428   -4.3437659   -6.7495300  
C    6.9409322   -2.9824448   -7.1585380  
C    5.8934251   -2.4080241   -6.3938850  
N    5.4094798   -3.3906512   -5.5663228  
C    5.4992129   -1.0738737   -6.5332720  
C    6.1749625   -0.3055203   -7.4612664  
O    5.8309423    1.0035022   -7.6376877  
C    7.2226168   -0.8606890   -8.2339418  
O    7.7970014    0.0323129   -9.1148347  
C    7.6118676   -2.1768568   -8.0971532  
H    7.7520430   -5.0804686   -7.1196433  
H    4.6679292   -3.2746584   -4.8995174  
H    6.4180868    1.3502841   -8.3219880  
H    8.4946221   -0.4221003   -9.5969524  
H    8.4177340   -2.5741974   -8.7031047  
H    5.8764130   -5.4447906   -5.2175212  
C    4.1774649   -0.7039260   -4.3991482  
C    3.1006054    0.0006263   -3.9654951  
C    2.5992399    0.7428151   -5.0980249  
C    3.4785672    0.4104975   -6.2351873  
N    4.4147925   -0.4705965   -5.7452433  
C    3.3361156    0.9100880   -7.4889105  
C    2.2439822    1.8371252   -7.7346383  
O    2.0321273    2.3416470   -8.8295699  
C    1.3005623    2.2033757   -6.5448382  
O    0.3778220    2.9830422   -6.7395976  
C    1.5546720    1.6002373   -5.2388884  
H    3.9920978    0.6532718   -8.3090581  
H    0.8967555    1.8588593   -4.4203623  
H    4.8177812   -1.3738065   -3.8485622  
C    3.2798083    0.0005857   -1.4499652  
C    2.5571142    0.0005565   -2.5996556  
C    1.1637432    0.0001548   -2.2210361  
C    1.1336964   -0.0000200   -0.7459473  
N    2.4483512   -0.0001428   -0.3402723  
C    0.0000000    0.0000000    0.0000000  
C   -1.2757368   -0.0000186   -0.6964415  
O   -2.3524598   -0.0000639   -0.1142311  
C   -1.2676497   -0.0000872   -2.2584083  
O   -2.3355766   -0.0004101   -2.8557295  
C    0.0181558    0.0001758   -2.9516296  
H    0.0150788    0.0003319   -4.0331631  
H    4.3498547    0.0008612   -1.3200026  
H    2.7563626    0.0012823    0.6148059  
C    2.5285572    2.1210227    2.9438989  
C    1.9331703    1.6216660    4.0790748  
C    0.8903039    0.7472258    3.6520102  
C    0.8972198    0.7527806    2.2336141  
N    1.9028376    1.5986179    1.8362361  
C    0.0000000    0.0000000    1.4700000  
C   -0.9207814   -0.7726952    2.1506477  
O   -1.8198395   -1.5274828    1.4542253  
C   -0.9436862   -0.7911793    3.5655508  
O   -1.9197945   -1.6098497    4.0950179  
C   -0.0590329   -0.0485852    4.3195194  
H    2.2150357    1.8593692    5.0905303  
H    2.1533708    1.7953814    0.8841339  
H   -2.3621246   -1.9821033    2.1118817  
H   -1.8668290   -1.5649508    5.0545920  
H   -0.1007624   -0.0827977    5.4019087  
H    3.3491200    2.8096064    2.8367138  
