62

C    3.4563083   -0.7177420   -2.8470533  
C    2.5562222   -0.0001542   -3.6002998  
C    3.3099822    0.7271499   -4.5685324  
C    4.6761873    0.4106312   -4.3558679  
N    4.7297760   -0.4676079   -3.3020927  
C    5.7069662    0.9493902   -5.1317700  
C    5.3520796    1.8233623   -6.1409306  
O    6.3186822    2.3782086   -6.9288638  
C    3.9944357    2.1517966   -6.3684186  
O    3.8034936    3.0362546   -7.4098688  
C    2.9770454    1.6208856   -5.6031889  
H    5.5676007   -0.8762676   -2.9292279  
H    6.7501838    0.7122837   -4.9746748  
H    5.8618777    2.9493258   -7.5600682  
H    2.8603065    3.2050726   -7.4964778  
H    1.9463687    1.8912366   -5.8009102  
H    3.2907748   -1.3870883   -2.0202927  
C    0.0000000    0.0000000    0.0000000  
C    1.0541691   -0.0001719   -0.8560389  
C    0.5103143   -0.0000448   -2.1935953  
C   -0.9576364    0.0002464   -2.0455731  
N   -1.2018458   -0.0001389   -0.6915972  
C   -1.8348303    0.0008322   -3.0810611  
C   -1.2972837    0.0009745   -4.4314603  
O   -2.0050658    0.0014276   -5.4301322  
C    0.2542633    0.0004194   -4.6117570  
O    0.7184681    0.0002269   -5.7439118  
C    1.0974560    0.0000881   -3.4189126  
H    2.0940754   -0.0005481   -0.5817976  
H   -2.1128195    0.0014913   -0.2706792  
C   -4.4924713    2.0950378   -0.2442185  
C   -3.4157278    1.6323166   -0.9302115  
C   -3.9167325    0.7362616   -1.9455512  
C   -5.3841431    0.7147470   -1.7937850  
N   -5.6689494    1.5587226   -0.7452237  
C   -6.2266181   -0.0146660   -2.5683153  
C   -5.6495847   -0.8333368   -3.6215696  
O   -6.3243537   -1.5259649   -4.3720719  
C   -4.0978587   -0.8259951   -3.8001713  
O   -3.6005708   -1.5115244   -4.6833558  
C   -3.2941065    0.0012879   -2.9038247  
H   -2.3878032    1.8892261   -0.7458683  
H   -7.3001855   -0.0161877   -2.4404004  
H   -4.5254896    2.7825507    0.5853150  
H   -6.5897792    1.7563621   -0.3987306  
C    3.3003543   -0.0005276    2.9438989  
C    2.5232812   -0.0003497    4.0790748  
C    1.1623199    0.0001319    3.6520102  
C    1.1711883   -0.0000583    2.2336141  
N    2.4852299    0.0014920    1.8362361  
C    0.0000000    0.0000000    1.4700000  
C   -1.2020384   -0.0000520    2.1506477  
O   -2.3759250   -0.0003494    1.4542253  
C   -1.2314658    0.0005113    3.5655508  
O   -2.5054393    0.0008037    4.0950179  
C   -0.0764518    0.0007272    4.3195194  
H    2.8919952    0.0005619    5.0905303  
H    2.8036267   -0.0088181    0.8841339  
H   -3.0835639   -0.0000348    2.1118817  
H   -2.4360050    0.0011527    5.0545920  
H   -0.1304098    0.0013421    5.4019087  
H    4.3715549   -0.0004895    2.8367138  
