64

C    3.3003542    0.0005278   -1.4738987  
C    2.5232813    0.0003500   -2.6090747  
C    1.1623198   -0.0001315   -2.1820098  
C    1.1711882    0.0000585   -0.7636139  
N    2.4852299   -0.0014917   -0.3662356  
C    0.0000000    0.0000000    0.0000000  
C   -1.2020384    0.0000521   -0.6806476  
O   -2.3759250    0.0003495    0.0157752  
C   -1.2314658   -0.0005109   -2.0955504  
O   -2.5054390   -0.0008033   -2.6250178  
C   -0.0764517   -0.0007269   -2.8495190  
H    2.8919952   -0.0005615   -3.6205299  
H    2.8036264    0.0088181    0.5858664  
H   -3.0835640    0.0000349   -0.6418814  
H   -2.4360049   -0.0011521   -3.5845916  
H    4.3715550    0.0004897   -1.3667131  
C    2.2697430   -2.0933922   -5.9499304  
C    1.7761646   -1.6308841   -4.7724154  
C    0.6896457   -0.7359131   -5.0938791  
C    0.5899536   -0.7148023   -6.5657504  
N    1.5756958   -1.5579527   -7.0243341  
C   -0.3170961    0.0136149   -7.2645882  
C   -1.2578065    0.8315636   -6.5172203  
O   -2.1126588    1.5232787   -7.0548617  
C   -1.1702524    0.8246329   -4.9577036  
O   -1.9567839    1.5095616   -4.3177804  
C   -0.1496416   -0.0015606   -4.3176956  
H    2.1326581   -1.8872530   -3.7906820  
H    3.0822591   -2.7801820   -6.1232168  
H    1.7609408   -1.7556229   -7.9905940  
C    0.1065840   -3.2323647  -10.2383047  
C   -0.0884081   -2.4660046  -11.3639765  
C   -0.3043466   -1.1266086  -10.9235355  
C   -0.2287683   -1.1369352   -9.5071644  
N    0.0198984   -2.4314372   -9.1236980  
C   -0.3936250    0.0153025   -8.7325936  
C   -0.6389502    1.1995917   -9.4000157  
O   -0.8074264    2.3546255   -8.6925364  
C   -0.7183042    1.2300910  -10.8126697  
O   -0.9686615    2.4849722  -11.3283617  
C   -0.5560399    0.0937191  -11.5774276  
H   -0.0775637   -2.8280302  -12.3777877  
H    0.1352122   -2.7442124   -8.1766728  
H   -0.9655661    3.0520502   -9.3420408  
H   -1.0068334    2.4176493  -12.2873265  
H   -0.6224182    0.1479799  -12.6577642  
H    0.2992166   -4.2871733  -10.1422285  
C    2.5311839    2.1237619    3.0120429  
C    1.9795631    1.6616747    1.8395852  
C    0.9223175    0.7739173    2.1983588  
C    0.8753926    0.7337535    3.6154372  
N    1.8668922    1.5631002    4.0777464  
C   -0.0496243   -0.0427881    4.3197917  
C   -0.9437528   -0.7922060    3.5801400  
O   -1.8685244   -1.5680278    4.2172520  
C   -0.9124520   -0.7656372    2.1655264  
O   -1.8671164   -1.5663939    1.5732860  
C    0.0000000    0.0000000    1.4700000  
H    2.3005065    1.9304404    0.8477417  
H    2.0679347    1.7444845    5.0445261  
H   -0.0904770   -0.0778569    5.3997470  
H   -2.3849669   -2.0011402    3.5251786  
H   -1.7775064   -1.4909735    0.6183591  
H    3.3468514    2.8078103    3.1724291  
