60

C    4.1924027    0.0106019   -8.2378397  
C    5.2277505   -0.6664772   -8.8395773  
C    5.2146655   -0.3059728  -10.2196005  
C    4.1402263    0.6018085  -10.4024656  
N    3.5393462    0.7706573   -9.1797432  
C    3.8296699    1.1659407  -11.6434727  
C    4.6183048    0.8073718  -12.7194201  
O    4.3593890    1.3289266  -13.9539063  
C    5.6945590   -0.0971378  -12.5570734  
O    6.3850576   -0.3545480  -13.7233880  
C    6.0013391   -0.6542651  -11.3331353  
H    5.9079899   -1.3384990   -8.3449513  
H    2.7531721    1.3677320   -8.9969531  
H    3.0120364    1.8583000  -11.7894752  
H    5.0177484    0.9530407  -14.5526862  
H    7.0946128   -0.9736949  -13.5264303  
H    6.8317180   -1.3443286  -11.2395297  
C    5.7052416   -2.0986834   -4.6958674  
C    4.8302129   -1.6343311   -3.7670098  
C    3.9272652   -0.7382853   -4.4501079  
C    4.3509922   -0.7185537   -5.8632095  
N    5.4336790   -1.5634480   -5.9458739  
C    3.7483770    0.0103196   -6.8365047  
C    2.6063700    0.8302495   -6.4676276  
O    1.9959438    1.5225185   -7.2716456  
C    2.1405132    0.8248035   -4.9767381  
O    1.1803932    1.5114043   -4.6542322  
C    2.8699641   -0.0020530   -4.0185824  
H    4.8187253   -1.8901546   -2.7224834  
H    6.5257690   -2.7867004   -4.5723455  
H    5.9462313   -1.7623474   -6.7853834  
C    3.2573670   -0.0002921   -1.5109382  
C    2.5379468   -0.0001711   -0.3591962  
C    1.1435043    0.0000330   -0.7338498  
C    1.1092608   -0.0000085   -2.2088474  
N    2.4227562    0.0001906   -2.6182610  
C   -0.0265533   -0.0002525   -2.9515663  
C   -1.3003033   -0.0002641   -2.2514979  
O   -2.3786785   -0.0004132   -2.8306425  
C   -1.2877724    0.0000310   -0.6895608  
O   -2.3539956    0.0003306   -0.0892035  
C    0.0000000    0.0000000    0.0000000  
H    2.9384091   -0.0000370    0.6389240  
H   -0.0296290   -0.0004088   -4.0327231  
H    4.3270394   -0.0004767   -1.6439445  
C    0.8681109    0.7263879    2.2709268  
C    0.6127770    0.5096195    3.5869401  
C   -0.4920590   -0.4175482    3.6542670  
C   -0.8620974   -0.7254003    2.2596025  
N    0.0000000    0.0000000    1.4700000  
C   -1.8641242   -1.5660088    1.8976294  
C   -2.6293522   -2.2103885    2.9520183  
O   -3.5512764   -2.9839180    2.7283916  
C   -2.2549728   -1.8987399    4.4361073  
O   -2.8923672   -2.4351063    5.3323774  
C   -1.1543735   -0.9755647    4.7012123  
H    1.1382914    0.9492124    4.4159191  
H   -2.1192137   -1.7782617    0.8686553  
H   -0.9013378   -0.7652422    5.7314848  
H    1.6172880    1.3558399    1.8188057  
