62

C    4.1463353    0.6296484   -8.6040916  
C    5.2404973   -0.2009872   -8.6770442  
C    5.7127572   -0.1503328  -10.0220361  
C    4.8601298    0.7353940  -10.7294542  
N    3.9188517    1.1896937   -9.8393850  
C    5.0299401    1.0261722  -12.0864368  
C    6.0797770    0.4118546  -12.7411392  
O    6.2914130    0.6605941  -14.0664132  
C    6.9410876   -0.4752308  -12.0526334  
O    7.9388068   -1.0069458  -12.8433167  
C    6.7739981   -0.7627642  -10.7140039  
H    5.6474618   -0.7738905   -7.8614737  
H    3.1855016    1.8414409  -10.0524691  
H    4.3834796    1.7002152  -12.6313758  
H    7.0628699    0.1385017  -14.3224190  
H    8.4751517   -1.5943993  -12.3021739  
H    7.4496025   -1.4464907  -10.2134486  
C    4.1935182   -0.7177397   -4.3920615  
C    3.1006054    0.0006263   -3.9654951  
C    2.6156864    0.7290728   -5.0919139  
C    3.4596601    0.4124174   -6.1870684  
N    4.4081828   -0.4670001   -5.7271261  
C    3.2765219    0.9521235   -7.4637701  
C    2.2220072    1.8272015   -7.6381675  
O    1.9974358    2.3830042   -8.8644082  
C    1.3691758    2.1557904   -6.5576468  
O    0.3653186    3.0414031   -6.8912717  
C    1.5494153    1.6239446   -5.2978134  
H    5.1380330   -0.8760161   -6.2821091  
H    1.2248040    2.9547960   -8.7676622  
H   -0.1646158    3.2102480   -6.1062464  
H    0.8800662    1.8944410   -4.4895550  
H    4.8377618   -1.3880262   -3.8492675  
C    3.2798083    0.0005857   -1.4499652  
C    2.5571142    0.0005565   -2.5996556  
C    1.1637432    0.0001548   -2.2210361  
C    1.1336964   -0.0000200   -0.7459473  
N    2.4483512   -0.0001428   -0.3402723  
C    0.0000000    0.0000000    0.0000000  
C   -1.2757368   -0.0000186   -0.6964415  
O   -2.3524598   -0.0000639   -0.1142311  
C   -1.2676497   -0.0000872   -2.2584083  
O   -2.3355766   -0.0004101   -2.8557295  
C    0.0181558    0.0001758   -2.9516296  
H    0.0150788    0.0003319   -4.0331631  
H    4.3498547    0.0008612   -1.3200026  
H    2.7563626    0.0012823    0.6148059  
C    0.8175213    0.6860729    2.3021913  
C    0.0000000    0.0000000    1.4700000  
C   -0.8887526   -0.7456559    2.3478473  
C   -0.4549825   -0.3816753    3.7138435  
N    0.5448156    0.4573574    3.6934124  
C   -1.0945674   -0.9182058    4.8835240  
C   -2.1210866   -1.7789155    4.6970523  
O   -2.8083856   -2.3554314    5.6976972  
C   -2.5824069   -2.1655116    3.3310774  
O   -3.5227682   -2.9541547    3.2362962  
C   -1.9100805   -1.6015804    2.1470656  
H   -0.7567140   -0.6349833    5.8697035  
H   -3.4728268   -2.9124471    5.2533954  
H   -2.2742832   -1.9066565    1.1752040  
H    1.6189533    1.3585343    2.0405121  
