62

C    0.7009492   -1.0685903   -9.5447961  
C    1.0481000   -0.6912503  -10.8213414  
C    0.8099046    0.7116414  -10.9201200  
C    0.3137993    1.1391790   -9.6619393  
N    0.2582589    0.0330691   -8.8507340  
C   -0.0296011    2.4682137   -9.3963606  
C    0.1310214    3.3823588  -10.4194525  
O   -0.1886840    4.6933340  -10.2141609  
C    0.6242230    2.9750391  -11.6818553  
O    0.7269068    4.0027915  -12.5964717  
C    0.9629406    1.6640330  -11.9446468  
H    1.4254370   -1.3467250  -11.5874765  
H   -0.4083737    2.8004325   -8.4396144  
H   -0.0044368    5.1524799  -11.0439216  
H    1.0672118    3.6430240  -13.4213139  
H    1.3380268    1.3817891  -12.9214399  
H    0.7327466   -2.0366615   -9.0749175  
C    1.7720688   -2.0859335   -5.3149821  
C    0.8968264   -1.6247192   -4.3847633  
C   -0.0065336   -0.7270828   -5.0652227  
C    0.4171842   -0.7029982   -6.4782596  
N    1.5002594   -1.5471470   -6.5634086  
C   -0.1857664    0.0284587   -7.4494065  
C   -1.3281506    0.8467739   -7.0781196  
O   -1.9388951    1.5411249   -7.8800982  
C   -1.7940047    0.8367265   -5.5872531  
O   -2.7544404    1.5219333   -5.2627298  
C   -1.0641734    0.0073898   -4.6315339  
H    0.8854566   -1.8836209   -3.3409939  
H    2.5929126   -2.7739333   -5.1934844  
H    2.0129033   -1.7433394   -7.4034991  
C    1.1319248    0.0015675   -0.8009270  
C    0.7969916    0.0034959   -2.1169404  
C   -0.6453336    0.0035703   -2.1842672  
C   -1.1266831    0.0015415   -0.7896027  
N    0.0000000    0.0000000    0.0000000  
C   -2.4346129    0.0013924   -0.4276297  
C   -3.4350110    0.0031352   -1.4820184  
O   -4.6384610    0.0030897   -1.2583919  
C   -2.9478958    0.0050460   -2.9661075  
O   -3.7809377    0.0062160   -3.8623775  
C   -1.5113821    0.0053068   -3.2312125  
H    1.4821240    0.0045436   -2.9459192  
H   -2.7664565    0.0000185    0.6013447  
H    2.1104318    0.0009428   -0.3488058  
C    2.5311839    2.1237619    3.0120429  
C    1.9795631    1.6616747    1.8395852  
C    0.9223175    0.7739173    2.1983588  
C    0.8753926    0.7337535    3.6154372  
N    1.8668922    1.5631002    4.0777464  
C   -0.0496243   -0.0427881    4.3197917  
C   -0.9437528   -0.7922060    3.5801400  
O   -1.8685244   -1.5680278    4.2172520  
C   -0.9124520   -0.7656372    2.1655264  
O   -1.8671164   -1.5663939    1.5732860  
C    0.0000000    0.0000000    1.4700000  
H    2.3005065    1.9304404    0.8477417  
H    2.0679347    1.7444845    5.0445261  
H   -0.0904770   -0.0778569    5.3997470  
H   -2.3849669   -2.0011402    3.5251786  
H   -1.7775064   -1.4909735    0.6183591  
H    3.3468514    2.8078103    3.1724291  
