64

C   -2.4861733   -0.0034646   -3.7159914  
C   -3.5192705   -0.0043702   -2.8075989  
C   -4.7328136   -0.0062599   -3.5572052  
C   -4.3743087   -0.0067134   -4.9295754  
N   -3.0028530   -0.0030323   -4.9905072  
C   -5.3209195   -0.0087734   -5.9585132  
C   -6.6537170   -0.0107123   -5.5954370  
O   -7.6195171   -0.0131194   -6.5599253  
C   -7.0312835   -0.0099212   -4.2315238  
O   -8.3964981   -0.0116663   -4.0327020  
C   -6.0979690   -0.0076160   -3.2159235  
H   -3.4114740   -0.0026406   -1.7364452  
H   -2.4594035   -0.0129939   -5.8346303  
H   -5.0541697   -0.0089853   -7.0063907  
H   -8.4675256   -0.0138652   -6.0971655  
H   -8.5659328   -0.0110123   -3.0856565  
C    0.0000000    0.0000000    0.0000000  
C   -1.0521661   -0.0021967   -0.8862338  
C   -0.4917243   -0.0003872   -2.1979129  
C    0.9187381    0.0026422   -2.0478685  
N    1.1833073    0.0047498   -0.7007916  
C    1.7951629    0.0047430   -3.1372094  
C    1.2375777    0.0034607   -4.4010427  
O    2.0474136    0.0050538   -5.4997585  
C   -0.1673630    0.0008176   -4.5711958  
O   -0.5673581    0.0002421   -5.8915550  
C   -1.0325808   -0.0009827   -3.4969887  
H   -2.0953054   -0.0036795   -0.6200556  
H    2.0989992   -0.0034810   -0.2891831  
H    2.8710839    0.0071992   -3.0295520  
H    1.4634807    0.0040604   -6.2693598  
H   -1.5290761   -0.0016069   -5.9180046  
C   -5.9482690    0.7138074   -0.7944313  
C   -6.5310889   -0.0066171   -1.8111793  
C   -7.6141229   -0.7359257   -1.2369442  
C   -7.6438939   -0.4176510    0.1449895  
N   -6.6178753    0.4635208    0.3804445  
C   -8.5863607   -0.9576496    1.0253000  
C   -9.5158929   -1.8346909    0.5009472  
O  -10.4589684   -2.3908654    1.3159883  
C   -9.5021813   -2.1649153   -0.8751275  
O  -10.4920839   -3.0523903   -1.2436700  
C   -8.5725386   -1.6327819   -1.7441064  
H   -6.3979500    0.8739219    1.2699303  
H   -8.6142934   -0.7192166    2.0796108  
H  -10.9993334   -2.9641046    0.7568204  
H  -10.4123735   -3.2222557   -2.1872777  
H   -8.5867117   -1.9045601   -2.7931126  
H   -5.1070181    1.3852765   -0.8140677  
C    1.0965515   -0.0001358    2.2710304  
C    0.0000000    0.0000000    1.4700000  
C   -1.1546562   -0.0001469    2.3369512  
C   -0.6372014   -0.0003519    3.7186280  
N    0.7342871   -0.0007337    3.6095011  
C   -1.4147739   -0.0001353    4.8308716  
C   -2.8576048    0.0001048    4.6554461  
O   -3.6427778    0.0002493    5.5944904  
C   -3.4275839    0.0000726    3.2011665  
O   -4.6406829   -0.0000333    3.0410059  
C   -2.4891866    0.0001091    2.0816745  
H   -1.0150448   -0.0001615    5.8354244  
H   -2.8919121    0.0002919    1.0779135  
H    2.1388271   -0.0000662    1.9961646  
H    1.3735872    0.0006099    4.3830260  
