64

C    0.3179156    0.1980488   -8.9033285  
C    1.3678501   -0.4586751   -9.5023427  
C    1.3745494   -0.0686728  -10.8743685  
C    0.2965872    0.8352961  -11.0553765  
N   -0.3253097    0.9736015   -9.8393459  
C    0.0021074    1.4238040  -12.2889603  
C    0.8107371    1.0939832  -13.3592484  
O    0.5680965    1.6401452  -14.5863773  
C    1.8908232    0.1937390  -13.1986502  
O    2.6020588   -0.0336914  -14.3587208  
C    2.1817538   -0.3874248  -11.9820431  
H    2.0448774   -1.1364064   -9.0111125  
H   -1.1187145    1.5610945   -9.6567478  
H   -0.8181071    2.1134087  -12.4335148  
H    1.2388432    1.2818380  -15.1821789  
H    3.3128463   -0.6519544  -14.1634368  
H    3.0155460   -1.0735184  -11.8896076  
C    1.8623197   -2.0072651   -5.4771202  
C    1.0190394   -1.6263760   -4.4895066  
C    0.0870117   -0.7080514   -5.1255131  
C    0.5265223   -0.6485023   -6.5361401  
N    1.5667222   -1.4080940   -6.7482583  
C   -0.1488130    0.1645215   -7.5097935  
C   -1.2149984    0.8849935   -7.0932569  
O   -1.9385161    1.6861033   -7.8937482  
C   -1.6831429    0.8457385   -5.6764077  
O   -2.6605019    1.5274253   -5.3677109  
C   -0.9736297    0.0040464   -4.6965763  
H    1.0282686   -1.9310391   -3.4569513  
H   -2.6258530    2.0607756   -7.3137985  
H    2.6982351   -2.6854681   -5.4118586  
C    1.1188642    0.0008222   -0.8003808  
C    0.0000000    0.0000000    0.0000000  
C   -1.1323862    0.0008899   -0.8673528  
C   -0.6382663    0.0019679   -2.1969280  
N    0.7324016    0.0038481   -2.1202242  
C   -1.4770914    0.0027318   -3.3154808  
C   -2.8395473    0.0020945   -3.0876857  
O   -3.7039201    0.0024425   -4.1440349  
C   -3.3517868    0.0013931   -1.7684331  
O   -4.7300497    0.0012366   -1.7073121  
C   -2.5248543    0.0009123   -0.6644817  
H    1.3576314   -0.0056167   -2.9057046  
H   -4.5940032    0.0021826   -3.7685128  
H   -4.9934602    0.0007259   -0.7819913  
H   -2.9462577    0.0005603    0.3339659  
H    2.1619895    0.0009355   -0.5342068  
C    2.5311839    2.1237619    3.0120429  
C    1.9795631    1.6616747    1.8395852  
C    0.9223175    0.7739173    2.1983588  
C    0.8753926    0.7337535    3.6154372  
N    1.8668922    1.5631002    4.0777464  
C   -0.0496243   -0.0427881    4.3197917  
C   -0.9437528   -0.7922060    3.5801400  
O   -1.8685244   -1.5680278    4.2172520  
C   -0.9124520   -0.7656372    2.1655264  
O   -1.8671164   -1.5663939    1.5732860  
C    0.0000000    0.0000000    1.4700000  
H    2.3005065    1.9304404    0.8477417  
H    2.0679347    1.7444845    5.0445261  
H   -0.0904770   -0.0778569    5.3997470  
H   -2.3849669   -2.0011402    3.5251786  
H   -1.7775064   -1.4909735    0.6183591  
H    3.3468514    2.8078103    3.1724291  
