64

C    8.2016169   -0.7182205    1.1555922  
C    8.8608896   -0.4713363    2.3374875  
C    9.9193263    0.4379790    2.0417579  
C    9.8556418    0.7129114    0.6516924  
N    8.8026382   -0.0066702    0.1437530  
C   10.7504767    1.5739445    0.0092893  
C   11.7272100    2.1684972    0.7843227  
O   12.6266381    3.0181685    0.2080406  
C   11.8072262    1.9064353    2.1727529  
O   12.8349701    2.5742086    2.8061275  
C   10.9249518    1.0569049    2.8071160  
H    8.6104932   -0.8954235    3.2947990  
H   10.7073568    1.7875235   -1.0498264  
H   13.2120980    3.3171605    0.9159281  
H   12.8185945    2.3422956    3.7396978  
H   11.0111182    0.8753583    3.8720550  
H    7.3511069   -1.3466898    0.9540530  
C    4.7577216    0.0005129   -1.7610467  
C    5.7908190   -0.0019812   -0.8526577  
C    7.0043632   -0.0008125   -1.6022636  
C    6.6458593    0.0027253   -2.9746297  
N    5.2743992    0.0014948   -3.0355630  
C    7.5924714    0.0050232   -4.0035659  
C    8.9252703    0.0040330   -3.6404919  
O    9.8910731    0.0065292   -4.6049774  
C    9.3028362    0.0001404   -2.2765833  
O   10.6680521   -0.0008031   -2.0777637  
C    8.3695192   -0.0024014   -1.2609854  
H    5.6830210   -0.0054566    0.2184915  
H    4.7309665    0.0139046   -3.8796651  
H    7.3257217    0.0075781   -5.0514399  
H   10.7390816    0.0049943   -4.1422201  
H   10.8374850   -0.0034521   -1.1307214  
C    3.3041270    0.0001177   -1.5420435  
C    2.5845370   -0.0004780   -0.3695856  
C    1.2040004   -0.0000007   -0.7283590  
C    1.1422370    0.0006038   -2.1454373  
N    2.4348634    0.0026110   -2.6077469  
C   -0.0655187    0.0008799   -2.8497918  
C   -1.2321769    0.0002326   -2.1101398  
O   -2.4392822    0.0001149   -2.7472517  
C   -1.1911211   -0.0000007   -0.6955263  
O   -2.4371526   -0.0002319   -0.1032858  
C    0.0000000    0.0000000    0.0000000  
H    3.0031534   -0.0000661    0.6222578  
H    2.7054623   -0.0071098   -3.5745266  
H   -0.1193555    0.0014846   -3.9297472  
H   -3.1132992   -0.0000646   -2.0551783  
H   -2.3200279   -0.0004070    0.8516411  
C    0.0000000    0.0000000    1.4700000  
C    1.0541688    0.0001722    2.3260392  
C    0.5103138    0.0000454    3.6635956  
C   -0.9576371   -0.0002459    3.5155732  
N   -1.2018458    0.0001392    2.1615969  
C   -1.8348311   -0.0008317    4.5510609  
C   -1.2972847   -0.0009736    5.9014604  
O   -2.0050672   -0.0014265    6.9001319  
C    0.2542623   -0.0004184    6.0817573  
O    0.7184670   -0.0002256    7.2139121  
C    1.0974552   -0.0000873    4.8889129  
H    2.0940752    0.0005483    2.0517982  
H   -2.9081052   -0.0011668    4.4207061  
H    2.1707277    0.0000911    5.0223670  
H   -2.1128194   -0.0014912    1.7406791  
