60

C   -8.4540626    2.9429354   -1.6761204  
C   -7.6566379    1.9812444   -2.2520821  
C   -8.3836252    0.7549029   -2.2054276  
C   -9.6285880    1.0324288   -1.5849649  
N   -9.6378347    2.3696280   -1.2744318  
C  -10.6026315    0.0522732   -1.3720726  
C  -10.3147693   -1.2313658   -1.7934795  
O  -11.2305715   -2.2267817   -1.6105401  
C   -9.0780414   -1.5280525   -2.4142030  
O   -8.9415600   -2.8521881   -2.7766685  
C   -8.1165488   -0.5616593   -2.6243042  
H   -6.6716392    2.1434141   -2.6551587  
H  -10.3968579    2.8580983   -0.8348188  
H  -11.5534019    0.2573185   -0.8996384  
H  -10.8350274   -3.0312564   -1.9705830  
H   -8.0797373   -2.9675291   -3.1884470  
H   -8.2715003    3.9921598   -1.5187743  
C   -3.9884051    0.7039232   -1.8242583  
C   -3.3460097   -0.0004262   -2.7913647  
C   -4.3537581   -0.7427567   -3.5112428  
C   -5.6451795   -0.4107427   -2.8797465  
N   -5.3546451    0.4703284   -1.8637777  
C   -6.8441771   -0.9105381   -3.2725754  
C   -6.8640254   -1.8374909   -4.3919057  
O   -7.8934846   -2.3421816   -4.8206281  
C   -5.5080969   -2.2034208   -5.0755417  
O   -5.5122777   -2.9830138   -6.0186631  
C   -4.2805270   -1.6000813   -4.5627984  
H   -3.3459156   -1.8584818   -5.0418127  
H   -3.5786585    1.3738261   -1.0858631  
H   -6.0311467    0.8819829   -1.2473904  
C    0.0000000    0.0000000    0.0000000  
C    1.0662919   -0.0000103   -0.8334272  
C    0.4961868    0.0000066   -2.1718889  
C   -0.9663860   -0.0000849   -1.9540248  
N   -1.2632775   -0.0000084   -0.6828659  
C   -1.8985364   -0.0000515   -3.0477258  
C   -1.3925778    0.0004567   -4.3020543  
O   -2.1456385    0.0005412   -5.4151314  
C    0.0786229    0.0009326   -4.5544999  
O    0.4683756    0.0012594   -5.7221104  
C    1.0143162    0.0008443   -3.4159034  
H    2.1107195    0.0000631   -0.5721869  
H   -1.5042277    0.0009692   -6.1484420  
H    2.0724151    0.0013151   -3.6409746  
C    0.0000000    0.0000000    1.4700000  
C    1.0541688    0.0001722    2.3260392  
C    0.5103138    0.0000454    3.6635956  
C   -0.9576371   -0.0002459    3.5155732  
N   -1.2018458    0.0001392    2.1615969  
C   -1.8348311   -0.0008317    4.5510609  
C   -1.2972847   -0.0009736    5.9014604  
O   -2.0050672   -0.0014265    6.9001319  
C    0.2542623   -0.0004184    6.0817573  
O    0.7184670   -0.0002256    7.2139121  
C    1.0974552   -0.0000873    4.8889129  
H    2.0940752    0.0005483    2.0517982  
H   -2.9081052   -0.0011668    4.4207061  
H    2.1707277    0.0000911    5.0223670  
H   -2.1128194   -0.0014912    1.7406791  
