62

C    0.5486496   -0.7097072   -5.2160866  
C    0.2216139   -0.4592711   -6.5286400  
C   -0.8774659    0.4498517   -6.5177136  
C   -1.1798183    0.7210113   -5.1586764  
N   -0.2963289   -0.0005348   -4.3948470  
C   -2.2117132    1.5808265   -4.7704765  
C   -2.9516735    2.1780189   -5.7724740  
O   -3.9706965    3.0266526   -5.4493235  
C   -2.6655126    1.9197343   -7.1341709  
O   -3.4917885    2.5897948   -8.0125953  
C   -1.6478464    1.0714073   -7.5178672  
H    0.7138729   -0.8809275   -7.3882216  
H   -2.4472968    1.7915347   -3.7364050  
H   -4.3505467    3.3278805   -6.2849321  
H   -3.2316367    2.3603821   -8.9099785  
H   -1.4522912    0.8927719   -8.5687367  
H    1.3168717   -1.3392020   -4.8007205  
C    3.1301148   -0.0010315   -1.7028253  
C    2.5367766   -0.0002767   -0.4864666  
C    1.1089903    0.0001025   -0.7656183  
C    1.0177867   -0.0004153   -2.2415131  
N    2.1993574   -0.0011616   -2.7963821  
C   -0.2459218   -0.0002884   -2.9257117  
C   -1.3675324   -0.0000610   -2.1698519  
O   -2.6129318    0.0000862   -2.6748483  
C   -1.3083588    0.0000908   -0.6783229  
O   -2.3693264    0.0004202   -0.0541688  
C    0.0000000    0.0000000    0.0000000  
H    3.0096015   -0.0001006    0.4807520  
H   -3.1967441    0.0002093   -1.8949029  
C    6.7636936   -0.0010972    0.9023165  
C    5.4671767   -0.0014231    0.4424130  
C    5.5308676   -0.0015891   -0.9825585  
C    6.9040852   -0.0016371   -1.3378048  
N    7.6252192    0.0006171   -0.1696535  
C    7.3417425   -0.0020976   -2.6656768  
C    6.3755441   -0.0028243   -3.6529140  
O    6.7475655   -0.0036485   -4.9661594  
C    5.0004291   -0.0024134   -3.3184351  
O    4.1619021   -0.0028175   -4.4139789  
C    4.5679459   -0.0016858   -2.0086704  
H    4.5841352   -0.0004231    1.0582289  
H    8.6271391   -0.0094393   -0.1061179  
H    8.3868634   -0.0019925   -2.9430288  
H    5.9304030   -0.0037559   -5.4814352  
H    3.2522415   -0.0025265   -4.1007374  
H    7.1420550   -0.0005064    1.9101861  
C    0.0000000    0.0000000    1.4700000  
C    1.0541688    0.0001722    2.3260392  
C    0.5103138    0.0000454    3.6635956  
C   -0.9576371   -0.0002459    3.5155732  
N   -1.2018458    0.0001392    2.1615969  
C   -1.8348311   -0.0008317    4.5510609  
C   -1.2972847   -0.0009736    5.9014604  
O   -2.0050672   -0.0014265    6.9001319  
C    0.2542623   -0.0004184    6.0817573  
O    0.7184670   -0.0002256    7.2139121  
C    1.0974552   -0.0000873    4.8889129  
H    2.0940752    0.0005483    2.0517982  
H   -2.9081052   -0.0011668    4.4207061  
H    2.1707277    0.0000911    5.0223670  
H   -2.1128194   -0.0014912    1.7406791  
