62

C   -3.1612584    0.0061820   -8.4650999  
C   -4.2165089    0.0058552   -7.5825388  
C   -5.4111405    0.0059707   -8.3619327  
C   -5.0188016    0.0060875   -9.7250160  
N   -3.6462545    0.0081648   -9.7520048  
C   -5.9396736    0.0059157  -10.7770544  
C   -7.2810446    0.0053136  -10.4470551  
O   -8.2226962    0.0047707  -11.4351381  
C   -7.6922306    0.0055636   -9.0928979  
O   -9.0619476    0.0053141   -8.9279054  
C   -6.7843203    0.0060063   -8.0545220  
H   -4.1352387    0.0066740   -6.5090457  
H   -3.0821035   -0.0018341  -10.5824354  
H   -5.6470861    0.0061475  -11.8180129  
H   -9.0818909    0.0047064  -10.9934944  
H   -9.2547536    0.0054808   -7.9853400  
H   -7.1291485    0.0063710   -7.0271120  
C   -0.9736295    0.0040466   -4.6965763  
C    0.3136154    0.0047603   -5.1144026  
C    0.2364009    0.0059850   -6.5671711  
C   -1.2123336    0.0057277   -6.8634012  
N   -1.9266301    0.0046737   -5.7708040  
C   -1.7135257    0.0067572   -8.2102094  
C   -0.8085709    0.0083768   -9.2153904  
O   -1.1348688    0.0094714  -10.5190651  
C    0.6601133    0.0090493   -8.9486944  
O    1.4261899    0.0104120   -9.9122012  
C    1.1492579    0.0079247   -7.5584928  
H    1.2054046    0.0045797   -4.5112546  
H   -0.2810977    0.0105425  -10.9883478  
H    2.2204486    0.0085756   -7.4075619  
C    1.1188642    0.0008216   -0.8003808  
C    0.0000000    0.0000000    0.0000000  
C   -1.1323861    0.0008904   -0.8673528  
C   -0.6382661    0.0019681   -2.1969280  
N    0.7324017    0.0038477   -2.1202241  
C   -1.4770913    0.0027323   -3.3154808  
C   -2.8395472    0.0020956   -3.0876858  
O   -3.7039201    0.0024441   -4.1440350  
C   -3.3517867    0.0013945   -1.7684332  
O   -4.7300494    0.0012387   -1.7073122  
C   -2.5248543    0.0009134   -0.6644817  
H    1.3576316   -0.0056175   -2.9057045  
H   -4.5940031    0.0021847   -3.7685129  
H   -4.9934602    0.0007284   -0.7819915  
H   -2.9462576    0.0005617    0.3339659  
H    2.1619896    0.0009343   -0.5342067  
C    2.5528530    2.1414826    2.8079335  
C    2.0663498    1.7338582    4.0032312  
C    0.9804344    0.8229586    3.6752840  
C    0.9495562    0.7966882    2.1971295  
N    1.8690446    1.5676019    1.6831036  
C    0.0000000    0.0000000    1.4700000  
C   -0.8785127   -0.7372425    2.1869543  
O   -1.8187535   -1.5261249    1.6395491  
C   -0.8723269   -0.7321790    3.6796354  
O   -1.7010379   -1.4274584    4.2670412  
C    0.1115397    0.0933559    4.4024240  
H    2.4028853    2.0163452    4.9860947  
H   -2.2861435   -1.9184361    2.3990168  
H    0.0832434    0.0693689    5.4835595  
H    3.3664920    2.8238276    2.6198634  
