62

C    2.5407189   -2.1175681   -5.9030222  
C    1.9415421   -1.6187194   -7.0364259  
C    0.8989095   -0.7455179   -6.6062679  
C    0.9098667   -0.7512695   -5.1878981  
N    1.9175641   -1.5960294   -4.7935065  
C    0.0139746    0.0003883   -4.4216235  
C   -0.9096101    0.7721425   -5.0995353  
O   -1.8075338    1.5258146   -4.4004467  
C   -0.9365608    0.7908048   -6.5143649  
O   -1.9150938    1.6084501   -7.0409320  
C   -0.0532191    0.0493180   -7.2709567  
H    2.2207970   -1.8559587   -8.0487138  
H    2.1710267   -1.7926474   -3.8421502  
H   -2.3521998    1.9799184   -5.0564906  
H   -1.8648078    1.5637495   -8.0006599  
H   -0.0980665    0.0836396   -8.3532171  
H    3.3623587   -2.8052407   -5.7982731  
C    3.2798087    0.0005858   -1.4499643  
C    2.5571149    0.0005569   -2.5996548  
C    1.1637440    0.0001551   -2.2210358  
C    1.1336966   -0.0000198   -0.7459468  
N    2.4483512   -0.0001426   -0.3402714  
C    0.0000000    0.0000000    0.0000000  
C   -1.2757369   -0.0000185   -0.6964416  
O   -2.3524599   -0.0000639   -0.1142315  
C   -1.2676492   -0.0000870   -2.2584080  
O   -2.3355760   -0.0004099   -2.8557298  
C    0.0181565    0.0001762   -2.9516296  
H    2.9547360    0.0006079   -3.5989102  
H    2.7563627    0.0012824    0.6148067  
C    4.7390849    0.0009618   -1.2727274  
C    5.7159797    0.0017147   -2.2159938  
C    6.9782059    0.0017434   -1.5148383  
C    6.6542740    0.0009104   -0.0754432  
N    5.2807310    0.0008654    0.0037361  
C    7.5764453    0.0002884    0.9201994  
C    8.9818045    0.0006764    0.5493910  
O    9.8878540    0.0002360    1.3724190  
C    9.3478547    0.0018102   -0.9690988  
O   10.5277196    0.0024518   -1.2934138  
C    8.2653752    0.0021256   -1.9499607  
H    5.5691195    0.0023776   -3.2813791  
H    7.3176377   -0.0004484    1.9699268  
H    8.5272596    0.0027064   -2.9993132  
H    4.7530488   -0.0011853    0.8573138  
C    2.5285572    2.1210227    2.9438989  
C    1.9331703    1.6216660    4.0790748  
C    0.8903039    0.7472258    3.6520102  
C    0.8972198    0.7527806    2.2336141  
N    1.9028376    1.5986179    1.8362361  
C    0.0000000    0.0000000    1.4700000  
C   -0.9207814   -0.7726952    2.1506477  
O   -1.8198395   -1.5274828    1.4542253  
C   -0.9436862   -0.7911793    3.5655508  
O   -1.9197945   -1.6098497    4.0950179  
C   -0.0590329   -0.0485852    4.3195194  
H    2.2150357    1.8593692    5.0905303  
H    2.1533708    1.7953814    0.8841339  
H   -2.3621246   -1.9821033    2.1118817  
H   -1.8668290   -1.5649508    5.0545920  
H   -0.1007624   -0.0827977    5.4019087  
H    3.3491200    2.8096064    2.8367138  
