64

C   -1.6468423   -0.0583285   -3.2702994  
C   -3.0209049   -0.1127730   -3.3084438  
C   -3.3995903   -0.1123941   -4.6836518  
C   -2.2038695   -0.0563515   -5.4445968  
N   -1.1584664   -0.0226655   -4.5554324  
C   -2.1971654   -0.0407088   -6.8426310  
C   -3.4197939   -0.0827069   -7.4841852  
O   -3.4709520   -0.0701118   -8.8480914  
C   -4.6237335   -0.1384955   -6.7424081  
O   -5.7584093   -0.1750662   -7.5263183  
C   -4.6311123   -0.1536845   -5.3631905  
H   -3.6704427   -0.1472769   -2.4505956  
H   -0.1861764    0.0086824   -4.8037279  
H   -1.2892904    0.0020751   -7.4284087  
H   -4.4064739   -0.1046583   -9.0865659  
H   -6.5264854   -0.2118177   -6.9481212  
C   -1.1178682   -0.0472166   -0.8003807  
C    0.0000000    0.0000000    0.0000000  
C    1.1314485    0.0460667   -0.8673533  
C    0.6377984    0.0245002   -2.1969280  
N   -0.7316129   -0.0342147   -2.1202242  
C    1.4759332    0.0585200   -3.3154813  
C    2.8371910    0.1156527   -3.0876862  
O    3.7008345    0.1511471   -4.1440363  
C    3.3489616    0.1375943   -1.7684339  
O    4.7260325    0.1949019   -1.7073137  
C    2.5227205    0.1037846   -0.6644823  
H    1.1059572    0.0421974   -4.3313823  
H    4.5901415    0.1883151   -3.7685147  
H    4.9891949    0.2063344   -0.7819932  
H    2.9437469    0.1216105    0.3339646  
H   -2.1600915   -0.0905842   -0.5342062  
C   -6.1964784    0.4833116   -3.4789529  
C   -5.9034985   -0.2118570   -4.6293313  
C   -7.0582839   -0.9831137   -4.9552663  
C   -8.0323078   -0.7152790   -3.9595411  
N   -7.4758268    0.1775142   -3.0775739  
C   -9.2997459   -1.3055126   -3.9632661  
C   -9.5892934   -2.1818595   -4.9910579  
O  -10.8121580   -2.7859267   -5.0431969  
C   -8.6305418   -2.4621697   -5.9935742  
O   -9.0698327   -3.3557546   -6.9484953  
C   -7.3798898   -1.8804611   -5.9903805  
H   -7.9357846    0.5601252   -2.2713304  
H  -10.0465012   -1.1056637   -3.2072114  
H  -10.8050333   -3.3495857   -5.8277366  
H   -8.3631402   -3.4900143   -7.5873718  
H   -6.6662600   -2.1146714   -6.7716338  
H   -5.5935749    1.1719811   -2.9122068  
C    0.0000000    0.0000000    1.4700000  
C    1.0662921    0.0000102    2.3034270  
C    0.4961870   -0.0000064    3.6418889  
C   -0.9663858    0.0000850    3.4240247  
N   -1.2632773    0.0000084    2.1528658  
C   -1.8985362    0.0000517    4.5177257  
C   -1.3925775   -0.0004564    5.7720543  
O   -2.1456383   -0.0005410    6.8851312  
C    0.0786232   -0.0009323    6.0245000  
O    0.4683759   -0.0012588    7.1921102  
C    1.0143166   -0.0008442    4.8859032  
H    2.1107198   -0.0000632    2.0421868  
H   -2.9622183    0.0003270    4.3293377  
H   -1.5042274   -0.0009692    7.6184419  
H    2.0724152   -0.0013148    5.1109744  
