60

C   -3.3460099   -0.0004264   -2.7913642  
C   -4.0351704    0.0002976   -1.6007658  
C   -5.4244878    0.0000967   -1.9238714  
C   -5.5227201   -0.0010535   -3.3388893  
N   -4.2424277    0.0006062   -3.8343326  
C   -6.7482125   -0.0018513   -4.0119101  
C   -7.8954388   -0.0017882   -3.2424610  
O   -9.1185486   -0.0028969   -3.8482781  
C   -7.8179694   -0.0002734   -1.8293748  
O   -9.0483379    0.0000108   -1.2052453  
C   -6.6093340    0.0007875   -1.1647513  
H   -3.5911530    0.0020019   -0.6200319  
H   -3.9968115   -0.0102580   -4.8077475  
H   -6.8298412   -0.0025850   -5.0901210  
H   -9.7745213   -0.0023402   -3.1390781  
H   -8.9066632    0.0010310   -0.2536515  
H   -6.5814270    0.0021213   -0.0813780  
C    0.0000000    0.0000000    0.0000000  
C    1.0662919   -0.0000103   -0.8334270  
C    0.4961866    0.0000065   -2.1718889  
C   -0.9663862   -0.0000850   -1.9540246  
N   -1.2632775   -0.0000084   -0.6828656  
C   -1.8985367   -0.0000517   -3.0477255  
C   -1.3925784    0.0004565   -4.3020543  
O   -2.1456390    0.0005410   -5.4151309  
C    0.0786224    0.0009324   -4.5544999  
O    0.4683751    0.0012590   -5.7221101  
C    1.0143159    0.0008443   -3.4159032  
H    2.1107193    0.0000633   -0.5721870  
H   -1.5042281    0.0009693   -6.1484413  
C    4.2926939   -2.1403417   -1.5040822  
C    5.3604699   -1.7320209   -2.2284490  
C    4.8134468   -0.8208704   -3.2219630  
C    3.3612063   -0.7952320   -2.9446120  
N    3.0500060   -1.5667026   -1.9386411  
C    2.4521472    0.0014839   -3.7217486  
C    2.9703719    0.7393567   -4.7298761  
O    2.2390447    1.5283417   -5.5352979  
C    4.4316764    0.7349404   -5.0343926  
O    4.8335639    1.4307757   -5.9668730  
C    5.3436381   -0.0906365   -4.2228059  
H    6.3919426   -2.0142023   -2.1038965  
H    2.8845107    1.9211526   -6.1502985  
H    6.3952190   -0.0661688   -4.4754112  
H    4.2782624   -2.8230633   -0.6694228  
C    3.2798086   -0.0005857    2.9199648  
C    2.5571146   -0.0005566    4.0696553  
C    1.1637436   -0.0001548    3.6910360  
C    1.1336965    0.0000200    2.2159470  
N    2.4483514    0.0001428    1.8102719  
C    0.0000000    0.0000000    1.4700000  
C   -1.2757367    0.0000186    2.1664417  
O   -2.3524596    0.0000640    1.5842315  
C   -1.2676493    0.0000873    3.7284083  
O   -2.3355761    0.0004100    4.3257297  
C    0.0181563   -0.0001760    4.4216297  
H    2.9547357   -0.0006076    5.0689105  
H    0.0150794   -0.0003319    5.5031631  
H    4.3498549   -0.0008612    2.7900019  
H    2.7563627   -0.0012824    0.8551938  
