62

C    9.2819201    0.0021530    0.6006726  
C    9.9373251    0.0029636   -0.6088362  
C   11.3351795    0.0034349   -0.3249300  
C   11.4731682    0.0025866    1.0867657  
N   10.2073140    0.0037718    1.6180186  
C   12.7171034    0.0024526    1.7250556  
C   13.8422349    0.0028815    0.9236479  
O   15.0818991    0.0024232    1.4948278  
C   13.7250573    0.0041039   -0.4867010  
O   14.9373862    0.0048171   -1.1451852  
C   12.4982074    0.0045100   -1.1170716  
H    9.4659005    0.0042929   -1.5766953  
H    9.9891751   -0.0070231    2.5979574  
H   12.8290223    0.0019518    2.8005450  
H   15.7176688    0.0031399    0.7674607  
H   14.7690049    0.0056009   -2.0924186  
H   12.4398442    0.0056336   -2.1992316  
C    5.7595788    0.0007158   -2.0216249  
C    4.7795901    0.0008674   -1.0815733  
C    5.4318897    0.0011976    0.2065808  
C    6.8826349    0.0012555   -0.0619868  
N    7.0143612    0.0005547   -1.4314894  
C    7.8422293    0.0019357    0.8976397  
C    7.4178692    0.0024332    2.2877670  
O    8.2055926    0.0029962    3.2246724  
C    5.8864740    0.0021297    2.5953922  
O    5.5172092    0.0022369    3.7619702  
C    4.9477888    0.0016667    1.4761413  
H    3.8891765    0.0016643    1.6976442  
H    5.6706927    0.0004913   -3.0958636  
H    7.8875232    0.0019716   -1.9260937  
C    3.3321168    0.0004716   -1.3379341  
C    2.6974177    0.0000118   -2.5332316  
C    1.2800432   -0.0002116   -2.2052842  
C    1.2395033    0.0000644   -0.7271298  
N    2.4394059    0.0005460   -0.2131041  
C    0.0000000    0.0000000    0.0000000  
C   -1.1468704    0.0000635   -0.7169542  
O   -2.3742206    0.0000074   -0.1695488  
C   -1.1388774    0.0001608   -2.2096352  
O   -2.2206238    0.0000906   -2.7970409  
C    0.1454514    0.0001818   -2.9324241  
H    3.1367978   -0.0000649   -3.5160956  
H   -2.9844350    0.0001027   -0.9290164  
H    0.1083567    0.0003684   -4.0135594  
C    2.5285572    2.1210227    2.9438989  
C    1.9331703    1.6216660    4.0790748  
C    0.8903039    0.7472258    3.6520102  
C    0.8972198    0.7527806    2.2336141  
N    1.9028376    1.5986179    1.8362361  
C    0.0000000    0.0000000    1.4700000  
C   -0.9207814   -0.7726952    2.1506477  
O   -1.8198395   -1.5274828    1.4542253  
C   -0.9436862   -0.7911793    3.5655508  
O   -1.9197945   -1.6098497    4.0950179  
C   -0.0590329   -0.0485852    4.3195194  
H    2.2150357    1.8593692    5.0905303  
H    2.1533708    1.7953814    0.8841339  
H   -2.3621246   -1.9821033    2.1118817  
H   -1.8668290   -1.5649508    5.0545920  
H   -0.1007624   -0.0827977    5.4019087  
H    3.3491200    2.8096064    2.8367138  
