62

C    0.6827523   -0.7107513   -5.1516729  
C    0.3353053   -0.4609409   -6.4590916  
C   -0.7638021    0.4477941   -6.4314643  
C   -1.0451356    0.7193730   -5.0680044  
N   -0.1496426   -0.0015617   -4.3176960  
C   -2.0711966    1.5789710   -4.6641734  
C   -2.8268263    2.1755102   -5.6548006  
O   -3.8410220    3.0239061   -5.3162067  
C   -2.5617293    1.9167998   -7.0206739  
O   -3.4017744    2.5862250   -7.8864316  
C   -1.5498296    1.0686867   -7.4197847  
H    0.8143244   -0.8827551   -7.3260440  
H   -2.2907869    1.7899956   -3.6266525  
H   -4.2338974    3.3246745   -6.1459368  
H   -3.1554909    2.3565568   -8.7876540  
H   -1.3705342    0.8897138   -8.4734928  
H    1.4575534   -1.3398112   -4.7480325  
C    3.3003539    0.0005272   -1.4738994  
C    2.5232807    0.0003493   -2.6090753  
C    1.1623195   -0.0001323   -2.1820106  
C    1.1711880    0.0000582   -0.7636143  
N    2.4852298   -0.0014922   -0.3662365  
C    0.0000000    0.0000000    0.0000000  
C   -1.2020387    0.0000519   -0.6806475  
O   -2.3759248    0.0003494    0.0157747  
C   -1.2314661   -0.0005114   -2.0955507  
O   -2.5054400   -0.0008040   -2.6250174  
C   -0.0764524   -0.0007276   -2.8495195  
H    2.8919944   -0.0005625   -3.6205309  
H    2.8036264    0.0088180    0.5858657  
H   -3.0835644    0.0000351   -0.6418811  
H   -2.4360058   -0.0011530   -3.5845915  
C    5.6726949   -0.0000691   -2.3740998  
C    6.9488224   -0.0023549   -1.9098062  
C    6.8722127   -0.0037711   -0.4679447  
C    5.4365528   -0.0021405   -0.1278427  
N    4.7630501    0.0004753   -1.3275413  
C    4.9461563   -0.0031934    1.1375485  
C    5.8957035   -0.0059025    2.2379521  
O    5.5533686   -0.0069669    3.4131571  
C    7.4209172   -0.0074131    1.9010167  
O    8.2297938   -0.0093882    2.8191536  
C    7.8277292   -0.0063490    0.4980359  
H    7.8418969   -0.0027954   -2.5089990  
H    3.8892555   -0.0020915    1.3652963  
H    8.8856423   -0.0076122    0.2732176  
H    5.3202440    0.0014804   -3.3927585  
C    2.4951002    2.0940188    2.9809380  
C    1.9440701    1.6314916    1.8291961  
C    0.8759964    0.7350050    2.2038498  
C    0.8497377    0.7130254    3.6788474  
N    1.8560616    1.5571714    4.0882609  
C   -0.0205033   -0.0168748    4.4215661  
C   -0.9962600   -0.8356168    3.7214979  
O   -1.8224391   -1.5286685    4.3006425  
C   -0.9864710   -0.8277881    2.1595606  
O   -1.8030528   -1.5133726    1.5592035  
C    0.0000000    0.0000000    1.4700000  
H    2.2509283    1.8888011    0.8310761  
H   -0.0229599   -0.0187323    5.5027230  
H    3.3143982    2.7817323    3.1139444  
H    2.0889452    1.7545833    5.0442112  
