60

C    5.3608240   -3.6448625    0.4261811  
C    4.2666897   -3.0465528   -0.1546489  
C    3.1157306   -3.5125666    0.5472950  
C    3.5735798   -4.4001285    1.5545364  
N    4.9412764   -4.4592245    1.4519213  
C    2.7086526   -5.0491485    2.4407994  
C    1.3569298   -4.7973627    2.3080320  
O    0.4681901   -5.4043903    3.1474808  
C    0.8807277   -3.9152670    1.3090555  
O   -0.4911030   -3.7689641    1.3047389  
C    1.7334027   -3.2748550    0.4342161  
H    5.5447128   -5.0017578    2.0431109  
H    3.0512873   -5.7268651    3.2105438  
H   -0.4090189   -5.0953763    2.8861786  
H   -0.7295722   -3.1577058    0.6011055  
H    1.3393776   -2.6047743   -0.3209088  
H    6.4071777   -3.5562453    0.1890104  
C    4.3047801   -2.1086495   -1.2859250  
C    5.3774567   -1.6442153   -1.9771129  
C    4.8701594   -0.7486132   -2.9897238  
C    3.4034922   -0.7291858   -2.8306577  
N    3.1250168   -1.5744514   -1.7814355  
C    2.5562217   -0.0001543   -3.6003001  
C    3.1269046    0.8199333   -4.6559103  
O    2.4474929    1.5122577   -5.4024941  
C    4.6776922    0.8144239   -4.8425431  
O    5.1696063    1.5006866   -5.7281646  
C    5.4870226   -0.0121787   -3.9505986  
H    6.4066170   -1.8999854   -1.7981576  
H    6.5600127   -0.0102589   -4.0862917  
H    2.2064282   -1.7712342   -1.4285629  
C    0.0000000    0.0000000    0.0000000  
C    1.0541688   -0.0001719   -0.8560391  
C    0.5103141   -0.0000449   -2.1935955  
C   -0.9576367    0.0002461   -2.0455733  
N   -1.2018459   -0.0001392   -0.6915970  
C   -1.8348306    0.0008319   -3.0810611  
C   -1.2972842    0.0009739   -4.4314605  
O   -2.0050664    0.0014267   -5.4301321  
C    0.2542628    0.0004190   -4.6117571  
O    0.7184677    0.0002263   -5.7439119  
C    1.0974556    0.0000880   -3.4189127  
H    2.0940752   -0.0005479   -0.5817978  
H   -2.9081050    0.0011669   -2.9507065  
H   -2.1128195    0.0014911   -0.2706793  
C    3.3321173   -0.0004715    2.8079335  
C    2.6974184   -0.0000116    4.0032312  
C    1.2800439    0.0002118    3.6752840  
C    1.2395035   -0.0000644    2.1971295  
N    2.4394063   -0.0005460    1.6831036  
C    0.0000000    0.0000000    1.4700000  
C   -1.1468701   -0.0000635    2.1869543  
O   -2.3742202   -0.0000073    1.6395491  
C   -1.1388768   -0.0001607    3.6796354  
O   -2.2206231   -0.0000905    4.2670412  
C    0.1454524   -0.0001816    4.4024240  
H    3.1367986    0.0000651    4.9860947  
H   -2.9844344   -0.0001026    2.3990168  
H    0.1083576   -0.0003682    5.4835595  
H    4.3940039   -0.0007619    2.6198634  
