64

C    0.5499242    3.4287106   -2.9707411  
C    0.2405510    4.6818167   -3.4466416  
C   -0.6606579    4.5020959   -4.5375692  
C   -0.8664746    3.1061110   -4.6817635  
N   -0.1153036    2.4835002   -3.7159915  
C   -1.7012541    2.5620611   -5.6625498  
C   -2.3401349    3.4433185   -6.5130763  
O   -3.1668487    2.9658180   -7.4885498  
C   -2.1472088    4.8394790   -6.3852774  
O   -2.8526202    5.5847866   -7.3073700  
C   -1.3236117    5.3768867   -5.4181127  
H   -1.8622064    1.4990354   -5.7777578  
H   -3.5044417    3.7372147   -7.9620948  
H   -2.6667618    6.5158778   -7.1520306  
H   -1.1952459    6.4504781   -5.3446126  
H    1.1935910    3.1343143   -2.1595801  
C    0.0000000    0.0000000    0.0000000  
C   -0.0495269    1.0510019   -0.8862338  
C   -0.0225082    0.4912087   -2.1979130  
C    0.0439685   -0.9176892   -2.0478683  
N    0.0579759   -1.1818962   -0.7007915  
C    0.0854927   -1.7931328   -3.1372093  
C    0.0591284   -1.2361695   -4.4010427  
O    0.0971502   -2.0451142   -5.4997580  
C   -0.0067138    0.1672299   -4.5711962  
O   -0.0252828    0.5667943   -5.8915547  
C   -0.0474338    1.0314906   -3.4969889  
H   -0.0979341    2.0930185   -0.6200556  
H    0.0909462   -2.0970312   -0.2891827  
H    0.1363470   -2.8678539   -3.0295519  
H    0.0698893   -1.4618173   -6.2693598  
H   -0.0703930    1.5274550   -5.9180040  
C    0.7570990    5.9506755   -2.9136543  
C    1.6242520    6.1868994   -1.8721596  
C    1.7896442    7.6007096   -1.7805825  
C    0.9920023    8.1799931   -2.8004469  
N    0.3801080    7.1501175   -3.4709384  
C    0.9120851    9.5606975   -3.0055293  
C    1.6506037   10.3714007   -2.1655723  
O    1.6088672   11.7267517   -2.3214448  
C    2.4526847    9.8122311   -1.1424339  
O    3.1281209   10.7509022   -0.3900863  
C    2.5322140    8.4502087   -0.9397111  
H    2.0822243    5.4328986   -1.2551204  
H   -0.2560110    7.2554796   -4.2405048  
H    0.3061333   10.0084442   -3.7811238  
H    2.1878976   12.0975921   -1.6428689  
H    3.6455009   10.2904312    0.2776622  
H    3.1552848    8.0510222   -0.1479336  
C    3.2573670    0.0002920    2.9809380  
C    2.5379467    0.0001709    1.8291961  
C    1.1435042   -0.0000331    2.2038498  
C    1.1092607    0.0000083    3.6788474  
N    2.4227561   -0.0001909    4.0882609  
C   -0.0265533    0.0002524    4.4215661  
C   -1.3003036    0.0002640    3.7214979  
O   -2.3786784    0.0004133    4.3006425  
C   -1.2877726   -0.0000311    2.1595606  
O   -2.3539958   -0.0003306    1.5592035  
C    0.0000000    0.0000000    1.4700000  
H    2.9384090    0.0000368    0.8310761  
H   -0.0296291    0.0004086    5.5027230  
H    4.3270393    0.0004765    3.1139444  
H    2.7280493    0.0013407    5.0442112  
