60

C    9.0408288   -0.0017741   -2.5286851  
C   10.0815799   -0.0036186   -1.6290740  
C   11.2887340   -0.0038679   -2.3889294  
C   10.9186224   -0.0018250   -3.7582139  
N    9.5466953   -0.0025431   -3.8075310  
C   11.8564887   -0.0011667   -4.7951299  
C   13.1923143   -0.0022898   -4.4433531  
O   14.1499157   -0.0013640   -5.4159847  
C   13.5814135   -0.0047059   -3.0826870  
O   14.9482644   -0.0059933   -2.8954332  
C   12.6567302   -0.0056298   -2.0592207  
H    9.9828535   -0.0057617   -0.5570470  
H    8.9961408    0.0090852   -4.6470159  
H   11.5808769    0.0002439   -5.8407106  
H   15.0018122   -0.0027056   -4.9604221  
H   15.1257098   -0.0075777   -1.9498570  
H   12.9847944   -0.0076698   -1.0263376  
C    6.7921791   -0.0024531    1.2037499  
C    5.5119024   -0.0013791    0.7650370  
C    5.6127416   -0.0007798   -0.6862835  
C    7.0661035   -0.0015329   -0.9589054  
N    7.7625298   -0.0025957    0.1451683  
C    7.5891403   -0.0012859   -2.2973817  
C    6.7006579   -0.0007190   -3.3171529  
O    7.0481213   -0.0004247   -4.6153479  
C    5.2278291   -0.0003233   -3.0743868  
O    4.4775289    0.0003121   -4.0502301  
C    4.7161325   -0.0005435   -1.6923264  
H    4.6104190   -0.0011263    1.3535966  
H    6.2020980   -0.0000591   -5.0984586  
H    7.1449933   -0.0031693    2.2228157  
C    3.2573665   -0.0002920   -1.5109385  
C    2.5379463   -0.0001709   -0.3591964  
C    1.1435038    0.0000331   -0.7338500  
C    1.1092599   -0.0000083   -2.2088477  
N    2.4227553    0.0001909   -2.6182613  
C   -0.0265539   -0.0002524   -2.9515660  
C   -1.3003040   -0.0002640   -2.2514977  
O   -2.3786790   -0.0004133   -2.8306421  
C   -1.2877727    0.0000311   -0.6895603  
O   -2.3539959    0.0003306   -0.0892030  
C    0.0000000    0.0000000    0.0000000  
H    2.9384091   -0.0000367    0.6389234  
H   -0.0296303   -0.0004086   -4.0327229  
H    2.7280482   -0.0013407   -3.5742119  
C    0.0000000    0.0000000    1.4700000  
C    1.0662921    0.0000102    2.3034270  
C    0.4961870   -0.0000064    3.6418889  
C   -0.9663858    0.0000850    3.4240247  
N   -1.2632773    0.0000084    2.1528658  
C   -1.8985362    0.0000517    4.5177257  
C   -1.3925775   -0.0004564    5.7720543  
O   -2.1456383   -0.0005410    6.8851312  
C    0.0786232   -0.0009323    6.0245000  
O    0.4683759   -0.0012588    7.1921102  
C    1.0143166   -0.0008442    4.8859032  
H    2.1107198   -0.0000632    2.0421868  
H   -2.9622183    0.0003270    4.3293377  
H   -1.5042274   -0.0009692    7.6184419  
H    2.0724152   -0.0013148    5.1109744  
