60

C   -0.0110808   -2.7884730   -9.7542211  
C   -0.3887837   -1.8685648   -8.8036544  
C   -0.5086693   -0.6108928   -9.4658388  
C   -0.1894585   -0.8271242  -10.8308569  
N    0.1097604   -2.1595545  -10.9712696  
C   -0.2041692    0.1971361  -11.7824153  
C   -0.5476690    1.4626766  -11.3481427  
O   -0.5782138    2.4993194  -12.2355287  
C   -0.8690025    1.6984110   -9.9902071  
O   -1.1897000    3.0116662   -9.7147851  
C   -0.8544336    0.6884806   -9.0508689  
H   -0.5561182   -2.0779929   -7.7609981  
H    0.3638499   -2.6097374  -11.8319401  
H    0.0382431    0.0388805  -12.8242374  
H   -0.8377068    3.2820171  -11.7322264  
H   -1.3934636    3.0848263   -8.7773788  
H    0.1830685   -3.8431781   -9.6600801  
C    0.8351697   -0.7268778   -5.2248488  
C    0.5760704   -0.5103264   -6.5401621  
C   -0.5290498    0.4167164   -6.6044789  
C   -0.8951514    0.7247316   -5.2088119  
N   -0.0307352   -0.0004646   -4.4215603  
C   -1.8962323    1.5652877   -4.8441110  
C   -2.6645245    2.2094353   -5.8964112  
O   -3.5858897    2.9829009   -5.6702747  
C   -2.2943358    1.8976110   -7.3815147  
O   -2.9343337    2.4337813   -8.2760453  
C   -1.1943983    0.9745125   -7.6496164  
H    1.0992703   -0.9499842   -7.3705689  
H   -2.1484159    1.7776630   -3.8144458  
H    1.5856962   -1.3561862   -4.7747704  
C    3.2573670   -0.0002920   -1.5109380  
C    2.5379468   -0.0001709   -0.3591961  
C    1.1435043    0.0000332   -0.7338500  
C    1.1092609   -0.0000082   -2.2088477  
N    2.4227562    0.0001909   -2.6182613  
C   -0.0265532   -0.0002522   -2.9515663  
C   -1.3003035   -0.0002639   -2.2514981  
O   -2.3786784   -0.0004131   -2.8306429  
C   -1.2877725    0.0000312   -0.6895608  
O   -2.3539958    0.0003307   -0.0892036  
C    0.0000000    0.0000000    0.0000000  
H    2.9384091   -0.0000369    0.6389239  
H    4.3270394   -0.0004765   -1.6439446  
H    2.7280494   -0.0013406   -3.5742113  
C    2.4951002    2.0940188    2.9809380  
C    1.9440701    1.6314916    1.8291961  
C    0.8759964    0.7350050    2.2038498  
C    0.8497377    0.7130254    3.6788474  
N    1.8560616    1.5571714    4.0882609  
C   -0.0205033   -0.0168748    4.4215661  
C   -0.9962600   -0.8356168    3.7214979  
O   -1.8224391   -1.5286685    4.3006425  
C   -0.9864710   -0.8277881    2.1595606  
O   -1.8030528   -1.5133726    1.5592035  
C    0.0000000    0.0000000    1.4700000  
H    2.2509283    1.8888011    0.8310761  
H   -0.0229599   -0.0187323    5.5027230  
H    3.3143982    2.7817323    3.1139444  
H    2.0889452    1.7545833    5.0442112  
