62

C   -9.2172029    3.0372242   -2.0884760  
C   -8.0425442    2.3534443   -2.3008207  
C   -8.3893901    0.9866252   -2.5155394  
C   -9.8018164    0.8959895   -2.4219327  
N  -10.2727877    2.1586037   -2.1599976  
C  -10.4946111   -0.3079304   -2.5813100  
C   -9.7479913   -1.4409417   -2.8401947  
O  -10.3737737   -2.6427422   -3.0047711  
C   -8.3378312   -1.3708099   -2.9368786  
O   -7.7375382   -2.5851321   -3.1984388  
C   -7.6536875   -0.1835007   -2.7794921  
H   -7.0568440    2.7863251   -2.2998590  
H  -11.2396195    2.4064352   -2.0513839  
H  -11.5709576   -0.3836914   -2.5110144  
H   -9.6784292   -3.2918012   -3.1735425  
H   -6.7863217   -2.4497579   -3.2480828  
H   -9.3854662    4.0819013   -1.8902427  
C   -4.7116697    2.0166749   -0.4361495  
C   -3.5469198    1.6335912   -1.0090230  
C   -3.9344200    0.7158634   -2.0692678  
C   -5.4100251    0.6590251   -1.9921704  
N   -5.8713514    1.4195632   -1.0367917  
C   -6.1879621   -0.1526693   -2.8871858  
C   -5.5220669   -0.8744603   -3.8172054  
O   -6.1202835   -1.6745700   -4.7160943  
C   -4.0333911   -0.8379428   -3.9205070  
O   -3.4938783   -1.5207102   -4.7911249  
C   -3.2578655    0.0024282   -2.9908505  
H   -2.5481483    1.9364533   -0.7448157  
H   -5.3890858   -2.0506375   -5.2386609  
H   -4.8538691    2.6952265    0.3898774  
C    0.0000000    0.0000000    0.0000000  
C    1.0521666   -0.0011982   -0.8862343  
C    0.4917215   -0.0011996   -2.1979132  
C   -0.9187429    0.0003215   -2.0478682  
N   -1.1833171   -0.0009323   -0.7007913  
C   -1.7951703    0.0010483   -3.1372089  
C   -1.2375841    0.0005313   -4.4010422  
O   -2.0474218    0.0015510   -5.4997578  
C    0.1673576   -0.0013585   -4.5711963  
O    0.5673520   -0.0020735   -5.8915554  
C    1.0325768   -0.0023493   -3.4969892  
H    2.0953056   -0.0030808   -0.6200564  
H   -2.0989778    0.0102529   -0.2891822  
H   -1.4634888    0.0006601   -6.2693595  
H    1.5290707   -0.0033271   -5.9180047  
H    2.1042146   -0.0039770   -3.6584456  
C    3.2798086   -0.0005857    2.9199648  
C    2.5571146   -0.0005566    4.0696553  
C    1.1637436   -0.0001548    3.6910360  
C    1.1336965    0.0000200    2.2159470  
N    2.4483514    0.0001428    1.8102719  
C    0.0000000    0.0000000    1.4700000  
C   -1.2757367    0.0000186    2.1664417  
O   -2.3524596    0.0000640    1.5842315  
C   -1.2676493    0.0000873    3.7284083  
O   -2.3355761    0.0004100    4.3257297  
C    0.0181563   -0.0001760    4.4216297  
H    2.9547357   -0.0006076    5.0689105  
H    0.0150794   -0.0003319    5.5031631  
H    4.3498549   -0.0008612    2.7900019  
H    2.7563627   -0.0012824    0.8551938  
