62

C    5.0640153   -1.1702015   -7.2042098  
C    5.8443250   -0.8069827   -8.2773628  
C    5.6648659    0.5953182   -8.4669578  
C    4.7564908    1.0370652   -7.4711467  
N    4.4099245   -0.0603830   -6.7227373  
C    4.3487874    2.3695508   -7.3569165  
C    4.8677681    3.2726011   -8.2642955  
O    4.5035330    4.5863466   -8.1978304  
C    5.7750465    2.8510328   -9.2652672  
O    6.2019770    3.8689445  -10.0928726  
C    6.1774860    1.5366139   -9.3787183  
H    6.4655139   -1.4712521   -8.8534394  
H    3.6566561    2.7125781   -6.6002868  
H    4.9732706    5.0363921   -8.9120227  
H    6.8111177    3.4998328  -10.7396395  
H    6.8735839    1.2433577  -10.1558459  
H    4.9211782   -2.1333767   -6.7450267  
C    4.5036370   -2.1326438   -2.8248679  
C    4.7893585   -1.6787026   -4.0724159  
C    3.7238697   -0.7792923   -4.4474227  
C    2.7872825   -0.7461956   -3.3079060  
N    3.3172243   -1.5879873   -2.3574126  
C    1.6478437   -0.0100096   -3.2702997  
C    1.3220730    0.8039028   -4.4295905  
O    0.3184858    1.5018525   -4.4926726  
C    2.2995670    0.7839240   -5.6477499  
O    2.0356280    1.4648845   -6.6295283  
C    3.4968679   -0.0493773   -5.5707356  
H    5.6483816   -1.9438144   -4.6626775  
H    5.0598615   -2.8194095   -2.2077319  
H    2.9065383   -1.7759906   -1.4612881  
C    1.1188642    0.0008224   -0.8003808  
C    0.0000000    0.0000000    0.0000000  
C   -1.1323861    0.0008899   -0.8673529  
C   -0.6382661    0.0019681   -2.1969282  
N    0.7324017    0.0038483   -2.1202240  
C   -1.4770912    0.0027320   -3.3154810  
C   -2.8395474    0.0020946   -3.0876860  
O   -3.7039199    0.0024426   -4.1440353  
C   -3.3517867    0.0013927   -1.7684331  
O   -4.7300496    0.0012363   -1.7073125  
C   -2.5248543    0.0009121   -0.6644818  
H   -1.1067568    0.0036992   -4.3313814  
H   -4.5940031    0.0021828   -3.7685133  
H   -4.9934602    0.0007260   -0.7819919  
H   -2.9462579    0.0005600    0.3339656  
H    2.1619896    0.0009357   -0.5342065  
C    0.8400945    0.7047457    2.2710304  
C    0.0000000    0.0000000    1.4700000  
C   -0.8844236   -0.7423113    2.3369512  
C   -0.4878984   -0.4098547    3.7186280  
N    0.5629682    0.4714286    3.6095011  
C   -1.0836927   -0.9095027    4.8308716  
C   -2.1891196   -1.8367527    4.6554461  
O   -2.7906899   -2.3413415    5.5944904  
C   -2.6257283   -2.2031529    3.2011665  
O   -3.5549479   -2.9829990    3.0410059  
C   -1.9068976   -1.5999348    2.0816745  
H   -0.7774656   -0.6525820    5.8354244  
H   -2.2155208   -1.8586617    1.0779135  
H    1.6384792    1.3747609    1.9961646  
H    1.0518368    0.8833920    4.3830260  
