60

C    6.6026400    0.0036982   -2.0975992  
C    6.0022713    0.0029021   -0.8598499  
C    7.0480605    0.0029918    0.1101629  
C    8.2753436    0.0041515   -0.6009651  
N    7.9687389    0.0026042   -1.9391007  
C    9.5192653    0.0048560    0.0373514  
C    9.5243445    0.0046882    1.4187103  
O   10.7112577    0.0057030    2.0926908  
C    8.3102911    0.0031620    2.1459573  
O    8.4823251    0.0027679    3.5148058  
C    7.0827666    0.0021931    1.5169035  
H    4.9411057    0.0012222   -0.6784151  
H    8.6375978    0.0135011   -2.6877594  
H   10.4582216    0.0055965   -0.4988976  
H   10.4911139    0.0050830    3.0333291  
H    7.6146337    0.0017476    3.9303947  
H    6.1696217    0.0008480    2.1005489  
C    2.4521485    0.0014838   -3.7217479  
C    3.4891875    0.0014498   -2.8521906  
C    4.6797447    0.0022555   -3.6882972  
C    4.1623485    0.0025995   -5.0735352  
N    2.8572360    0.0022306   -5.0994557  
C    5.0381743    0.0034466   -6.2128403  
C    6.3703216    0.0043171   -5.9789259  
O    7.3023603    0.0051589   -6.9470914  
C    6.9233382    0.0043694   -4.5924433  
O    8.1464880    0.0050628   -4.4541498  
C    6.0043357    0.0034467   -3.4403323  
H    3.4509653    0.0010310   -1.7762658  
H    4.6326012    0.0034749   -7.2140497  
H    8.1530742    0.0056737   -6.4722873  
C    0.0000000    0.0000000    0.0000000  
C    1.0662924   -0.0000102   -0.8334267  
C    0.4961874    0.0000064   -2.1718888  
C   -0.9663853   -0.0000849   -1.9540250  
N   -1.2632772   -0.0000084   -0.6828660  
C   -1.8985357   -0.0000515   -3.0477261  
C   -1.3925767    0.0004566   -4.3020548  
O   -2.1456375    0.0005411   -5.4151316  
C    0.0786242    0.0009324   -4.5545000  
O    0.4683770    0.0012590   -5.7221099  
C    1.0143173    0.0008443   -3.4159029  
H    2.1107200    0.0000632   -0.5721862  
H   -2.9622180   -0.0003269   -2.8593382  
H   -1.5042262    0.0009694   -6.1484423  
C    1.1319247   -0.0015655    2.2709268  
C    0.7969915   -0.0034943    3.5869401  
C   -0.6453339   -0.0035710    3.6542670  
C   -1.1266833   -0.0015433    2.2596025  
N    0.0000000    0.0000000    1.4700000  
C   -2.4346130   -0.0013964    1.8976294  
C   -3.4350110   -0.0031408    2.9520183  
O   -4.6384611   -0.0030974    2.7283916  
C   -2.9478959   -0.0050506    4.4361073  
O   -3.7809380   -0.0062218    5.3323774  
C   -1.5113823   -0.0053090    4.7012123  
H    1.4821238   -0.0045407    4.4159191  
H   -2.7664565   -0.0000232    0.8686553  
H   -1.1823530   -0.0068408    5.7314848  
H    2.1104316   -0.0009391    1.8188057  
