64

C    5.9112267   -1.0842295   -2.9384485  
C    6.0793931   -1.9701247   -1.8995178  
C    7.4777251   -2.2330002   -1.7987020  
C    8.1181542   -1.4727720   -2.8105469  
N    7.1379002   -0.7884171   -3.4853638  
C    9.5025668   -1.4873524   -3.0054252  
C   10.2541921   -2.2836540   -2.1633202  
O   11.6103158   -2.3347891   -2.3093560  
C    9.6334986   -3.0497116   -1.1480801  
O   10.5177806   -3.7915237   -0.3923663  
C    8.2677663   -3.0360223   -0.9554261  
H    5.2910656   -2.3776974   -1.2900779  
H    7.2925591   -0.1577379   -4.2510696  
H    9.9967530   -0.9103489   -3.7748730  
H   11.9353244   -2.9409549   -1.6309772  
H   10.0178069   -4.2788215    0.2695785  
H    7.8207250   -3.6335223   -0.1695346  
C    3.4023864   -0.7104235   -3.0044223  
C    2.4861704   -0.0045255   -3.7159919  
C    3.2127700    0.7364521   -4.7199047  
C    4.6376135    0.4019570   -4.5335600  
N    4.6849732   -0.4791133   -3.4779262  
C    5.6494131    0.8999194   -5.2885434  
C    5.3126162    1.8273772   -6.3557475  
O    6.1522959    2.3305385   -7.0906405  
C    3.8100580    2.1959219   -6.5709210  
O    3.5143908    2.9759619   -7.4661195  
C    2.8092693    1.5944060   -5.6931666  
H    6.6879996    0.6415175   -5.1353247  
H    1.7711116    1.8546131   -5.8488734  
H    3.2485513   -1.3799905   -2.1738178  
C    0.0000000    0.0000000    0.0000000  
C    1.0521669   -0.0011848   -0.8862341  
C    0.4917221   -0.0011931   -2.1979130  
C   -0.9187427    0.0003100   -2.0478683  
N   -1.1833170   -0.0009472   -0.7007915  
C   -1.7951698    0.0010259   -3.1372090  
C   -1.2375835    0.0005161   -4.4010425  
O   -2.0474208    0.0015256   -5.4997580  
C    0.1673584   -0.0013557   -4.5711962  
O    0.5673529   -0.0020659   -5.8915551  
C    1.0325773   -0.0023359   -3.4969890  
H    2.0953059   -0.0030542   -0.6200560  
H   -2.0989777    0.0102265   -0.2891825  
H   -2.8710930    0.0020274   -3.0295514  
H   -1.4634881    0.0006427   -6.2693593  
H    1.5290715   -0.0033076   -5.9180042  
C    0.0000000    0.0000000    1.4700000  
C    1.0521667    0.0011902    2.3562342  
C    0.4917218    0.0011957    3.6679131  
C   -0.9187428   -0.0003148    3.5178682  
N   -1.1833171    0.0009411    2.1707914  
C   -1.7951701   -0.0010350    4.6072090  
C   -1.2375837   -0.0005224    5.8710424  
O   -2.0474215   -0.0015360    6.9697579  
C    0.1673580    0.0013566    6.0411963  
O    0.5673524    0.0020687    7.3615553  
C    1.0325770    0.0023412    4.9669890  
H    2.0953057    0.0030649    2.0900562  
H   -2.0989778   -0.0102372    1.7591824  
H   -2.8710934   -0.0020419    4.4995513  
H   -1.4634884   -0.0006497    7.7393593  
H    1.5290710    0.0033153    7.3880045  
H    2.1042148    0.0039609    5.1284455  
