64

C   -3.9582754    0.7120022   -2.0436205  
C   -5.3029533    0.4626353   -2.1923657  
C   -5.4396990   -0.4462402   -3.2831662  
C   -4.1334638   -0.7183581   -3.7644436  
N   -3.2578650    0.0024046   -2.9908509  
C   -3.8873043   -1.5782271   -4.8390691  
C   -4.9796586   -2.1744890   -5.4385777  
O   -4.7962363   -3.0231302   -6.4917524  
C   -6.2907034   -1.9152406   -4.9729929  
O   -7.2721847   -2.5844442   -5.6745656  
C   -6.5343101   -1.0668597   -3.9130723  
H   -2.8941504   -1.7896627   -5.2107445  
H   -5.6753437   -3.3236379   -6.7565770  
H   -8.1265772   -2.3544127   -5.2968044  
H   -7.5494840   -0.8874746   -3.5788253  
H   -3.4434890    1.3410042   -1.3377099  
C    0.0000000    0.0000000    0.0000000  
C    1.0521669   -0.0011915   -0.8862343  
C    0.4917220   -0.0011969   -2.1979130  
C   -0.9187427    0.0003147   -2.0478684  
N   -1.1833170   -0.0009408   -0.7007915  
C   -1.7951697    0.0010349   -3.1372093  
C   -1.2375836    0.0005217   -4.4010424  
O   -2.0474212    0.0015352   -5.4997582  
C    0.1673586   -0.0013586   -4.5711963  
O    0.5673528   -0.0020711   -5.8915553  
C    1.0325773   -0.0023433   -3.4969891  
H    2.0953059   -0.0030667   -0.6200562  
H   -2.0989778    0.0102381   -0.2891826  
H   -1.4634883    0.0006485   -6.2693597  
H    1.5290720   -0.0033183   -5.9180043  
H    2.1042158   -0.0039636   -3.6584453  
C   -5.9340324    4.5525708   -0.5000809  
C   -5.4199047    3.4594499   -1.1582804  
C   -6.3363828    2.3846834   -0.9594203  
C   -7.3996810    2.8858792   -0.1656162  
N   -7.1229728    4.2045930    0.0971467  
C   -8.4865335    2.0987974    0.2268667  
C   -8.5003930    0.7818509   -0.1898313  
O   -9.5380511   -0.0309237    0.1646778  
C   -7.4485329    0.2632931   -0.9819840  
O   -7.6074310   -1.0658300   -1.3159417  
C   -6.3758786    1.0391190   -1.3693242  
H   -4.4972053    3.4388961   -1.7125340  
H   -7.7050345    4.8245432    0.6308574  
H   -9.3000123    2.4747631    0.8319327  
H   -9.3527248   -0.8956455   -0.2241341  
H   -6.8549764   -1.3371639   -1.8505385  
H   -5.5459956    5.5525414   -0.4081837  
C    1.0965515   -0.0001358    2.2710304  
C    0.0000000    0.0000000    1.4700000  
C   -1.1546562   -0.0001469    2.3369512  
C   -0.6372014   -0.0003519    3.7186280  
N    0.7342871   -0.0007337    3.6095011  
C   -1.4147739   -0.0001353    4.8308716  
C   -2.8576048    0.0001048    4.6554461  
O   -3.6427778    0.0002493    5.5944904  
C   -3.4275839    0.0000726    3.2011665  
O   -4.6406829   -0.0000333    3.0410059  
C   -2.4891866    0.0001091    2.0816745  
H   -1.0150448   -0.0001615    5.8354244  
H   -2.8919121    0.0002919    1.0779135  
H    2.1388271   -0.0000662    1.9961646  
H    1.3735872    0.0006099    4.3830260  
