60

C    0.7736689   -0.0084052   -8.8309792  
C    1.8497311   -0.6828327   -9.3598493  
C    1.9322025   -0.3205824  -10.7370109  
C    0.8714042    0.5854825  -10.9932913  
N    0.1864243    0.7516723   -9.8152425  
C    0.6470498    1.1506423  -12.2522786  
C    1.5094553    0.7948852  -13.2710390  
O    1.3362422    1.3175528  -14.5199702  
C    2.5734876   -0.1078785  -13.0350949  
O    3.3441047   -0.3625391  -14.1507304  
C    2.7952525   -0.6660182  -11.7933930  
H    2.4951078   -1.3542535   -8.8197792  
H   -0.6117128    1.3470848   -9.6870181  
H   -0.1597288    1.8417041  -12.4541305  
H    2.0354564    0.9436303  -15.0718269  
H    4.0393769   -0.9806503  -13.9054977  
H    3.6183937   -1.3546938  -11.6429181  
C    1.9999920   -2.1070894   -5.1447765  
C    1.9105666   -1.6426499   -6.4177158  
C    0.7784256   -0.7475277   -6.4606979  
C    0.2115581   -0.7283877   -5.0986826  
N    0.9973787   -1.5733448   -4.3494003  
C   -0.8712826    0.0001710   -4.7267111  
C   -1.5219794    0.8200159   -5.7351665  
O   -2.5037636    1.5119150   -5.4992073  
C   -0.9387698    0.8148042   -7.1841818  
O   -1.4783588    1.5008662   -8.0417492  
C    0.2330301   -0.0112906   -7.4640107  
H    2.5631035   -1.8981148   -7.2335263  
H    2.7138547   -2.7945388   -4.7208620  
H    0.8643845   -1.7702172   -3.3744128  
C    1.0965514    0.0001359   -0.8010305  
C    0.0000000    0.0000000    0.0000000  
C   -1.1546563    0.0001470   -0.8669513  
C   -0.6372014    0.0003519   -2.2486282  
N    0.7342871    0.0007337   -2.1395014  
C   -1.4147739    0.0001352   -3.3608717  
C   -2.8576049   -0.0001048   -3.1854462  
O   -3.6427779   -0.0002494   -4.1244907  
C   -3.4275840   -0.0000725   -1.7311666  
O   -4.6406831    0.0000333   -1.5710060  
C   -2.4891867   -0.0001091   -0.6116744  
H   -2.8919122   -0.0002918    0.3920866  
H    2.1388272    0.0000663   -0.5261648  
H    1.3735872   -0.0006099   -2.9130262  
C    2.5128556    2.1077716    2.9199648  
C    1.9592212    1.6432552    4.0696553  
C    0.8915788    0.7479214    3.6910360  
C    0.8684491    0.7287414    2.2159470  
N    1.8754542    1.5738793    1.8102719  
C    0.0000000    0.0000000    1.4700000  
C   -0.9772830   -0.8200135    2.1664417  
O   -1.8021297   -1.5120829    1.5842315  
C   -0.9711318   -0.8147624    3.7284083  
O   -1.7894187   -1.5009653    4.3257297  
C    0.0140216    0.0115358    4.4216297  
H    2.2638494    1.8988021    5.0689105  
H    0.0117648    0.0094386    5.5031631  
H    3.3327358    2.7953732    2.7900019  
H    2.1123206    1.7707734    0.8551938  
