62

C    5.0754590   -0.9772764   -7.1740087  
C    5.8275858   -0.5600725   -8.2476537  
C    5.6107757    0.8427545   -8.3879026  
C    4.7097107    1.2291715   -7.3628703  
N    4.4032212    0.0996957   -6.6452588  
C    4.2718360    2.5466893   -7.1979434  
C    4.7525703    3.4913853   -8.0837320  
O    4.3577538    4.7928122   -7.9678889  
C    5.6519568    3.1252703   -9.1132375  
O    6.0393037    4.1798492   -9.9139677  
C    6.0841451    1.8256478   -9.2767022  
H    6.4544342   -1.1896117   -8.8557128  
H    3.5850810    2.8476219   -6.4188355  
H    4.8036957    5.2773786   -8.6747104  
H    6.6456853    3.8472187  -10.5827446  
H    6.7732932    1.5752096  -10.0747222  
H    4.9642217   -1.9581236   -6.7444463  
C    4.6667238   -2.1196647   -2.8289933  
C    3.4946425   -1.6582114   -2.2760432  
C    2.9083433   -0.7691298   -3.2249305  
C    3.7749402   -0.7275420   -4.3470738  
N    4.8336460   -1.5573523   -4.0728946  
C    3.5107105    0.0505387   -5.4782509  
C    2.3503688    0.8000601   -5.4767268  
O    2.0434903    1.5773554   -6.5559172  
C    1.4732999    0.7720842   -4.3664188  
O    0.3602106    1.5731440   -4.5170175  
C    1.7334695    0.0049281   -3.2500363  
H    3.1101422   -1.9282393   -1.3074166  
H    5.6044926   -1.7379800   -4.6902684  
H    1.2045556    2.0102696   -6.3508820  
H   -0.1790694    1.4967106   -3.7239606  
H    5.3975655   -2.8043086   -2.4339086  
C    1.1319246    0.0015678   -0.8009268  
C    0.7969914    0.0034958   -2.1169401  
C   -0.6453340    0.0035696   -2.1842669  
C   -1.1266832    0.0015410   -0.7896025  
N    0.0000000    0.0000000    0.0000000  
C   -2.4346129    0.0013913   -0.4276292  
C   -3.4350111    0.0031335   -1.4820181  
O   -4.6384614    0.0030875   -1.2583914  
C   -2.9478961    0.0050442   -2.9661074  
O   -3.7809382    0.0062135   -3.8623773  
C   -1.5113825    0.0053055   -3.2312122  
H   -2.7664565    0.0000174    0.6013448  
H   -1.1823533    0.0068381   -4.2614848  
H    2.1104316    0.0009435   -0.3488059  
C    2.3971438    2.0127888    3.1728260  
C    1.9431056    1.6308205    1.9564670  
C    0.8496017    0.7127664    2.2356185  
C    0.7794028    0.6545384    3.7115134  
N    1.6840587    1.4146091    4.2663826  
C   -0.1885723   -0.1578550    4.3957118  
C   -1.0476298   -0.8789867    3.6398520  
O   -2.0015663   -1.6796266    4.1448486  
C   -1.0022026   -0.8410666    2.1483229  
O   -1.8147390   -1.5232959    1.5241687  
C    0.0000000    0.0000000    1.4700000  
H    2.3054237    1.9346118    0.9892483  
H   -0.2170646   -0.1815267    5.4753125  
H   -2.4487139   -2.0549881    3.3649027  
H    3.2048689    2.6911772    3.3971983  
