62

C   -3.6195469    0.0022384   -6.9392765  
C   -4.2485740    0.0021735   -5.7158418  
C   -5.6522551    0.0019051   -5.9693747  
C   -5.8208183    0.0015286   -7.3777469  
N   -4.5667811    0.0036941   -7.9363188  
C   -7.0782998    0.0008881   -7.9889173  
C   -8.1857922    0.0003160   -7.1633042  
O   -9.4375483   -0.0006725   -7.7074728  
C   -8.0380633    0.0010546   -5.7558264  
O   -9.2358312    0.0007699   -5.0712123  
C   -6.7978362    0.0019598   -5.1522037  
H   -3.7562780    0.0034088   -4.7584306  
H   -4.3699328   -0.0065820   -8.9207619  
H   -7.2135094    0.0007427   -9.0617270  
H  -10.0573969   -0.0006296   -6.9664921  
H   -9.0469531    0.0012833   -4.1278520  
H   -6.7160249    0.0026927   -4.0715626  
C   -0.1387078    0.0017019   -4.3179684  
C    0.8847660    0.0023481   -5.2034512  
C    0.2487273    0.0030114   -6.5118679  
C   -1.2011843    0.0025369   -6.2214541  
N   -1.4344177    0.0018496   -4.9370897  
C   -2.1866330    0.0030151   -7.2673875  
C   -1.7437539    0.0043151   -8.5453517  
O   -2.5512997    0.0048875   -9.6195531  
C   -0.2869469    0.0051951   -8.8707332  
O    0.0441882    0.0062441  -10.0563002  
C    0.7042757    0.0046374   -7.7801358  
H    1.9409051    0.0024623   -4.9945362  
H   -1.9471952    0.0058403  -10.3838892  
H    1.7498559    0.0054230   -8.0576094  
C    3.3041272    0.0001178   -1.5420428  
C    2.5845372   -0.0004779   -0.3695851  
C    1.2040007   -0.0000007   -0.7283589  
C    1.1422375    0.0006038   -2.1454371  
N    2.4348641    0.0026111   -2.6077464  
C   -0.0655179    0.0008799   -2.8497918  
C   -1.2321766    0.0002325   -2.1101402  
O   -2.4392816    0.0001148   -2.7472523  
C   -1.1911209   -0.0000007   -0.6955266  
O   -2.4371527   -0.0002320   -0.1032863  
C    0.0000000    0.0000000    0.0000000  
H    3.0031533   -0.0000660    0.6222584  
H    2.7054632   -0.0071097   -3.5745261  
H   -3.1132986   -0.0000648   -2.0551788  
H   -2.3200284   -0.0004071    0.8516409  
H    4.3686626    0.0004072   -1.7024289  
C    0.8681109    0.7263879    2.2709268  
C    0.6127770    0.5096195    3.5869401  
C   -0.4920590   -0.4175482    3.6542670  
C   -0.8620974   -0.7254003    2.2596025  
N    0.0000000    0.0000000    1.4700000  
C   -1.8641242   -1.5660088    1.8976294  
C   -2.6293522   -2.2103885    2.9520183  
O   -3.5512764   -2.9839180    2.7283916  
C   -2.2549728   -1.8987399    4.4361073  
O   -2.8923672   -2.4351063    5.3323774  
C   -1.1543735   -0.9755647    4.7012123  
H    1.1382914    0.9492124    4.4159191  
H   -2.1192137   -1.7782617    0.8686553  
H   -0.9013378   -0.7652422    5.7314848  
H    1.6172880    1.3558399    1.8188057  
