62

C    3.3041268    0.0001186   -1.5420437  
C    2.5845371   -0.0004775   -0.3695863  
C    1.2040003   -0.0000004   -0.7283592  
C    1.1422368    0.0006048   -2.1454375  
N    2.4348632    0.0026121   -2.6077469  
C   -0.0655188    0.0008807   -2.8497919  
C   -1.2321774    0.0002332   -2.1101395  
O   -2.4392822    0.0001156   -2.7472514  
C   -1.1911212   -0.0000004   -0.6955259  
O   -2.4371526   -0.0002318   -0.1032858  
C    0.0000000    0.0000000    0.0000000  
H    3.0031536   -0.0000659    0.6222571  
H    2.7054619   -0.0071085   -3.5745269  
H   -3.1132992   -0.0000643   -2.0551780  
H   -2.3200279   -0.0004073    0.8516411  
H    4.3686614    0.0004080   -1.7024305  
C    0.6366692   -0.6835170   -5.1902309  
C   -0.1387092    0.0017031   -4.3179684  
C   -1.0703988    0.7474291   -5.1500426  
C   -0.7050169    0.3844183   -6.5361532  
N    0.2949319   -0.4541525   -6.5660152  
C   -1.4022849    0.9213000   -7.6722260  
C   -2.4186296    1.7814191   -7.4343750  
O   -3.1551543    2.3581693   -8.3992230  
C   -2.8115384    2.1670324   -6.0469005  
O   -3.7463652    2.9551774   -5.9049579  
C   -2.0808439    1.6027575   -4.8981605  
H   -3.7968976    2.9146218   -7.9220662  
H   -2.3963422    1.9071172   -3.9091933  
H    1.4504351   -1.3557451   -4.9691702  
C   -0.1672155   -2.9319027   -9.3783251  
C    0.0395531   -2.5517849  -10.6655051  
C   -0.2551412   -1.1402533  -10.7401411  
C   -0.6533722   -0.7262095   -9.3811818  
N   -0.5795263   -1.8585838   -8.6032588  
C   -1.0097458    0.5368555   -9.0356829  
C   -1.0006857    1.5564950  -10.0714380  
O   -1.3054982    2.7230537   -9.8604155  
C   -0.5825324    1.1403656  -11.5177402  
O   -0.5714156    1.9901007  -12.3981308  
C   -0.2188766   -0.2521419  -11.7677997  
H    0.3615706   -3.1876767  -11.4708359  
H    0.0696513   -0.5320609  -12.7718520  
H   -0.0532831   -3.9058713   -8.9307824  
H   -0.7904957   -1.8986614   -7.6229869  
C    2.5311839    2.1237619    3.0120429  
C    1.9795631    1.6616747    1.8395852  
C    0.9223175    0.7739173    2.1983588  
C    0.8753926    0.7337535    3.6154372  
N    1.8668922    1.5631002    4.0777464  
C   -0.0496243   -0.0427881    4.3197917  
C   -0.9437528   -0.7922060    3.5801400  
O   -1.8685244   -1.5680278    4.2172520  
C   -0.9124520   -0.7656372    2.1655264  
O   -1.8671164   -1.5663939    1.5732860  
C    0.0000000    0.0000000    1.4700000  
H    2.3005065    1.9304404    0.8477417  
H    2.0679347    1.7444845    5.0445261  
H   -0.0904770   -0.0778569    5.3997470  
H   -2.3849669   -2.0011402    3.5251786  
H   -1.7775064   -1.4909735    0.6183591  
H    3.3468514    2.8078103    3.1724291  
