60

C   -1.6575673    2.1187518   -6.0840751  
C   -2.3521323    1.6188351   -7.1611682  
C   -1.4670600    0.7432460   -7.8572936  
C   -0.2363160    0.7487092   -7.1521954  
N   -0.3856965    1.5955982   -6.0821101  
C    0.8698757   -0.0050876   -7.5558273  
C    0.7310125   -0.7787235   -8.6917772  
O    1.7796455   -1.5345244   -9.1301242  
C   -0.4888198   -0.7971334   -9.4090544  
O   -0.4688985   -1.6168147  -10.5185901  
C   -1.5804313   -0.0535374   -9.0115933  
H   -3.3709854    1.8569116   -7.4146470  
H    0.3193655    1.7925641   -5.3950346  
H    1.4744252   -1.9896814   -9.9256977  
H   -1.3299052   -1.5717921  -10.9454916  
H   -2.5016742   -0.0877193   -9.5813495  
H   -1.9683300    2.8082083   -5.3178934  
C    1.6707638   -0.0012342   -3.2725973  
C    3.0236194   -0.0024591   -3.2357227  
C    3.4368536   -0.0041813   -4.6306186  
C    2.1706892   -0.0038457   -5.3944323  
N    1.1320373   -0.0020398   -4.6037431  
C    2.1489264   -0.0051902   -6.8313076  
C    3.3380085   -0.0064082   -7.4758355  
O    3.4666346   -0.0077442   -8.8135556  
C    4.6328546   -0.0064066   -6.7331821  
O    5.6771187   -0.0076791   -7.3848966  
C    4.6287467   -0.0050571   -5.2594432  
H    3.6622535   -0.0021326   -2.3689922  
H    4.4282060   -0.0083574   -8.9701849  
H    5.5877287   -0.0049857   -4.7588595  
C    1.0965515    0.0001359   -0.8010305  
C    0.0000000    0.0000000    0.0000000  
C   -1.1546564    0.0001470   -0.8669509  
C   -0.6372018    0.0003521   -2.2486279  
N    0.7342868    0.0007339   -2.1395011  
C   -1.4147743    0.0001355   -3.3608714  
C   -2.8576049   -0.0001046   -3.1854455  
O   -3.6427782   -0.0002491   -4.1244898  
C   -3.4275842   -0.0000725   -1.7311664  
O   -4.6406831    0.0000334   -1.5710053  
C   -2.4891868   -0.0001091   -0.6116742  
H   -1.0150456    0.0001619   -4.3654242  
H   -2.8919123   -0.0002920    0.3920869  
H    2.1388270    0.0000663   -0.5261648  
C    2.3971438    2.0127888    3.1728260  
C    1.9431056    1.6308205    1.9564670  
C    0.8496017    0.7127664    2.2356185  
C    0.7794028    0.6545384    3.7115134  
N    1.6840587    1.4146091    4.2663826  
C   -0.1885723   -0.1578550    4.3957118  
C   -1.0476298   -0.8789867    3.6398520  
O   -2.0015663   -1.6796266    4.1448486  
C   -1.0022026   -0.8410666    2.1483229  
O   -1.8147390   -1.5232959    1.5241687  
C    0.0000000    0.0000000    1.4700000  
H    2.3054237    1.9346118    0.9892483  
H   -0.2170646   -0.1815267    5.4753125  
H   -2.4487139   -2.0549881    3.3649027  
H    3.2048689    2.6911772    3.3971983  
