62

C    6.5186803   -3.2973172   -4.9498955  
C    7.6113655   -3.2641576   -5.7850043  
C    7.7383280   -1.9221832   -6.2514630  
C    6.6862867   -1.1753812   -5.6620383  
N    5.9635203   -2.0410721   -4.8792196  
C    6.5027385    0.1901136   -5.8997851  
C    7.3977008    0.8131300   -6.7477649  
O    7.2649466    2.1451918   -7.0142245  
C    8.4536335    0.0849488   -7.3457419  
O    9.2599805    0.8471965   -8.1655747  
C    8.6351512   -1.2622253   -7.1118628  
H    8.2389937   -4.1041400   -6.0289427  
H    5.7028438    0.7649366   -5.4537474  
H    7.9816933    2.3752860   -7.6196947  
H    9.9470148    0.2801186   -8.5289063  
H    9.4530620   -1.7935530   -7.5842928  
H    6.0905524   -4.1179897   -4.4002026  
C    4.5036373   -2.1326439   -2.8248684  
C    4.7893585   -1.6787026   -4.0724159  
C    3.7238699   -0.7792921   -4.4474232  
C    2.7872825   -0.7461954   -3.3079060  
N    3.3172247   -1.5879875   -2.3574129  
C    1.6478437   -0.0100096   -3.2702997  
C    1.3220730    0.8039029   -4.4295905  
O    0.3184858    1.5018527   -4.4926723  
C    2.2995670    0.7839241   -5.6477499  
O    2.0356283    1.4648846   -6.6295287  
C    3.4968677   -0.0493772   -5.5707357  
H    4.1686398   -0.0574745   -6.4183091  
H    5.0598611   -2.8194093   -2.2077322  
H    2.9065386   -1.7759907   -1.4612885  
C    1.1188642    0.0008224   -0.8003808  
C    0.0000000    0.0000000    0.0000000  
C   -1.1323861    0.0008899   -0.8673529  
C   -0.6382661    0.0019681   -2.1969282  
N    0.7324017    0.0038483   -2.1202240  
C   -1.4770912    0.0027320   -3.3154810  
C   -2.8395474    0.0020946   -3.0876860  
O   -3.7039199    0.0024426   -4.1440353  
C   -3.3517867    0.0013927   -1.7684331  
O   -4.7300496    0.0012363   -1.7073125  
C   -2.5248543    0.0009121   -0.6644818  
H   -1.1067568    0.0036992   -4.3313814  
H   -4.5940031    0.0021828   -3.7685133  
H   -4.9934602    0.0007260   -0.7819919  
H   -2.9462579    0.0005600    0.3339656  
H    2.1619896    0.0009357   -0.5342065  
C    2.3971438    2.0127888    3.1728260  
C    1.9431056    1.6308205    1.9564670  
C    0.8496017    0.7127664    2.2356185  
C    0.7794028    0.6545384    3.7115134  
N    1.6840587    1.4146091    4.2663826  
C   -0.1885723   -0.1578550    4.3957118  
C   -1.0476298   -0.8789867    3.6398520  
O   -2.0015663   -1.6796266    4.1448486  
C   -1.0022026   -0.8410666    2.1483229  
O   -1.8147390   -1.5232959    1.5241687  
C    0.0000000    0.0000000    1.4700000  
H    2.3054237    1.9346118    0.9892483  
H   -0.2170646   -0.1815267    5.4753125  
H   -2.4487139   -2.0549881    3.3649027  
H    3.2048689    2.6911772    3.3971983  
