64

C   -1.6631884    0.0132351   -3.2649299  
C   -3.0377500    0.0531543   -3.3030573  
C   -3.4163511    0.0513446   -4.6782877  
C   -2.2200871    0.0088650   -5.4392565  
N   -1.1743081   -0.0114765   -4.5501278  
C   -2.2131798   -0.0048390   -6.8373100  
C   -3.4361816    0.0245745   -7.4788534  
O   -3.4871877    0.0125355   -8.8427692  
C   -4.6406396    0.0674804   -6.7370601  
O   -5.7756116    0.0932887   -7.5209695  
C   -4.6481996    0.0812952   -5.3578289  
H   -3.6875895    0.0813502   -2.4452074  
H   -0.2023312   -0.0525611   -4.7982288  
H   -4.4230066    0.0378454   -9.0812401  
H   -6.5440340    0.1216697   -6.9427607  
H   -5.5866322    0.1145426   -4.8167951  
C   -1.1241732    0.0218656   -0.7919004  
C   -0.7477726   -0.0022700   -2.1148544  
C    0.6778007   -0.0426689   -2.1414702  
C    1.1194454   -0.0415911   -0.7935547  
N    0.0000000    0.0000000    0.0000000  
C    2.4719083   -0.0764335   -0.4408242  
C    3.3953471   -0.1133377   -1.4675068  
O    4.7290384   -0.1486647   -1.1793476  
C    2.9743095   -0.1146623   -2.8186328  
O    4.0139149   -0.1532922   -3.7247631  
C    1.6402470   -0.0800283   -3.1673483  
H    2.8150026   -0.0756715    0.5845959  
H    5.1911421   -0.1702262   -2.0274391  
H    3.6436362   -0.1515186   -4.6127351  
H    1.3479693   -0.0818092   -4.2109238  
H   -2.1055512    0.0543928   -0.3505404  
C    0.1376544   -0.7972122   -7.3395164  
C   -0.9783670   -0.0485968   -7.6336911  
C   -0.6982016    0.6604444   -8.8392481  
C    0.6148654    0.3013242   -9.2377632  
N    1.0943059   -0.5836350   -8.3041675  
C    1.2223279    0.8124616  -10.3886397  
C    0.4908201    1.7021061  -11.1512711  
O    1.0357535    2.2313427  -12.2852771  
C   -0.8206164    2.0729536  -10.7699260  
O   -1.4182024    2.9682509  -11.6328736  
C   -1.4204216    1.5693074   -9.6345408  
H    1.9983779   -1.0195849   -8.3283015  
H    2.2228096    0.5428504  -10.6977480  
H    0.3674884    2.8194090  -12.6605964  
H   -2.3000547    3.1661889  -11.3030849  
H   -2.4262529    1.8719775   -9.3677582  
H    0.3274831   -1.4655135   -6.5171431  
C    0.8400945    0.7047457    2.2710304  
C    0.0000000    0.0000000    1.4700000  
C   -0.8844236   -0.7423113    2.3369512  
C   -0.4878984   -0.4098547    3.7186280  
N    0.5629682    0.4714286    3.6095011  
C   -1.0836927   -0.9095027    4.8308716  
C   -2.1891196   -1.8367527    4.6554461  
O   -2.7906899   -2.3413415    5.5944904  
C   -2.6257283   -2.2031529    3.2011665  
O   -3.5549479   -2.9829990    3.0410059  
C   -1.9068976   -1.5999348    2.0816745  
H   -0.7774656   -0.6525820    5.8354244  
H   -2.2155208   -1.8586617    1.0779135  
H    1.6384792    1.3747609    1.9961646  
H    1.0518368    0.8833920    4.3830260  
