64

C    2.0773321   -4.6161025   -6.5985291  
C    1.3222869   -3.5098742   -6.2844690  
C    1.7610465   -2.4514337   -7.1340535  
C    2.7943008   -2.9756379   -7.9522964  
N    2.9624340   -4.2917558   -7.5998992  
C    3.4604507   -2.2090482   -8.9132198  
C    3.0763341   -0.8893164   -9.0508437  
O    3.6935028   -0.0959606   -9.9742639  
C    2.0477993   -0.3479478   -8.2434712  
O    1.7808637    0.9810059   -8.5003179  
C    1.3903781   -1.1035500   -7.2951091  
H    0.5509926   -3.4703269   -5.5344464  
H    3.6199391   -4.9250111   -8.0178171  
H    4.2488683   -2.6026003   -9.5398907  
H    3.2802483    0.7745812   -9.9061255  
H    1.0749538    1.2684260   -7.9132195  
H    2.0555165   -5.6104332   -6.1864742  
C    0.1164998   -0.7216400   -5.1523583  
C    0.3272678   -0.5036903   -6.4760463  
C   -0.6879590    0.4235563   -6.9169129  
C   -1.5133671    0.7301674   -5.7330708  
N   -0.9736297    0.0040464   -4.6965763  
C   -2.5790089    1.5704692   -5.7354640  
C   -2.9370249    2.2158046   -6.9876223  
O   -3.8800066    2.9891499   -7.0926168  
C   -2.0769102    1.9054768   -8.2539972  
O   -2.3689469    2.4426557   -9.3139092  
C   -0.9518103    0.9825202   -8.1269043  
H   -3.1711467    1.7818063   -4.8559076  
H   -0.3611580    0.7731148   -9.0083816  
H    0.6657026   -1.3515088   -4.4715271  
C    1.1188642    0.0008222   -0.8003808  
C    0.0000000    0.0000000    0.0000000  
C   -1.1323862    0.0008899   -0.8673528  
C   -0.6382663    0.0019679   -2.1969280  
N    0.7324016    0.0038481   -2.1202242  
C   -1.4770914    0.0027318   -3.3154808  
C   -2.8395473    0.0020945   -3.0876857  
O   -3.7039201    0.0024425   -4.1440349  
C   -3.3517868    0.0013931   -1.7684331  
O   -4.7300497    0.0012366   -1.7073121  
C   -2.5248543    0.0009123   -0.6644817  
H    1.3576314   -0.0056167   -2.9057046  
H   -4.5940032    0.0021826   -3.7685128  
H   -4.9934602    0.0007259   -0.7819913  
H   -2.9462577    0.0005603    0.3339659  
H    2.1619895    0.0009355   -0.5342068  
C    2.5311839    2.1237619    3.0120429  
C    1.9795631    1.6616747    1.8395852  
C    0.9223175    0.7739173    2.1983588  
C    0.8753926    0.7337535    3.6154372  
N    1.8668922    1.5631002    4.0777464  
C   -0.0496243   -0.0427881    4.3197917  
C   -0.9437528   -0.7922060    3.5801400  
O   -1.8685244   -1.5680278    4.2172520  
C   -0.9124520   -0.7656372    2.1655264  
O   -1.8671164   -1.5663939    1.5732860  
C    0.0000000    0.0000000    1.4700000  
H    2.3005065    1.9304404    0.8477417  
H    2.0679347    1.7444845    5.0445261  
H   -0.0904770   -0.0778569    5.3997470  
H   -2.3849669   -2.0011402    3.5251786  
H   -1.7775064   -1.4909735    0.6183591  
H    3.3468514    2.8078103    3.1724291  
