62

C   -3.9849596    0.7194519   -1.9554403  
C   -3.2941075    0.0012873   -2.9038235  
C   -4.2599432   -0.7263565   -3.6603265  
C   -5.5339713   -0.4094414   -3.1233509  
N   -5.3307339    0.4693513   -2.0884424  
C   -6.7219956   -0.9483828   -3.6262728  
C   -6.6220979   -1.8229489   -4.6908535  
O   -7.7507709   -2.3779977   -5.2209800  
C   -5.3599666   -2.1517858   -5.2401317  
O   -5.4269547   -3.0368199   -6.2963369  
C   -4.1875175   -1.6206946   -4.7443178  
H   -6.0533077    0.8783790   -1.5240270  
H   -7.6961102   -0.7109762   -3.2213776  
H   -7.4604453   -2.9495358   -5.9436967  
H   -4.5328204   -3.2058806   -6.6086603  
H   -3.2354103   -1.8913641   -5.1855753  
H   -3.6241065    1.3891889   -1.1937339  
C    0.0000000    0.0000000    0.0000000  
C    1.0541688   -0.0001722   -0.8560392  
C    0.5103135   -0.0000454   -2.1935954  
C   -0.9576375    0.0002459   -2.0455728  
N   -1.2018462   -0.0001392   -0.6915966  
C   -1.8348315    0.0008316   -3.0810604  
C   -1.2972851    0.0009737   -4.4314603  
O   -2.0050681    0.0014265   -5.4301316  
C    0.2542617    0.0004185   -4.6117570  
O    0.7184664    0.0002257   -5.7439119  
C    1.0974549    0.0000874   -3.4189129  
H    2.0940751   -0.0005482   -0.5817983  
H   -2.1128195    0.0014911   -0.2706785  
C    4.3304646   -2.1219089   -1.2732989  
C    5.3835927   -1.6226244   -2.0041232  
C    4.8312730   -0.7479127   -2.9861734  
C    3.4245689   -0.7532348   -2.8042910  
N    3.1541554   -1.5992005   -1.7574694  
C    2.5562209   -0.0001551   -3.6003007  
C    3.1181940    0.7726055   -4.5979003  
O    2.3162976    1.5276815   -5.4040250  
C    4.5194615    0.7908606   -4.7952161  
O    4.9245909    1.6096321   -5.8290571  
C    5.3766891    0.0479714   -4.0104850  
H    6.4220542   -1.8605489   -1.8492591  
H    2.2402064   -1.7958553   -1.3914017  
H    2.9020995    1.9822982   -6.0232382  
H    5.8833591    1.5645647   -5.8949091  
H    6.4456639    0.0820134   -4.1854490  
H    4.3252214   -2.8106332   -0.4458991  
C    1.0965515   -0.0001358    2.2710304  
C    0.0000000    0.0000000    1.4700000  
C   -1.1546562   -0.0001469    2.3369512  
C   -0.6372014   -0.0003519    3.7186280  
N    0.7342871   -0.0007337    3.6095011  
C   -1.4147739   -0.0001353    4.8308716  
C   -2.8576048    0.0001048    4.6554461  
O   -3.6427778    0.0002493    5.5944904  
C   -3.4275839    0.0000726    3.2011665  
O   -4.6406829   -0.0000333    3.0410059  
C   -2.4891866    0.0001091    2.0816745  
H   -1.0150448   -0.0001615    5.8354244  
H   -2.8919121    0.0002919    1.0779135  
H    2.1388271   -0.0000662    1.9961646  
H    1.3735872    0.0006099    4.3830260  
