62

C    8.7184388   -0.0009991   -0.3845226  
C    8.1180696   -0.0002780    0.8532268  
C    9.1638594   -0.0000798    1.8232394  
C   10.3911418   -0.0004205    1.1121113  
N   10.0845357   -0.0029270   -0.2260226  
C   11.6350648   -0.0000406    1.7504271  
C   11.6401443    0.0010037    3.1317857  
O   12.8270571    0.0017659    3.8057654  
C   10.4260903    0.0009827    3.8590332  
O   10.5981244    0.0016708    5.2278819  
C    9.1985648    0.0003349    3.2299803  
H    7.0569036   -0.0010421    1.0346625  
H   10.7534029    0.0068342   -0.9746906  
H   12.5740212   -0.0004412    1.2141781  
H   12.6069142    0.0021306    4.7464041  
H    9.7304317    0.0016345    5.6434714  
H    8.2854194    0.0001541    3.8136263  
C    4.5679461   -0.0016854   -2.0086701  
C    5.6049853   -0.0016931   -1.1391129  
C    6.7955420   -0.0024716   -1.9752194  
C    6.2781462   -0.0029781   -3.3604576  
N    4.9730339   -0.0024398   -3.3863778  
C    7.1539718   -0.0037578   -4.4997622  
C    8.4861199   -0.0036307   -4.2658482  
O    9.4181587   -0.0043052   -5.2340138  
C    9.0391358   -0.0027522   -2.8793659  
O   10.2622858   -0.0028087   -2.7410729  
C    8.1201341   -0.0020061   -1.7272553  
H    5.5667631   -0.0011377   -0.0631881  
H    6.7483985   -0.0043217   -5.5009716  
H   10.2688728   -0.0039787   -4.7592102  
C    3.1301149   -0.0010311   -1.7028252  
C    2.5367768   -0.0002767   -0.4864665  
C    1.1089904    0.0001028   -0.7656183  
C    1.0177872   -0.0004148   -2.2415132  
N    2.1993578   -0.0011611   -2.7963820  
C   -0.2459209   -0.0002877   -2.9257118  
C   -1.3675319   -0.0000605   -2.1698524  
O   -2.6129313    0.0000867   -2.6748490  
C   -1.3083584    0.0000910   -0.6783232  
O   -2.3693261    0.0004206   -0.0541692  
C    0.0000000    0.0000000    0.0000000  
H    3.0096017   -0.0001007    0.4807525  
H   -0.2829630   -0.0004687   -4.0053125  
H   -3.1967441    0.0002094   -1.8949034  
C    0.8576279    0.7185626    2.2703808  
C    0.0000000    0.0000000    1.4700000  
C   -0.8668858   -0.7285659    2.3373528  
C   -0.4876752   -0.4117774    3.6669281  
N    0.5635254    0.4678311    3.5902241  
C   -1.1297612   -0.9515493    4.7854808  
C   -2.1738724   -1.8268314    4.5576857  
O   -2.8357962   -2.3827064    5.6140350  
C   -2.5667212   -2.1555554    3.2384331  
O   -3.6226318   -3.0413663    3.1773122  
C   -1.9335634   -1.6236449    2.1344818  
H    1.0363952    0.8769718    4.3757045  
H   -0.8454472   -0.7142436    5.8013813  
H   -3.5178062   -2.9546422    5.2385129  
H   -3.8247440   -3.2102924    2.2519915  
H   -2.2566033   -1.8942483    1.1360343  
H    1.6567807    1.3889844    2.0042067  
