64

C    8.7105012   -0.0061836    0.3163157  
C    7.9365276   -0.0086415    1.4536046  
C    8.8301485   -0.0110138    2.5653768  
C   10.1477940   -0.0095741    2.0402734  
N   10.0390320   -0.0085940    0.6717757  
C   11.2856743   -0.0109147    2.8526875  
C   11.0898302   -0.0134535    4.2200999  
O   12.1661217   -0.0145013    5.0595103  
C    9.7829281   -0.0152973    4.7630742  
O    9.7540839   -0.0181684    6.1423872  
C    8.6599246   -0.0142495    3.9622082  
H    6.8602578   -0.0098206    1.4788002  
H   10.8096516    0.0030741    0.0283564  
H   12.2926280   -0.0099735    2.4586780  
H   11.8115360   -0.0165648    5.9581375  
H    8.8351825   -0.0192373    6.4273827  
H    7.6716143   -0.0158962    4.4068631  
C    4.7161325   -0.0005435   -1.6923264  
C    5.7254240   -0.0020825   -0.7575556  
C    6.9579238   -0.0022074   -1.4755697  
C    6.6349842   -0.0004069   -2.8567408  
N    5.2655550   -0.0013827   -2.9530733  
C    7.6078556    0.0002912   -3.8608872  
C    8.9308324   -0.0005421   -3.4635103  
O    9.9212236    0.0004354   -4.4027326  
C    9.2730455   -0.0027137   -2.0903014  
O   10.6326707   -0.0037267   -1.8562871  
C    8.3138092   -0.0036767   -1.0991450  
H    5.5899958   -0.0041074    0.3104558  
H    4.7441078    0.0100377   -3.8109451  
H    7.3682591    0.0015184   -4.9153037  
H   10.7569961   -0.0006922   -3.9182260  
H   10.7775870   -0.0051581   -0.9051820  
C    3.2573665   -0.0002920   -1.5109385  
C    2.5379463   -0.0001709   -0.3591964  
C    1.1435038    0.0000331   -0.7338500  
C    1.1092599   -0.0000083   -2.2088477  
N    2.4227553    0.0001909   -2.6182613  
C   -0.0265539   -0.0002524   -2.9515660  
C   -1.3003040   -0.0002640   -2.2514977  
O   -2.3786790   -0.0004133   -2.8306421  
C   -1.2877727    0.0000311   -0.6895603  
O   -2.3539959    0.0003306   -0.0892030  
C    0.0000000    0.0000000    0.0000000  
H    2.9384091   -0.0000367    0.6389234  
H   -0.0296303   -0.0004086   -4.0327229  
H    2.7280482   -0.0013407   -3.5742119  
C    0.8576279    0.7185626    2.2703808  
C    0.0000000    0.0000000    1.4700000  
C   -0.8668858   -0.7285659    2.3373528  
C   -0.4876752   -0.4117774    3.6669281  
N    0.5635254    0.4678311    3.5902241  
C   -1.1297612   -0.9515493    4.7854808  
C   -2.1738724   -1.8268314    4.5576857  
O   -2.8357962   -2.3827064    5.6140350  
C   -2.5667212   -2.1555554    3.2384331  
O   -3.6226318   -3.0413663    3.1773122  
C   -1.9335634   -1.6236449    2.1344818  
H    1.0363952    0.8769718    4.3757045  
H   -0.8454472   -0.7142436    5.8013813  
H   -3.5178062   -2.9546422    5.2385129  
H   -3.8247440   -3.2102924    2.2519915  
H   -2.2566033   -1.8942483    1.1360343  
H    1.6567807    1.3889844    2.0042067  
