64

C   -3.2578676    0.0024041   -2.9908488  
C   -4.0349383    0.0043589   -1.8556730  
C   -5.3958994    0.0056181   -2.2827373  
C   -5.3870331    0.0040493   -3.7011324  
N   -4.0729912    0.0040660   -4.0985123  
C   -6.5582225    0.0043940   -4.4647453  
C   -7.7602590    0.0060513   -3.7840972  
O   -8.9341469    0.0061075   -4.4805182  
C   -7.7896837    0.0080077   -2.3691952  
O   -9.0636553    0.0099262   -1.8397281  
C   -6.6346689    0.0079421   -1.6152281  
H   -3.6662223    0.0059255   -0.8442192  
H   -3.7546052   -0.0074427   -5.0506047  
H   -9.6417843    0.0076768   -3.8228620  
H   -8.9942205    0.0111419   -0.8801547  
H   -6.6886254    0.0096503   -0.5328398  
C    0.0000000    0.0000000    0.0000000  
C    1.0521654   -0.0011901   -0.8862351  
C    0.4917203   -0.0011955   -2.1979134  
C   -0.9187441    0.0003149   -2.0478676  
N   -1.1833178   -0.0009411   -0.7007904  
C   -1.7951724    0.0010353   -3.1372081  
C   -1.2375866    0.0005228   -4.4010420  
O   -2.0474252    0.0015364   -5.4997568  
C    0.1673543   -0.0013563   -4.5711966  
O    0.5673486   -0.0020682   -5.8915558  
C    1.0325748   -0.0023409   -3.4969900  
H    2.0953052   -0.0030648   -0.6200576  
H   -2.0989781    0.0102372   -0.2891809  
H   -1.4634923    0.0006502   -6.2693584  
H    1.5290669   -0.0033148   -5.9180056  
H    2.1042123   -0.0039606   -3.6584469  
C   -6.5582244    0.0029732   -5.9347449  
C   -5.5060600    0.0000061   -6.8209781  
C   -6.0665068   -0.0007769   -8.1326561  
C   -7.4769690    0.0021123   -7.9826116  
N   -7.7415428    0.0023898   -6.6355345  
C   -8.3533966    0.0025463   -9.0719526  
C   -7.7958127    0.0003245  -10.3357848  
O   -8.6056508    0.0009845  -11.4345007  
C   -6.3908736   -0.0029479  -10.5059371  
O   -5.9908817   -0.0052860  -11.8262952  
C   -5.5256543   -0.0036511   -9.4317297  
H   -4.4629232   -0.0025238   -6.5547987  
H   -8.6571930    0.0147669   -6.2239359  
H   -9.4293191    0.0045984   -8.9642947  
H   -8.0217199   -0.0011564  -12.2041015  
H   -5.0291646   -0.0073994  -11.8527436  
H   -4.4540187   -0.0063642   -9.5931856  
C    3.2798086   -0.0005857    2.9199648  
C    2.5571146   -0.0005566    4.0696553  
C    1.1637436   -0.0001548    3.6910360  
C    1.1336965    0.0000200    2.2159470  
N    2.4483514    0.0001428    1.8102719  
C    0.0000000    0.0000000    1.4700000  
C   -1.2757367    0.0000186    2.1664417  
O   -2.3524596    0.0000640    1.5842315  
C   -1.2676493    0.0000873    3.7284083  
O   -2.3355761    0.0004100    4.3257297  
C    0.0181563   -0.0001760    4.4216297  
H    2.9547357   -0.0006076    5.0689105  
H    0.0150794   -0.0003319    5.5031631  
H    4.3498549   -0.0008612    2.7900019  
H    2.7563627   -0.0012824    0.8551938  
