62

C    3.3003544    0.0005269   -1.4738990  
C    2.5232812    0.0003489   -2.6090747  
C    1.1623201   -0.0001325   -2.1820101  
C    1.1711882    0.0000580   -0.7636141  
N    2.4852302   -0.0014924   -0.3662355  
C    0.0000000    0.0000000    0.0000000  
C   -1.2020381    0.0000517   -0.6806479  
O   -2.3759247    0.0003494    0.0157750  
C   -1.2314655   -0.0005119   -2.0955508  
O   -2.5054387   -0.0008042   -2.6250178  
C   -0.0764516   -0.0007279   -2.8495193  
H    2.8919951   -0.0005629   -3.6205305  
H    2.8036266    0.0088176    0.5858657  
H   -3.0835637    0.0000347   -0.6418815  
H   -2.4360050   -0.0011533   -3.5845917  
H    4.3715548    0.0004886   -1.3667139  
C    2.1623912   -2.0122276   -6.1367512  
C    1.7689757   -1.6301541   -4.8994865  
C    0.6617233   -0.7136681   -5.1243082  
C    0.5180516   -0.6563682   -6.5949061  
N    1.3949575   -1.4155876   -7.1937475  
C   -0.4838560    0.1543895   -7.2304691  
C   -1.3051619    0.8748424   -6.4331370  
O   -2.2841108    1.6739661   -6.8904135  
C   -1.1854794    0.8378275   -4.9457005  
O   -1.9668285    1.5193639   -4.2822079  
C   -0.1496418   -0.0015622   -4.3176961  
H    2.1794007   -1.9329297   -3.9513546  
H   -0.5660964    0.1774116   -8.3073238  
H   -2.6923638    2.0491943   -6.0893602  
C    5.0421816   -4.3173990   -3.7099380  
C    4.0418162   -3.4982922   -4.1251585  
C    4.0282017   -3.5484451   -5.5681189  
C    5.1103774   -4.4705474   -5.9623441  
N    5.6864507   -4.9019062   -4.7897572  
C    5.4221718   -4.7865897   -7.2447658  
C    4.6398393   -4.1777685   -8.3076995  
O    4.8428538   -4.3986016   -9.4944260  
C    3.4890963   -3.1979736   -7.9132423  
O    2.8238280   -2.6790946   -8.7994945  
C    3.2480351   -2.9357033   -6.4965716  
H    3.3881673   -2.9243005   -3.4927899  
H    6.2199010   -5.4654997   -7.5123824  
H    5.3630879   -4.5430509   -2.7059510  
H    6.4550568   -5.5441368   -4.7278641  
C    2.5311839    2.1237619    3.0120429  
C    1.9795631    1.6616747    1.8395852  
C    0.9223175    0.7739173    2.1983588  
C    0.8753926    0.7337535    3.6154372  
N    1.8668922    1.5631002    4.0777464  
C   -0.0496243   -0.0427881    4.3197917  
C   -0.9437528   -0.7922060    3.5801400  
O   -1.8685244   -1.5680278    4.2172520  
C   -0.9124520   -0.7656372    2.1655264  
O   -1.8671164   -1.5663939    1.5732860  
C    0.0000000    0.0000000    1.4700000  
H    2.3005065    1.9304404    0.8477417  
H    2.0679347    1.7444845    5.0445261  
H   -0.0904770   -0.0778569    5.3997470  
H   -2.3849669   -2.0011402    3.5251786  
H   -1.7775064   -1.4909735    0.6183591  
H    3.3468514    2.8078103    3.1724291  
