60

C    6.0059282    0.7079770   -5.8568930  
C    5.8856236    0.4573336   -7.2041761  
C    6.9280600   -0.4515294   -7.5533107  
C    7.6584766   -0.7223243   -6.3679464  
N    7.0732907   -0.0008200   -5.3572005  
C    8.7608393   -1.5818139   -6.3385953  
C    9.1324392   -2.1790498   -7.5274614  
O   10.2013539   -3.0273750   -7.5553703  
C    8.4164564   -1.9211265   -8.7206346  
O    8.9100703   -2.5911835   -9.8209580  
C    7.3290159   -1.0731208   -8.7503835  
H    5.1391100    0.8786889   -7.8554598  
H    9.3218280   -1.7922434   -5.4384770  
H   10.2870101   -3.3286946   -8.4692279  
H    8.3705801   -2.3620257  -10.5838741  
H    6.8003670   -0.8947584   -9.6794665  
H    5.4156899    1.3373817   -5.2131332  
C    4.7161325   -0.0005435   -1.6923264  
C    5.6747634   -0.0008964   -0.7370224  
C    6.9326495   -0.0010016   -1.4679276  
C    6.5359790   -0.0007816   -2.8924403  
N    5.2379004   -0.0004319   -3.0302106  
C    7.5063012   -0.0007606   -3.9524225  
C    8.8134761   -0.0005619   -3.6051057  
O    9.8251245   -0.0005266   -4.4897574  
C    9.2455282   -0.0004050   -2.1762981  
O   10.4523082   -0.0003511   -1.9335990  
C    8.2310910   -0.0004739   -1.1072606  
H    5.5443949   -0.0009741    0.3316587  
H   10.6319759   -0.0003444   -3.9437338  
H    8.5850041   -0.0002400   -0.0850199  
C    3.2573665   -0.0002920   -1.5109385  
C    2.5379463   -0.0001709   -0.3591964  
C    1.1435038    0.0000331   -0.7338500  
C    1.1092599   -0.0000083   -2.2088477  
N    2.4227553    0.0001909   -2.6182613  
C   -0.0265539   -0.0002524   -2.9515660  
C   -1.3003040   -0.0002640   -2.2514977  
O   -2.3786790   -0.0004133   -2.8306421  
C   -1.2877727    0.0000311   -0.6895603  
O   -2.3539959    0.0003306   -0.0892030  
C    0.0000000    0.0000000    0.0000000  
H    2.9384091   -0.0000367    0.6389234  
H   -0.0296303   -0.0004086   -4.0327229  
H    2.7280482   -0.0013407   -3.5742119  
C    0.0000000    0.0000000    1.4700000  
C    1.0541688    0.0001722    2.3260392  
C    0.5103138    0.0000454    3.6635956  
C   -0.9576371   -0.0002459    3.5155732  
N   -1.2018458    0.0001392    2.1615969  
C   -1.8348311   -0.0008317    4.5510609  
C   -1.2972847   -0.0009736    5.9014604  
O   -2.0050672   -0.0014265    6.9001319  
C    0.2542623   -0.0004184    6.0817573  
O    0.7184670   -0.0002256    7.2139121  
C    1.0974552   -0.0000873    4.8889129  
H    2.0940752    0.0005483    2.0517982  
H   -2.9081052   -0.0011668    4.4207061  
H    2.1707277    0.0000911    5.0223670  
H   -2.1128194   -0.0014912    1.7406791  
