60

C   -3.3330910    0.0000654   -7.3160011  
C   -4.0827222    0.0013089   -6.1625197  
C   -5.4535324    0.0016883   -6.5568301  
C   -5.4786752    0.0003405   -7.9750299  
N   -4.1745395    0.0013294   -8.4038018  
C   -6.6678365   -0.0000118   -8.7103426  
C   -7.8532096    0.0007081   -8.0010692  
O   -9.0434566    0.0000551   -8.6691449  
C   -7.8487025    0.0024296   -6.5858682  
O   -9.1096138    0.0033838   -6.0260073  
C   -6.6759427    0.0030514   -5.8598107  
H   -3.6898618    0.0029781   -5.1601969  
H   -3.8790650   -0.0098140   -9.3632561  
H   -6.6937638   -0.0008931   -9.7913277  
H   -9.7351233    0.0010336   -7.9947102  
H   -9.0171923    0.0045023   -5.0683746  
H   -6.7039320    0.0045582   -4.7764401  
C   -0.0307354   -0.0004645   -4.4215603  
C    1.0209938   -0.0006522   -5.2805949  
C    0.4733355   -0.0007744   -6.6165991  
C   -0.9941885   -0.0006124   -6.4644009  
N   -1.2345441   -0.0008268   -5.1097353  
C   -1.8743248   -0.0002661   -7.4973884  
C   -1.3406225   -0.0002640   -8.8493122  
O   -2.0512433   -0.0000281   -9.8459652  
C    0.2104054   -0.0006861   -9.0340223  
O    0.6713873   -0.0009947  -10.1674938  
C    1.0569887   -0.0007583   -7.8435816  
H    2.0616762   -0.0008820   -5.0093140  
H    2.1298771   -0.0008460   -7.9800887  
H   -2.1443165    0.0007708   -4.6862276  
C    3.2573669   -0.0002919   -1.5109381  
C    2.5379467   -0.0001709   -0.3591962  
C    1.1435042    0.0000332   -0.7338501  
C    1.1092607   -0.0000081   -2.2088477  
N    2.4227561    0.0001910   -2.6182614  
C   -0.0265534   -0.0002522   -2.9515663  
C   -1.3003036   -0.0002639   -2.2514981  
O   -2.3786785   -0.0004131   -2.8306428  
C   -1.2877726    0.0000312   -0.6895608  
O   -2.3539957    0.0003306   -0.0892035  
C    0.0000000    0.0000000    0.0000000  
H    2.9384091   -0.0000368    0.6389238  
H    4.3270391   -0.0004764   -1.6439447  
H    2.7280492   -0.0013405   -3.5742114  
C    2.4951002    2.0940188    2.9809380  
C    1.9440701    1.6314916    1.8291961  
C    0.8759964    0.7350050    2.2038498  
C    0.8497377    0.7130254    3.6788474  
N    1.8560616    1.5571714    4.0882609  
C   -0.0205033   -0.0168748    4.4215661  
C   -0.9962600   -0.8356168    3.7214979  
O   -1.8224391   -1.5286685    4.3006425  
C   -0.9864710   -0.8277881    2.1595606  
O   -1.8030528   -1.5133726    1.5592035  
C    0.0000000    0.0000000    1.4700000  
H    2.2509283    1.8888011    0.8310761  
H   -0.0229599   -0.0187323    5.5027230  
H    3.3143982    2.7817323    3.1139444  
H    2.0889452    1.7545833    5.0442112  
