60

C   -8.1165487   -0.5616594   -2.6243038  
C   -8.3702281    0.2777575   -1.5643542  
C   -9.7791054    0.2544647   -1.3427192  
C  -10.3374826   -0.6243898   -2.3059202  
N   -9.3007827   -1.1010906   -3.0692204  
C  -11.7080566   -0.8896568   -2.3830502  
C  -12.5298892   -0.2564209   -1.4710302  
O  -13.8760436   -0.4799321   -1.5014458  
C  -11.9916546    0.6241912   -0.5027105  
O  -12.9393532    1.1769086    0.3337787  
C  -10.6396793    0.8865611   -0.4262094  
H   -7.6309106    0.8388044   -1.0188001  
H   -9.3901730   -1.7540198   -3.8266333  
H  -12.1398967   -1.5583354   -3.1148881  
H  -14.2572728    0.0520226   -0.7908449  
H  -12.4929917    1.7583139    0.9569425  
H  -10.2565664    1.5659184    0.3262373  
C   -3.9884051    0.7039233   -1.8242582  
C   -3.3460097   -0.0004262   -2.7913647  
C   -4.3537583   -0.7427565   -3.5112426  
C   -5.6451795   -0.4107427   -2.8797465  
N   -5.3546451    0.4703283   -1.8637774  
C   -6.8441771   -0.9105382   -3.2725751  
C   -6.8640253   -1.8374907   -4.3919052  
O   -7.8934846   -2.3421818   -4.8206280  
C   -5.5080969   -2.2034205   -5.0755413  
O   -5.5122776   -2.9830135   -6.0186627  
C   -4.2805270   -1.6000814   -4.5627983  
H   -3.3459156   -1.8584818   -5.0418127  
H   -3.5786585    1.3738261   -1.0858631  
H   -6.0311467    0.8819829   -1.2473904  
C    0.0000000    0.0000000    0.0000000  
C    1.0662919   -0.0000103   -0.8334272  
C    0.4961868    0.0000066   -2.1718889  
C   -0.9663860   -0.0000849   -1.9540248  
N   -1.2632775   -0.0000084   -0.6828659  
C   -1.8985364   -0.0000515   -3.0477258  
C   -1.3925778    0.0004567   -4.3020543  
O   -2.1456385    0.0005412   -5.4151314  
C    0.0786229    0.0009326   -4.5544999  
O    0.4683756    0.0012594   -5.7221104  
C    1.0143162    0.0008443   -3.4159034  
H    2.1107195    0.0000631   -0.5721869  
H   -1.5042277    0.0009692   -6.1484420  
H    2.0724151    0.0013151   -3.6409746  
C    0.0000000    0.0000000    1.4700000  
C    1.0662921    0.0000102    2.3034270  
C    0.4961870   -0.0000064    3.6418889  
C   -0.9663858    0.0000850    3.4240247  
N   -1.2632773    0.0000084    2.1528658  
C   -1.8985362    0.0000517    4.5177257  
C   -1.3925775   -0.0004564    5.7720543  
O   -2.1456383   -0.0005410    6.8851312  
C    0.0786232   -0.0009323    6.0245000  
O    0.4683759   -0.0012588    7.1921102  
C    1.0143166   -0.0008442    4.8859032  
H    2.1107198   -0.0000632    2.0421868  
H   -2.9622183    0.0003270    4.3293377  
H   -1.5042274   -0.0009692    7.6184419  
H    2.0724152   -0.0013148    5.1109744  
