60

C    6.8229604   -2.1212978    2.5681913  
C    6.9610045   -1.6599625    1.2795563  
C    8.0781398   -0.7730833    1.2722536  
C    8.5861264   -0.7326557    2.5959760  
N    7.7997908   -1.5610064    3.3576382  
C    9.6912841    0.0432018    2.9585519  
C   10.2948079    0.7916516    1.9667063  
O   11.3777343    1.5667750    2.2658212  
C    9.8024029    0.7648055    0.6401945  
O   10.5114003    1.5645708   -0.2321826  
C    8.7120167   -0.0001571    0.2818446  
H    6.3330205   -1.9286523    0.4474291  
H    7.9259618   -1.7419998    4.3370776  
H   10.0832349    0.0784671    3.9656928  
H   11.6396760    1.9992710    1.4426571  
H   10.1142486    1.4890255   -1.1052041  
H    6.1041166   -2.8045740    2.9869472  
C    4.7161325   -0.0005435   -1.6923264  
C    5.6747634   -0.0008966   -0.7370220  
C    6.9326496   -0.0010022   -1.4679270  
C    6.5359791   -0.0007821   -2.8924396  
N    5.2379004   -0.0004321   -3.0302104  
C    7.5063014   -0.0007614   -3.9524215  
C    8.8134762   -0.0005627   -3.6051048  
O    9.8251247   -0.0005273   -4.4897564  
C    9.2455284   -0.0004059   -2.1762968  
O   10.4523083   -0.0003525   -1.9335978  
C    8.2310902   -0.0004746   -1.1072594  
H    5.5443945   -0.0009742    0.3316593  
H    7.1881021   -0.0008049   -4.9847295  
H   10.6319771   -0.0003454   -3.9437325  
C    3.2573665   -0.0002920   -1.5109385  
C    2.5379463   -0.0001709   -0.3591964  
C    1.1435038    0.0000331   -0.7338500  
C    1.1092599   -0.0000083   -2.2088477  
N    2.4227553    0.0001909   -2.6182613  
C   -0.0265539   -0.0002524   -2.9515660  
C   -1.3003040   -0.0002640   -2.2514977  
O   -2.3786790   -0.0004133   -2.8306421  
C   -1.2877727    0.0000311   -0.6895603  
O   -2.3539959    0.0003306   -0.0892030  
C    0.0000000    0.0000000    0.0000000  
H    2.9384091   -0.0000367    0.6389234  
H   -0.0296303   -0.0004086   -4.0327229  
H    2.7280482   -0.0013407   -3.5742119  
C    2.5528530    2.1414826    2.8079335  
C    2.0663498    1.7338582    4.0032312  
C    0.9804344    0.8229586    3.6752840  
C    0.9495562    0.7966882    2.1971295  
N    1.8690446    1.5676019    1.6831036  
C    0.0000000    0.0000000    1.4700000  
C   -0.8785127   -0.7372425    2.1869543  
O   -1.8187535   -1.5261249    1.6395491  
C   -0.8723269   -0.7321790    3.6796354  
O   -1.7010379   -1.4274584    4.2670412  
C    0.1115397    0.0933559    4.4024240  
H    2.4028853    2.0163452    4.9860947  
H   -2.2861435   -1.9184361    2.3990168  
H    0.0832434    0.0693689    5.4835595  
H    3.3664920    2.8238276    2.6198634  
