62

C   -3.1254322   -1.0718814   -1.5420434  
C   -2.4449442   -0.8379023   -0.3695853  
C   -1.1388996   -0.3905447   -0.7283586  
C   -1.0802798   -0.3710820   -2.1454377  
N   -2.3023617   -0.7922740   -2.6077470  
C    0.0622612    0.0204205   -2.8497918  
C    1.1656274    0.3994654   -2.1101393  
O    2.3074250    0.7911293   -2.7472516  
C    1.1267160    0.3863685   -0.6955258  
O    2.3052984    0.7907663   -0.1032863  
C    0.0000000    0.0000000    0.0000000  
H   -2.8407921   -0.9740799    0.6222580  
H    0.1133830    0.0373118   -3.9297469  
H    2.9449394    1.0099321   -2.0551783  
H    2.1944501    0.7529398    0.8516413  
H   -4.1323131   -1.4174617   -1.7024297  
C   -2.6817579   -0.9073279   -4.0232754  
C   -3.8657729   -1.3125966   -4.5384886  
C   -3.6931755   -1.2355606   -5.9809784  
C   -2.3079763   -0.7519983   -6.1653008  
N   -1.7100975   -0.5578990   -5.0212492  
C   -1.7432218   -0.5403625   -7.4696584  
C   -2.5265387   -0.8003699   -8.5411746  
O   -2.1295023   -0.6474120   -9.8159324  
C   -3.9283768   -1.2897535   -8.3878310  
O   -4.5837789   -1.5057432   -9.4071528  
C   -4.4847816   -1.4989535   -7.0392858  
H   -4.7473676   -1.6252941   -4.0054910  
H   -0.7281518   -0.1861425   -7.5748755  
H   -2.9014562   -0.9097614  -10.3492356  
C   -5.8700257   -1.9820292   -6.9463566  
C   -6.6100690   -2.2520631   -5.8402404  
C   -7.9048735   -2.6974704   -6.2984201  
C   -7.8581655   -2.6645837   -7.7727093  
N   -6.5978327   -2.2218478   -8.1020051  
C   -8.8892564   -3.0146731   -8.5826422  
C  -10.1277398   -3.4529104   -7.9608361  
O  -11.1134630   -3.7889892   -8.6040331  
C  -10.1996589   -3.4952724   -6.4010801  
O  -11.2372304   -3.8622466   -5.8662575  
C   -9.0223510   -3.0940708   -5.6350285  
H   -6.2859696   -2.1506186   -4.8198080  
H   -8.8342132   -2.9834716   -9.6619509  
H   -9.0802645   -3.1264392   -4.5555273  
H   -6.2582847   -2.0946719   -9.0377297  
C    2.5311839    2.1237619    3.0120429  
C    1.9795631    1.6616747    1.8395852  
C    0.9223175    0.7739173    2.1983588  
C    0.8753926    0.7337535    3.6154372  
N    1.8668922    1.5631002    4.0777464  
C   -0.0496243   -0.0427881    4.3197917  
C   -0.9437528   -0.7922060    3.5801400  
O   -1.8685244   -1.5680278    4.2172520  
C   -0.9124520   -0.7656372    2.1655264  
O   -1.8671164   -1.5663939    1.5732860  
C    0.0000000    0.0000000    1.4700000  
H    2.3005065    1.9304404    0.8477417  
H    2.0679347    1.7444845    5.0445261  
H   -0.0904770   -0.0778569    5.3997470  
H   -2.3849669   -2.0011402    3.5251786  
H   -1.7775064   -1.4909735    0.6183591  
H    3.3468514    2.8078103    3.1724291  
