62

C    6.2649468    0.0094423    3.7162587  
C    6.9849883    0.0183673    4.8884051  
C    8.3653737    0.0091509    4.5291675  
C    8.4265845   -0.0051229    3.1121369  
N    7.1337807   -0.0065128    2.6503216  
C    9.6340563   -0.0167452    2.4073923  
C   10.8009963   -0.0135994    3.1465951  
O   12.0078445   -0.0241880    2.5090868  
C   10.7604901    0.0001997    4.5611571  
O   12.0067429    0.0012253    5.1529310  
C    9.5696477    0.0113971    5.2570713  
H    6.5667583    0.0289745    5.8803556  
H    9.6874721   -0.0277933    1.3274726  
H   12.6821267   -0.0200560    3.2008908  
H   11.8899902    0.0109037    6.1078544  
H    9.5700681    0.0216683    6.3407562  
H    5.2003563    0.0117495    3.5562567  
C    6.7370871   -0.0041643    1.2348608  
C    5.4910176   -0.0032946    0.6950591  
C    5.6537433   -0.0009388   -0.7396360  
C    7.1071780   -0.0005333   -0.9932456  
N    7.7077099   -0.0021561    0.2445947  
C    7.6723921    0.0010930   -2.2270342  
C    6.7903705    0.0027667   -3.3822703  
O    7.2023932    0.0043593   -4.5348916  
C    5.2477315    0.0026235   -3.1371782  
O    4.4952259    0.0043300   -4.1020582  
C    4.7577216    0.0005129   -1.7610467  
H    4.5636991   -0.0040178    1.2397541  
H    8.7410246    0.0012319   -2.3911492  
H    8.6984749   -0.0038798    0.4040586  
C    3.3041270    0.0001177   -1.5420435  
C    2.5845370   -0.0004780   -0.3695856  
C    1.2040004   -0.0000007   -0.7283590  
C    1.1422370    0.0006038   -2.1454373  
N    2.4348634    0.0026110   -2.6077469  
C   -0.0655187    0.0008799   -2.8497918  
C   -1.2321769    0.0002326   -2.1101398  
O   -2.4392822    0.0001149   -2.7472517  
C   -1.1911211   -0.0000007   -0.6955263  
O   -2.4371526   -0.0002319   -0.1032858  
C    0.0000000    0.0000000    0.0000000  
H    3.0031534   -0.0000661    0.6222578  
H    2.7054623   -0.0071098   -3.5745266  
H   -0.1193555    0.0014846   -3.9297472  
H   -3.1132992   -0.0000646   -2.0551783  
H   -2.3200279   -0.0004070    0.8516411  
C    2.5528530    2.1414826    2.8079335  
C    2.0663498    1.7338582    4.0032312  
C    0.9804344    0.8229586    3.6752840  
C    0.9495562    0.7966882    2.1971295  
N    1.8690446    1.5676019    1.6831036  
C    0.0000000    0.0000000    1.4700000  
C   -0.8785127   -0.7372425    2.1869543  
O   -1.8187535   -1.5261249    1.6395491  
C   -0.8723269   -0.7321790    3.6796354  
O   -1.7010379   -1.4274584    4.2670412  
C    0.1115397    0.0933559    4.4024240  
H    2.4028853    2.0163452    4.9860947  
H   -2.2861435   -1.9184361    2.3990168  
H    0.0832434    0.0693689    5.4835595  
H    3.3664920    2.8238276    2.6198634  
