60

C   -0.7115680    0.5589648   -9.1464347  
C    0.2865529   -0.2807513   -9.5835829  
C    0.2550361   -0.2580244  -11.0094476  
C   -0.7917552    0.6208091  -11.3886648  
N   -1.3592184    1.0980426  -10.2333080  
C   -1.1104919    0.8855821  -12.7239891  
C   -0.3586083    0.2518645  -13.6941697  
O   -0.6270479    0.4748819  -15.0137217  
C    0.6896515   -0.6287350  -13.3356827  
O    1.3449064   -1.1819661  -14.4163859  
C    1.0044737   -0.8906177  -12.0185534  
H    0.9544080   -0.8416291   -8.9524104  
H   -2.1204038    1.7510849  -10.1873333  
H   -1.9071858    1.5542419  -13.0195842  
H    0.0046898   -0.0573519  -15.5146211  
H    2.0372299   -1.7633263  -14.0872775  
H    1.8128147   -1.5699784  -11.7745610  
C    0.8071496   -0.7052398   -5.2248756  
C   -0.0307352   -0.0004646   -4.4215603  
C   -0.9176979    0.7416308   -5.2860992  
C   -0.5250707    0.4090152   -6.6688504  
N    0.5261929   -0.4721445   -6.5625869  
C   -1.1240783    0.9084415   -7.7794666  
C   -2.2290973    1.8356034   -7.6010306  
O   -2.8333885    2.3399949   -8.5384326  
C   -2.6616045    2.2021688   -6.1455678  
O   -3.5904450    2.9819425   -5.9828763  
C   -1.9395300    1.5991862   -5.0280379  
H   -2.2453230    1.8580264   -4.0234404  
H    1.6063820   -1.3751333   -4.9521859  
H    1.0129012   -0.8841694   -7.3374394  
C    3.2573670   -0.0002920   -1.5109380  
C    2.5379468   -0.0001709   -0.3591961  
C    1.1435043    0.0000332   -0.7338500  
C    1.1092609   -0.0000082   -2.2088477  
N    2.4227562    0.0001909   -2.6182613  
C   -0.0265532   -0.0002522   -2.9515663  
C   -1.3003035   -0.0002639   -2.2514981  
O   -2.3786784   -0.0004131   -2.8306429  
C   -1.2877725    0.0000312   -0.6895608  
O   -2.3539958    0.0003307   -0.0892036  
C    0.0000000    0.0000000    0.0000000  
H    2.9384091   -0.0000369    0.6389239  
H    4.3270394   -0.0004765   -1.6439446  
H    2.7280494   -0.0013406   -3.5742113  
C    2.4951002    2.0940188    2.9809380  
C    1.9440701    1.6314916    1.8291961  
C    0.8759964    0.7350050    2.2038498  
C    0.8497377    0.7130254    3.6788474  
N    1.8560616    1.5571714    4.0882609  
C   -0.0205033   -0.0168748    4.4215661  
C   -0.9962600   -0.8356168    3.7214979  
O   -1.8224391   -1.5286685    4.3006425  
C   -0.9864710   -0.8277881    2.1595606  
O   -1.8030528   -1.5133726    1.5592035  
C    0.0000000    0.0000000    1.4700000  
H    2.2509283    1.8888011    0.8310761  
H   -0.0229599   -0.0187323    5.5027230  
H    3.3143982    2.7817323    3.1139444  
H    2.0889452    1.7545833    5.0442112  
