62

C   -1.1241246    0.0242023   -0.7919003  
C   -0.7477745   -0.0007158   -2.1148544  
C    0.6777119   -0.0440780   -2.1414697  
C    1.1193568   -0.0439182   -0.7935545  
N    0.0000000    0.0000000    0.0000000  
C    2.4717445   -0.0815720   -0.4408242  
C    3.3951054   -0.1203957   -1.4675057  
O    4.7287186   -0.1584950   -1.1793466  
C    2.9740661   -0.1208452   -2.8186319  
O    4.0135891   -0.1616361   -3.7247616  
C    1.6400780   -0.0834380   -3.1673480  
H    2.8148392   -0.0815231    0.5845968  
H    5.1907782   -0.1810170   -2.0274369  
H    3.6433148   -0.1590929   -4.6127335  
H    1.3477978   -0.0846114   -4.2109228  
H   -2.1054329    0.0587694   -0.3505408  
C   -1.6631559    0.0166921   -3.2649301  
C   -3.0204256    0.0581527   -3.2781787  
C   -3.4281187    0.0577944   -4.6633219  
C   -2.1882213    0.0123718   -5.4616841  
N   -1.1541403   -0.0104937   -4.5544664  
C   -2.1472035   -0.0018726   -6.8180830  
C   -3.4083987    0.0298619   -7.5398273  
O   -3.4769071    0.0203204   -8.7619222  
C   -4.7337456    0.0784006   -6.7146574  
O   -5.8016849    0.1057179   -7.3113317  
C   -4.6502000    0.0895224   -5.2563204  
H   -3.6627025    0.0860106   -2.4160198  
H   -1.2268911   -0.0354669   -7.3844805  
H   -0.1798273   -0.0440274   -4.7924527  
C   -5.9036945    0.1350198   -4.4897819  
C   -6.0839218    0.1533458   -3.1439521  
C   -7.5080922    0.1989205   -2.9105074  
C   -8.1473857    0.2056631   -4.2401874  
N   -7.1201649    0.1660739   -5.1545944  
C   -9.4878207    0.2440674   -4.4486680  
C  -10.3590149    0.2814679   -3.2858453  
O  -11.5797069    0.3175251   -3.3689777  
C   -9.7036402    0.2753265   -1.8680113  
O  -10.4269692    0.3068871   -0.8815740  
C   -8.2467634    0.2320664   -1.7705940  
H   -5.3077700    0.1370055   -2.3996837  
H   -9.9363655    0.2481902   -5.4323850  
H   -7.8008672    0.2278830   -0.7852598  
H   -7.2363448    0.1586247   -6.1513361  
C    2.5311839    2.1237619    3.0120429  
C    1.9795631    1.6616747    1.8395852  
C    0.9223175    0.7739173    2.1983588  
C    0.8753926    0.7337535    3.6154372  
N    1.8668922    1.5631002    4.0777464  
C   -0.0496243   -0.0427881    4.3197917  
C   -0.9437528   -0.7922060    3.5801400  
O   -1.8685244   -1.5680278    4.2172520  
C   -0.9124520   -0.7656372    2.1655264  
O   -1.8671164   -1.5663939    1.5732860  
C    0.0000000    0.0000000    1.4700000  
H    2.3005065    1.9304404    0.8477417  
H    2.0679347    1.7444845    5.0445261  
H   -0.0904770   -0.0778569    5.3997470  
H   -2.3849669   -2.0011402    3.5251786  
H   -1.7775064   -1.4909735    0.6183591  
H    3.3468514    2.8078103    3.1724291  
