62

C    1.7254292   -1.8302073   -8.4895518  
C    2.6627605   -2.6371841   -9.0917693  
C    2.4611042   -2.5304327  -10.4997952  
C    1.3779531   -1.6364436  -10.6985250  
N    0.9534239   -1.2313960   -9.4574258  
C    0.9023568   -1.2949849  -11.9681728  
C    1.5318557   -1.8661769  -13.0570483  
O    1.1080119   -1.5670582  -14.3195444  
C    2.6139839   -2.7606958  -12.8791420  
O    3.1344715   -3.2455394  -14.0612430  
C    3.0835240   -3.0982154  -11.6268889  
H    3.4003297   -3.2307257   -8.5792324  
H    0.2042714   -0.5863647   -9.2822515  
H    0.0771563   -0.6143782  -12.1263528  
H    1.6744772   -2.0653229  -14.9229635  
H    3.8602000   -3.8415487  -13.8522100  
H    3.9141039   -3.7863925  -11.5218771  
C    2.1801845   -2.1249311   -6.0224128  
C    1.6691586   -1.6625655   -4.8318093  
C    0.6003590   -0.7747108   -5.1542714  
C    0.5048748   -0.7347776   -6.5689139  
N    1.4798199   -1.5643492   -7.0648071  
C   -0.4436399    0.0417838   -7.2412688  
C   -1.3117721    0.7914586   -6.4715206  
O   -2.2577362    1.5673114   -7.0766812  
C   -1.2319855    0.7651224   -5.0588080  
O   -2.1656657    1.5661204   -4.4343180  
C   -0.2963293   -0.0005341   -4.3948471  
H    2.0238859   -1.9312126   -3.8515082  
H   -0.5214962    0.0766778   -8.3191935  
H   -2.7500812    2.0006166   -6.3673799  
H   -2.0433735    1.4908464   -3.4830124  
H    2.9897746   -2.8091278   -6.2105564  
C    3.1301146   -0.0010313   -1.7028256  
C    2.5367765   -0.0002766   -0.4864669  
C    1.1089901    0.0001027   -0.7656184  
C    1.0177865   -0.0004150   -2.2415133  
N    2.1993571   -0.0011612   -2.7963824  
C   -0.2459219   -0.0002879   -2.9257116  
C   -1.3675326   -0.0000606   -2.1698520  
O   -2.6129318    0.0000865   -2.6748483  
C   -1.3083588    0.0000910   -0.6783229  
O   -2.3693264    0.0004206   -0.0541685  
C    0.0000000    0.0000000    0.0000000  
H    3.0096016   -0.0001007    0.4807518  
H   -3.1967444    0.0002093   -1.8949026  
H    4.1849275   -0.0015114   -1.9271979  
C    0.0000000    0.0000000    1.4700000  
C    1.0662921    0.0000102    2.3034270  
C    0.4961870   -0.0000064    3.6418889  
C   -0.9663858    0.0000850    3.4240247  
N   -1.2632773    0.0000084    2.1528658  
C   -1.8985362    0.0000517    4.5177257  
C   -1.3925775   -0.0004564    5.7720543  
O   -2.1456383   -0.0005410    6.8851312  
C    0.0786232   -0.0009323    6.0245000  
O    0.4683759   -0.0012588    7.1921102  
C    1.0143166   -0.0008442    4.8859032  
H    2.1107198   -0.0000632    2.0421868  
H   -2.9622183    0.0003270    4.3293377  
H   -1.5042274   -0.0009692    7.6184419  
H    2.0724152   -0.0013148    5.1109744  
