62

C    4.6997227    0.0063699   -7.5305880  
C    3.4277125    0.0081127   -8.0544719  
C    3.5622730    0.0100510   -9.4745039  
C    4.9514739    0.0090960   -9.7609395  
N    5.6135537    0.0088093   -8.5583311  
C    5.4547019    0.0101975  -11.0653737  
C    4.5388549    0.0119944  -12.0994918  
O    4.9757998    0.0127792  -13.3925861  
C    3.1487936    0.0133460  -11.8338904  
O    2.3658526    0.0154961  -12.9698243  
C    2.6516352    0.0125338  -10.5472833  
H    2.5151062    0.0091056   -7.4833838  
H    6.6110576   -0.0024008   -8.4450073  
H    6.5123354    0.0096228  -11.2903471  
H    4.1853057    0.0143189  -13.9479072  
H    1.4417243    0.0162693  -12.7022614  
H    1.5817065    0.0137907  -10.3748595  
C    2.4521485    0.0014838   -3.7217479  
C    3.5379007    0.0002978   -2.8769948  
C    4.7042703    0.0010661   -3.6980803  
C    4.2640500    0.0030226   -5.0464601  
N    2.8914057    0.0012765   -5.0249751  
C    5.1472042    0.0045345   -6.1303535  
C    6.4993913    0.0043697   -5.8479204  
O    7.4055689    0.0061548   -6.8686314  
C    6.9581314    0.0020552   -4.5091262  
O    8.3328187    0.0017726   -4.3925964  
C    6.0874476    0.0002896   -3.4393444  
H    3.4945817   -0.0020709   -1.8013038  
H    2.2982898    0.0126077   -5.8349546  
H    8.2798203    0.0053917   -6.4575989  
H    8.5587828    0.0001889   -3.4574270  
H    6.4683339   -0.0016483   -2.4247504  
C    0.0000000    0.0000000    0.0000000  
C    1.0662924   -0.0000102   -0.8334267  
C    0.4961874    0.0000064   -2.1718888  
C   -0.9663853   -0.0000849   -1.9540250  
N   -1.2632772   -0.0000084   -0.6828660  
C   -1.8985357   -0.0000515   -3.0477261  
C   -1.3925767    0.0004566   -4.3020548  
O   -2.1456375    0.0005411   -5.4151316  
C    0.0786242    0.0009324   -4.5545000  
O    0.4683770    0.0012590   -5.7221099  
C    1.0143173    0.0008443   -3.4159029  
H    2.1107200    0.0000632   -0.5721862  
H   -2.9622180   -0.0003269   -2.8593382  
H   -1.5042262    0.0009694   -6.1484423  
C    1.0965515   -0.0001358    2.2710304  
C    0.0000000    0.0000000    1.4700000  
C   -1.1546562   -0.0001469    2.3369512  
C   -0.6372014   -0.0003519    3.7186280  
N    0.7342871   -0.0007337    3.6095011  
C   -1.4147739   -0.0001353    4.8308716  
C   -2.8576048    0.0001048    4.6554461  
O   -3.6427778    0.0002493    5.5944904  
C   -3.4275839    0.0000726    3.2011665  
O   -4.6406829   -0.0000333    3.0410059  
C   -2.4891866    0.0001091    2.0816745  
H   -1.0150448   -0.0001615    5.8354244  
H   -2.8919121    0.0002919    1.0779135  
H    2.1388271   -0.0000662    1.9961646  
H    1.3735872    0.0006099    4.3830260  
