62

C    0.4524392   -2.5880356   -9.7579770  
C    0.9505267   -2.0226862  -10.9089574  
C    0.6264595   -0.6342925  -10.8648728  
C   -0.0751871   -0.4089473   -9.6529166  
N   -0.1650947   -1.6163263   -9.0057919  
C   -0.5499491    0.8512330   -9.2769704  
C   -0.3118042    1.9031473  -10.1400705  
O   -0.7532004    3.1549273   -9.8219032  
C    0.3860958    1.6982193  -11.3540549  
O    0.5431355    2.8446665  -12.1052802  
C    0.8545107    0.4552428  -11.7257034  
H    1.4810958   -2.5467404  -11.6853956  
H   -0.6015303   -1.7657557   -8.1140656  
H   -0.4860296    3.7317502  -10.5493360  
H    1.0238377    2.6191186  -12.9075627  
H    1.3856487    0.3288951  -12.6618703  
H    0.4875672   -3.6077994   -9.4147485  
C    0.0032431   -0.7070486   -5.1230097  
C    0.1389296   -0.4524109   -6.4680805  
C   -0.8935728    0.4649643   -6.8243974  
C   -1.6340599    0.7365948   -5.6454899  
N   -1.0641734    0.0073898   -4.6315339  
C   -2.7306621    1.6036560   -5.6241304  
C   -3.0860377    2.2077438   -6.8144937  
O   -4.1486912    3.0636135   -6.8500938  
C   -2.3598153    1.9491140   -8.0013078  
O   -2.8375876    2.6265547   -9.1041002  
C   -1.2780504    1.0936416   -8.0231743  
H    0.8890558   -0.8766288   -7.1133275  
H   -3.2992632    1.8147639   -4.7289611  
H   -4.2229887    3.3688076   -7.7636589  
H   -2.2920027    2.3963769   -9.8623602  
H    0.5825401   -1.3428730   -4.4756292  
C    1.1319248    0.0015675   -0.8009270  
C    0.7969916    0.0034959   -2.1169404  
C   -0.6453336    0.0035703   -2.1842672  
C   -1.1266831    0.0015415   -0.7896027  
N    0.0000000    0.0000000    0.0000000  
C   -2.4346129    0.0013924   -0.4276297  
C   -3.4350110    0.0031352   -1.4820184  
O   -4.6384610    0.0030897   -1.2583919  
C   -2.9478958    0.0050460   -2.9661075  
O   -3.7809377    0.0062160   -3.8623775  
C   -1.5113821    0.0053068   -3.2312125  
H    1.4821240    0.0045436   -2.9459192  
H   -2.7664565    0.0000185    0.6013447  
H    2.1104318    0.0009428   -0.3488058  
C    2.4951002    2.0940188    2.9809380  
C    1.9440701    1.6314916    1.8291961  
C    0.8759964    0.7350050    2.2038498  
C    0.8497377    0.7130254    3.6788474  
N    1.8560616    1.5571714    4.0882609  
C   -0.0205033   -0.0168748    4.4215661  
C   -0.9962600   -0.8356168    3.7214979  
O   -1.8224391   -1.5286685    4.3006425  
C   -0.9864710   -0.8277881    2.1595606  
O   -1.8030528   -1.5133726    1.5592035  
C    0.0000000    0.0000000    1.4700000  
H    2.2509283    1.8888011    0.8310761  
H   -0.0229599   -0.0187323    5.5027230  
H    3.3143982    2.7817323    3.1139444  
H    2.0889452    1.7545833    5.0442112  
