64

C    3.3982178   -0.7145515   -2.9707414  
C    4.6647797   -0.4659384   -3.4466418  
C    4.5287062    0.4428853   -4.5375698  
C    3.1442637    0.7157497   -4.6817636  
N    2.4861703   -0.0045376   -3.7159919  
C    2.6410831    1.5757823   -5.6625505  
C    3.5521108    2.1714432   -6.5130773  
O    3.1150136    3.0202122   -7.4885517  
C    4.9373492    1.9114455   -6.3852787  
O    5.7157918    2.5801127   -7.3073712  
C    5.4344347    1.0629029   -5.4181137  
H    5.5747236   -0.8885872   -3.0563047  
H    1.5870514    1.7877859   -5.7777583  
H    3.9017848    3.3202307   -7.9620967  
H    6.6368419    2.3495915   -7.1520321  
H    6.5005906    0.8829384   -5.3446134  
H    3.0731387   -1.3432799   -2.1595800  
C    0.0000000    0.0000000    0.0000000  
C    1.0521669   -0.0011899   -0.8862338  
C    0.4917222   -0.0011953   -2.1979129  
C   -0.9187426    0.0003152   -2.0478681  
N   -1.1833169   -0.0009409   -0.7007913  
C   -1.7951697    0.0010354   -3.1372090  
C   -1.2375835    0.0005230   -4.4010425  
O   -2.0474206    0.0015366   -5.4997579  
C    0.1673585   -0.0013561   -4.5711965  
O    0.5673529   -0.0020681   -5.8915554  
C    1.0325774   -0.0023407   -3.4969889  
H    2.0953060   -0.0030646   -0.6200560  
H   -2.0989776    0.0102374   -0.2891826  
H   -1.4634880    0.0006503   -6.2693594  
H    1.5290717   -0.0033145   -5.9180047  
C   -3.9706153    0.7078471   -2.0752020  
C   -3.2578649    0.0024042   -2.9908508  
C   -4.2092566   -0.7390484   -3.7845369  
C   -5.5442781   -0.4053283   -3.2524292  
N   -5.3302438    0.4757924   -2.2176803  
C   -6.7107799   -0.9039059   -3.7345068  
C   -6.6471507   -1.8312551   -4.8518742  
O   -7.6418937   -2.3349344   -5.3569434  
C   -5.2439093   -2.1989840   -5.4310938  
O   -5.1777879   -2.9789254   -6.3716146  
C   -4.0578490   -1.5968503   -4.8273162  
H   -7.6796123   -0.6460676   -3.3297935  
H   -3.0900444   -1.8564939   -5.2343348  
H   -3.6170005    1.3775599   -1.3081746  
H   -6.0508677    0.8884477   -1.6542406  
C    3.3041272   -0.0001177    3.0120429  
C    2.5845372    0.0004780    1.8395852  
C    1.2040006    0.0000008    2.1983588  
C    1.1422373   -0.0006037    3.6154372  
N    2.4348639   -0.0026109    4.0777464  
C   -0.0655181   -0.0008797    4.3197917  
C   -1.2321768   -0.0002324    3.5801400  
O   -2.4392816   -0.0001146    4.2172520  
C   -1.1911209    0.0000007    2.1655264  
O   -2.4371527    0.0002320    1.5732860  
C    0.0000000    0.0000000    1.4700000  
H    3.0031534    0.0000661    0.8477417  
H    2.7054629    0.0071099    5.0445261  
H   -0.1193549   -0.0014844    5.3997470  
H   -3.1132988    0.0000648    3.5251786  
H   -2.3200282    0.0004071    0.6183591  
H    4.3686625   -0.0004071    3.1724291  
