64

C   -0.3289540   -0.9916281   -9.4673366  
C   -0.4985899   -0.5765514  -10.7678758  
C   -0.7548559    0.8260441  -10.7272136  
C   -0.7288768    1.2145189   -9.3632709  
N   -0.4696770    0.0864361   -8.6251231  
C   -0.9423355    2.5324112   -8.9480782  
C   -1.1861662    3.4753726   -9.9276441  
O   -1.4009380    4.7770754   -9.5777072  
C   -1.2164255    3.1071917  -11.2937864  
O   -1.4719310    4.1602096  -12.1477263  
C   -1.0061982    1.8071985  -11.7040892  
H   -0.4453902   -1.2073249  -11.6386727  
H   -0.9239796    2.8349082   -7.9101188  
H   -1.5491818    5.2602482  -10.4010141  
H   -1.4751429    3.8262337  -13.0499758  
H   -1.0356048    1.5551599  -12.7576983  
H   -0.1201329   -1.9716521   -9.0737562  
C    2.3020059   -2.1258165   -5.9826638  
C    1.8093621   -1.6631473   -4.7844542  
C    0.7354063   -0.7757530   -5.0906400  
C    0.6179775   -0.7364003   -6.5036468  
N    1.5853777   -1.5658598   -7.0142844  
C   -0.3410999    0.0396022   -7.1615059  
C   -1.1974268    0.7893049   -6.3786729  
O   -2.1529115    1.5646259   -6.9693855  
C   -1.0957281    0.7635435   -4.9673579  
O   -2.0198648    1.5644924   -4.3287681  
C   -0.1496415   -0.0015615   -4.3176961  
H    2.1793383   -1.9313018   -3.8096702  
H    1.7380683   -1.7477623   -7.9897732  
H   -2.6343334    1.9980532   -6.2526991  
H   -1.8828076    1.4896273   -3.3794448  
H    3.1087985   -2.8098329   -6.1830798  
C    3.3003543    0.0005276   -1.4738987  
C    2.5232814    0.0003497   -2.6090747  
C    1.1623200   -0.0001320   -2.1820103  
C    1.1711883    0.0000582   -0.7636140  
N    2.4852300   -0.0014919   -0.3662360  
C    0.0000000    0.0000000    0.0000000  
C   -1.2020384    0.0000519   -0.6806477  
O   -2.3759249    0.0003493    0.0157743  
C   -1.2314656   -0.0005115   -2.0955510  
O   -2.5054392   -0.0008039   -2.6250180  
C   -0.0764516   -0.0007274   -2.8495195  
H    2.8919955   -0.0005620   -3.6205304  
H    2.8036267    0.0088183    0.5858662  
H   -3.0835638    0.0000347   -0.6418818  
H   -2.4360047   -0.0011529   -3.5845921  
H    4.3715549    0.0004895   -1.3667136  
C    0.0000000    0.0000000    1.4700000  
C    1.0662921    0.0000102    2.3034270  
C    0.4961870   -0.0000064    3.6418889  
C   -0.9663858    0.0000850    3.4240247  
N   -1.2632773    0.0000084    2.1528658  
C   -1.8985362    0.0000517    4.5177257  
C   -1.3925775   -0.0004564    5.7720543  
O   -2.1456383   -0.0005410    6.8851312  
C    0.0786232   -0.0009323    6.0245000  
O    0.4683759   -0.0012588    7.1921102  
C    1.0143166   -0.0008442    4.8859032  
H    2.1107198   -0.0000632    2.0421868  
H   -2.9622183    0.0003270    4.3293377  
H   -1.5042274   -0.0009692    7.6184419  
H    2.0724152   -0.0013148    5.1109744  
