62

C    7.3194396   -3.0904631   -1.8530823  
C    8.6900377   -2.9882108   -1.7941612  
C    9.0175550   -1.6250892   -2.0572813  
C    7.7956241   -0.9371905   -2.2708357  
N    6.7845377   -1.8567542   -2.1415113  
C    7.7374824    0.4301200   -2.5569669  
C    8.9346649    1.1155475   -2.6285251  
O    8.9355484    2.4522757   -2.9045144  
C   10.1641030    0.4467161   -2.4188548  
O   11.2682324    1.2671793   -2.5241294  
C   10.2222302   -0.9022079   -2.1368059  
H    9.3701856   -3.7968712   -1.5880985  
H    6.8094141    0.9602332   -2.7208922  
H    9.8608947    2.7297401   -2.9080230  
H   12.0564378    0.7378027   -2.3689016  
H   11.1787882   -1.3872349   -1.9811625  
H    6.6811770   -3.9461052   -1.7135990  
C    4.3489004   -2.1006737   -1.4732765  
C    3.1285975   -1.6364581   -1.8466929  
C    3.3412599   -0.7405810   -2.9589044  
C    4.7959149   -0.7207996   -3.2046236  
N    5.3494458   -1.5655068   -2.2702987  
C    5.4017638    0.0079522   -4.1760003  
C    4.5653394    0.8276897   -5.0367904  
O    5.0159498    1.5198386   -5.9402172  
C    3.0222818    0.8221878   -4.7944084  
O    2.3079743    1.5086269   -5.5126189  
C    2.4861704   -0.0045255   -3.7159919  
H    2.1869567   -1.8922660   -1.3944885  
H    6.4704903    0.0081992   -4.3395027  
H    4.6014745   -2.7885460   -0.6827525  
C    0.0000000    0.0000000    0.0000000  
C    1.0521669   -0.0011848   -0.8862341  
C    0.4917221   -0.0011931   -2.1979130  
C   -0.9187427    0.0003100   -2.0478683  
N   -1.1833170   -0.0009472   -0.7007915  
C   -1.7951698    0.0010259   -3.1372090  
C   -1.2375835    0.0005161   -4.4010425  
O   -2.0474208    0.0015256   -5.4997580  
C    0.1673584   -0.0013557   -4.5711962  
O    0.5673529   -0.0020659   -5.8915551  
C    1.0325773   -0.0023359   -3.4969890  
H    2.0953059   -0.0030542   -0.6200560  
H   -2.0989777    0.0102265   -0.2891825  
H   -2.8710930    0.0020274   -3.0295514  
H   -1.4634881    0.0006427   -6.2693593  
H    1.5290715   -0.0033076   -5.9180042  
C    1.0672568    0.0000697    2.3021913  
C    0.0000000    0.0000000    1.4700000  
C   -1.1601224    0.0000736    2.3478473  
C   -0.5938729    0.0000769    3.7138435  
N    0.7113367    0.0001554    3.6934124  
C   -1.4286986    0.0001879    4.8835240  
C   -2.7683114    0.0006799    4.6970523  
O   -3.6653903    0.0008304    5.6976972  
C   -3.3702025    0.0010610    3.3310774  
O   -4.5974910    0.0013779    3.2362962  
C   -2.4926826    0.0008943    2.1470656  
H   -0.9878360   -0.0000190    5.8697035  
H   -4.5324246    0.0012261    5.2533954  
H   -2.9677772    0.0012974    1.1752040  
H    2.1134392    0.0000545    2.0405121  
