62

C    5.1369745   -1.0914971   -7.1726279  
C    5.9350179   -0.7178287   -8.2290219  
C    5.7526687    0.6848726   -8.4128080  
C    4.8243320    1.1160833   -7.4308836  
N    4.4691981    0.0122484   -6.6960052  
C    4.4085691    2.4459778   -7.3155102  
C    4.9398618    3.3572217   -8.2074410  
O    4.5685132    4.6688809   -8.1391522  
C    5.8671037    2.9462179   -9.1944143  
O    6.3043881    3.9713914  -10.0075210  
C    6.2775076    1.6343615   -9.3089885  
H    6.5695942   -1.3755669   -8.7979569  
H    3.7012378    2.7809906   -6.5694195  
H    5.0491149    5.1256548   -8.8417506  
H    6.9268639    3.6092102  -10.6454503  
H    6.9889507    1.3492693  -10.0751785  
H    4.9901851   -2.0582730   -6.7223438  
C    4.5546440   -2.0975051   -2.8456837  
C    3.3966020   -1.6333854   -2.3093944  
C    2.8128209   -0.7373022   -3.2794820  
C    3.7322614   -0.7172951   -4.4331801  
N    4.7679905   -1.5620816   -4.1068518  
C    3.5352976    0.0116908   -5.5607836  
C    2.3379419    0.8314596   -5.6435733  
O    2.0707015    1.5238118   -6.6169859  
C    1.3504337    0.8257212   -4.4333667  
O    0.3391714    1.5121846   -4.4914818  
C    1.6707636   -0.0012343   -3.2725974  
H    2.9970334   -1.8893868   -1.3442924  
H    5.2702680   -2.7854719   -2.4255961  
H    5.5563150   -1.7607949   -4.6951584  
C    1.0965514    0.0001358   -0.8010306  
C    0.0000000    0.0000000    0.0000000  
C   -1.1546565    0.0001470   -0.8669508  
C   -0.6372019    0.0003520   -2.2486278  
N    0.7342867    0.0007338   -2.1395012  
C   -1.4147744    0.0001354   -3.3608712  
C   -2.8576052   -0.0001047   -3.1854454  
O   -3.6427785   -0.0002490   -4.1244896  
C   -3.4275841   -0.0000727   -1.7311660  
O   -4.6406832    0.0000333   -1.5710049  
C   -2.4891868   -0.0001090   -0.6116739  
H   -1.0150456    0.0001617   -4.3654239  
H   -2.8919122   -0.0002919    0.3920871  
H    2.1388270    0.0000663   -0.5261650  
C    2.5285572    2.1210227    2.9438989  
C    1.9331703    1.6216660    4.0790748  
C    0.8903039    0.7472258    3.6520102  
C    0.8972198    0.7527806    2.2336141  
N    1.9028376    1.5986179    1.8362361  
C    0.0000000    0.0000000    1.4700000  
C   -0.9207814   -0.7726952    2.1506477  
O   -1.8198395   -1.5274828    1.4542253  
C   -0.9436862   -0.7911793    3.5655508  
O   -1.9197945   -1.6098497    4.0950179  
C   -0.0590329   -0.0485852    4.3195194  
H    2.2150357    1.8593692    5.0905303  
H    2.1533708    1.7953814    0.8841339  
H   -2.3621246   -1.9821033    2.1118817  
H   -1.8668290   -1.5649508    5.0545920  
H   -0.1007624   -0.0827977    5.4019087  
H    3.3491200    2.8096064    2.8367138  
