62

C    6.8266707    0.0941488   -4.2478086  
C    7.8519482   -0.5544130   -3.5992406  
C    9.0652222   -0.1534103   -4.2330897  
C    8.7146410    0.7485481   -5.2701482  
N    7.3477874    0.8751276   -5.2527253  
C    9.6632532    1.3459822   -6.1056107  
C   10.9899659    1.0273203   -5.8900498  
O   11.9574168    1.5825233   -6.6766889  
C   11.3595561    0.1292568   -4.8606320  
O   12.7193617   -0.0866088   -4.7730091  
C   10.4242417   -0.4607089   -4.0362223  
H    7.7391565   -1.2339028   -2.7718565  
H    6.8110880    1.4586132   -5.8687443  
H    9.4025204    2.0341120   -6.8978848  
H   12.8003842    1.2311359   -6.3617326  
H   12.8835614   -0.7041538   -4.0537871  
H   10.7373757   -1.1448668   -3.2562523  
C    4.3304652   -2.1219079   -1.2732982  
C    5.3835929   -1.6226231   -2.0041219  
C    4.8312743   -0.7479113   -2.9861723  
C    3.4245697   -0.7532339   -2.8042903  
N    3.1541560   -1.5991997   -1.7574688  
C    2.5562217   -0.0001543   -3.6003001  
C    3.1181948    0.7726066   -4.5978997  
O    2.3162989    1.5276822   -5.4040242  
C    4.5194625    0.7908619   -4.7952149  
O    4.9245920    1.6096335   -5.8290562  
C    5.3766900    0.0479729   -4.0104840  
H    6.4220549   -1.8605475   -1.8492577  
H    2.2402070   -1.7958548   -1.3914013  
H    2.9021001    1.9822993   -6.0232374  
H    5.8833598    1.5645665   -5.8949077  
H    4.3252219   -2.8106318   -0.4458985  
C    0.0000000    0.0000000    0.0000000  
C    1.0541688   -0.0001719   -0.8560391  
C    0.5103141   -0.0000449   -2.1935955  
C   -0.9576367    0.0002461   -2.0455733  
N   -1.2018459   -0.0001392   -0.6915970  
C   -1.8348306    0.0008319   -3.0810611  
C   -1.2972842    0.0009739   -4.4314605  
O   -2.0050664    0.0014267   -5.4301321  
C    0.2542628    0.0004190   -4.6117571  
O    0.7184677    0.0002263   -5.7439119  
C    1.0974556    0.0000880   -3.4189127  
H    2.0940752   -0.0005479   -0.5817978  
H   -2.9081050    0.0011669   -2.9507065  
H   -2.1128195    0.0014911   -0.2706793  
C    3.2573670    0.0002920    2.9809380  
C    2.5379467    0.0001709    1.8291961  
C    1.1435042   -0.0000331    2.2038498  
C    1.1092607    0.0000083    3.6788474  
N    2.4227561   -0.0001909    4.0882609  
C   -0.0265533    0.0002524    4.4215661  
C   -1.3003036    0.0002640    3.7214979  
O   -2.3786784    0.0004133    4.3006425  
C   -1.2877726   -0.0000311    2.1595606  
O   -2.3539958   -0.0003306    1.5592035  
C    0.0000000    0.0000000    1.4700000  
H    2.9384090    0.0000368    0.8310761  
H   -0.0296291    0.0004086    5.5027230  
H    4.3270393    0.0004765    3.1139444  
H    2.7280493    0.0013407    5.0442112  
