60

C    6.9410535    0.0185223   -4.1695466  
C    7.9224761   -0.6574031   -3.4822311  
C    9.1692627   -0.2950844   -4.0728641  
C    8.8833811    0.6125632   -5.1247069  
N    7.5211558    0.7795910   -5.1572736  
C    9.8789260    1.1782226   -5.9270218  
C   11.1869178    0.8213467   -5.6624961  
O   12.1982606    1.3444381   -6.4152073  
C   11.4921834   -0.0830018   -4.6176112  
O   12.8409125   -0.3386340   -4.4800519  
C   10.5105411   -0.6416349   -3.8258825  
H    7.7596884   -1.3298393   -2.6574144  
H    7.0246653    1.3761507   -5.7941364  
H    9.6675848    1.8704893   -6.7303302  
H   13.0184710    0.9695708   -6.0688033  
H   12.9605667   -0.9577932   -3.7534649  
H   10.7747892   -1.3315321   -3.0329808  
C    4.3630981   -2.0949035   -1.3110652  
C    3.1522514   -1.6320804   -1.7156885  
C    3.3924175   -0.7354492   -2.8216760  
C    4.8529074   -0.7137075   -3.0297342  
N    5.3832069   -1.5581154   -2.0817639  
C    5.4827050    0.0162382   -3.9848458  
C    4.6677390    0.8352839   -4.8666223  
O    5.1406430    1.5283996   -5.7578311  
C    3.1189446    0.8277107   -4.6641775  
O    2.4225435    1.5135518   -5.4003220  
C    2.5562217   -0.0001543   -3.6003001  
H    2.1995750   -1.8892845   -1.2880585  
H    4.5960549   -2.7827971   -0.5145582  
H    6.3605504   -1.7557296   -1.9686511  
C    0.0000000    0.0000000    0.0000000  
C    1.0541688   -0.0001719   -0.8560391  
C    0.5103141   -0.0000449   -2.1935955  
C   -0.9576367    0.0002461   -2.0455733  
N   -1.2018459   -0.0001392   -0.6915970  
C   -1.8348306    0.0008319   -3.0810611  
C   -1.2972842    0.0009739   -4.4314605  
O   -2.0050664    0.0014267   -5.4301321  
C    0.2542628    0.0004190   -4.6117571  
O    0.7184677    0.0002263   -5.7439119  
C    1.0974556    0.0000880   -3.4189127  
H    2.0940752   -0.0005479   -0.5817978  
H   -2.9081050    0.0011669   -2.9507065  
H   -2.1128195    0.0014911   -0.2706793  
C    1.0672568    0.0000697    2.3021913  
C    0.0000000    0.0000000    1.4700000  
C   -1.1601224    0.0000736    2.3478473  
C   -0.5938729    0.0000769    3.7138435  
N    0.7113367    0.0001554    3.6934124  
C   -1.4286986    0.0001879    4.8835240  
C   -2.7683114    0.0006799    4.6970523  
O   -3.6653903    0.0008304    5.6976972  
C   -3.3702025    0.0010610    3.3310774  
O   -4.5974910    0.0013779    3.2362962  
C   -2.4926826    0.0008943    2.1470656  
H   -0.9878360   -0.0000190    5.8697035  
H   -4.5324246    0.0012261    5.2533954  
H   -2.9677772    0.0012974    1.1752040  
H    2.1134392    0.0000545    2.0405121  
