62

C   -0.9852701    0.8382347   -8.9499214  
C   -0.0436949    0.0365011   -9.5525219  
C   -0.2258812    0.1669178  -10.9612089  
C   -1.3020749    1.0692735  -11.1599232  
N   -1.7413749    1.4563323   -9.9182235  
C   -1.7589404    1.4334715  -12.4301288  
C   -1.1175161    0.8768373  -13.5195834  
O   -1.5229281    1.1983331  -14.7826331  
C   -0.0420667   -0.0257080  -13.3417118  
O    0.4920156   -0.4939715  -14.5244318  
C    0.4089957   -0.3856576  -12.0889119  
H    0.6841304   -0.5688199   -9.0398327  
H   -2.4897986    2.1021076   -9.7426752  
H   -2.5787516    2.1205617  -12.5883030  
H   -0.9507240    0.7070985  -15.3864021  
H    1.2120753   -1.0968103  -14.3153787  
H    1.2348659   -1.0794864  -11.9839450  
C    0.9349420   -0.7146696   -5.2228674  
C    0.6097017   -0.4617814   -6.5353967  
C   -0.4828641    0.4551586   -6.5243826  
C   -0.7832744    0.7283389   -5.1653192  
N    0.0950446    0.0004351   -4.4015596  
C   -1.8090090    1.5954571   -4.7770373  
C   -2.5446892    2.1980089   -5.7789774  
O   -3.5576318    3.0538606   -5.4557461  
C   -2.2603780    1.9378192   -7.1406991  
O   -3.0818527    2.6138417   -8.0190598  
C   -1.2487901    1.0822900   -7.5244763  
H    1.0989400   -0.8868570   -7.3950185  
H   -2.0430829    1.8077418   -3.7429452  
H   -3.9353228    3.3578706   -6.2913244  
H   -2.8233445    2.3826645   -8.9164638  
H    1.6986538   -1.3496691   -4.8075615  
C    3.3321173    0.0004713   -1.3379338  
C    2.6974181    0.0000116   -2.5332314  
C    1.2800438   -0.0002119   -2.2052841  
C    1.2395034    0.0000643   -0.7271299  
N    2.4394062    0.0005460   -0.2131038  
C    0.0000000    0.0000000    0.0000000  
C   -1.1468702    0.0000634   -0.7169543  
O   -2.3742203    0.0000074   -0.1695487  
C   -1.1388770    0.0001607   -2.2096355  
O   -2.2206234    0.0000905   -2.7970411  
C    0.1454522    0.0001815   -2.9324241  
H    3.1367984   -0.0000653   -3.5160950  
H   -2.9844346    0.0001026   -0.9290167  
H    4.3940038    0.0007618   -1.1498640  
C    2.3971438    2.0127888    3.1728260  
C    1.9431056    1.6308205    1.9564670  
C    0.8496017    0.7127664    2.2356185  
C    0.7794028    0.6545384    3.7115134  
N    1.6840587    1.4146091    4.2663826  
C   -0.1885723   -0.1578550    4.3957118  
C   -1.0476298   -0.8789867    3.6398520  
O   -2.0015663   -1.6796266    4.1448486  
C   -1.0022026   -0.8410666    2.1483229  
O   -1.8147390   -1.5232959    1.5241687  
C    0.0000000    0.0000000    1.4700000  
H    2.3054237    1.9346118    0.9892483  
H   -0.2170646   -0.1815267    5.4753125  
H   -2.4487139   -2.0549881    3.3649027  
H    3.2048689    2.6911772    3.3971983  
