62

C    6.3877999   -3.6834347   -2.1497951  
C    5.2002476   -3.0525812   -1.8596024  
C    4.8050143   -3.4866502   -0.5596123  
C    5.7990262   -4.3891626   -0.1020774  
N    6.7444367   -4.4874941   -1.0926062  
C    5.7353826   -5.0148028    1.1466471  
C    4.6486450   -4.7238317    1.9482177  
O    4.5369378   -5.3067112    3.1773582  
C    3.6464150   -3.8262701    1.5092018  
O    2.6283365   -3.6404258    2.4215183  
C    3.7084136   -3.2089051    0.2773162  
H    7.5758739   -5.0484529   -1.0476863  
H    6.4896401   -5.7037350    1.5011470  
H    3.7177608   -4.9719621    3.5648583  
H    1.9941607   -3.0210682    2.0475919  
H    2.9256131   -2.5261518   -0.0317956  
H    7.0079138   -3.6245578   -3.0278328  
C    4.4925596   -2.1138018   -2.7420827  
C    4.8565034   -1.6946783   -3.9763676  
C    3.8030381   -0.7794111   -4.3874593  
C    2.8583247   -0.7634593   -3.2499854  
N    3.2572738   -1.5436996   -2.2824868  
C    1.6628945    0.0339172   -3.2649299  
C    1.4223697    0.7816766   -4.3659923  
O    0.3461531    1.5724678   -4.5158194  
C    2.3568196    0.7871871   -5.5300085  
O    2.0745619    1.4917549   -6.4990988  
C    3.5763784   -0.0392785   -5.4905729  
H    5.7317950   -1.9722538   -4.5384111  
H    0.4536183    1.9730618   -5.3973683  
H    4.2275600   -0.0074308   -6.3538104  
C    1.1243410    0.0100105   -0.7919003  
C    0.7474072    0.0234665   -2.1148542  
C   -0.6787384    0.0234379   -2.1414698  
C   -1.1201748    0.0098411   -0.7935547  
N    0.0000000    0.0000000    0.0000000  
C   -2.4730818    0.0063307   -0.4408240  
C   -3.3971962    0.0170429   -1.4675058  
O   -4.7313520    0.0145490   -1.1793468  
C   -2.9763654    0.0303020   -2.8186325  
O   -4.0166484    0.0394464   -3.7247625  
C   -1.6418567    0.0334992   -3.1673480  
H   -2.8160166   -0.0041569    0.5845966  
H   -5.1938823    0.0230023   -2.0274386  
H   -3.6464680    0.0481700   -4.6127343  
H   -1.3497475    0.0435647   -4.2109234  
H    2.1062466    0.0053162   -0.3505405  
C    0.8400945    0.7047457    2.2710304  
C    0.0000000    0.0000000    1.4700000  
C   -0.8844236   -0.7423113    2.3369512  
C   -0.4878984   -0.4098547    3.7186280  
N    0.5629682    0.4714286    3.6095011  
C   -1.0836927   -0.9095027    4.8308716  
C   -2.1891196   -1.8367527    4.6554461  
O   -2.7906899   -2.3413415    5.5944904  
C   -2.6257283   -2.2031529    3.2011665  
O   -3.5549479   -2.9829990    3.0410059  
C   -1.9068976   -1.5999348    2.0816745  
H   -0.7774656   -0.6525820    5.8354244  
H   -2.2155208   -1.8586617    1.0779135  
H    1.6384792    1.3747609    1.9961646  
H    1.0518368    0.8833920    4.3830260  
