64

C   -0.0432822    0.0795050   -8.8377871  
C    0.9706875   -0.5890246   -9.4838516  
C    0.9073957   -0.2133881  -10.8584396  
C   -0.1742268    0.6943878  -10.9924612  
N   -0.7309214    0.8486814   -9.7471100  
C   -0.5300811    1.2715680  -12.2151715  
C    0.2198033    0.9262944  -13.3227087  
O   -0.0841482    1.4609220  -14.5412324  
C    1.3024955    0.0220188  -13.2092181  
O    1.9509092   -0.2212874  -14.4024101  
C    1.6539519   -0.5479759  -12.0033542  
H    1.6692582   -1.2652037   -9.0214951  
H   -1.5108540    1.4422740   -9.5295471  
H   -1.3534296    1.9639983  -12.3239827  
H    0.5527551    1.0928465  -15.1674425  
H    2.6679804   -0.8412677  -14.2379797  
H    2.4881469   -1.2375110  -11.9473350  
C    1.5647267   -2.0539609   -5.3222409  
C    1.3415395   -1.5772682   -6.5740504  
C    0.2114932   -0.6825507   -6.4885492  
C   -0.2083729   -0.6770016   -5.0741686  
N    0.6518899   -1.5286397   -4.4202948  
C   -1.2456329    0.0471727   -4.5828766  
C   -1.9989040    0.8763046   -5.5089745  
O   -2.9500475    1.5652087   -5.1639551  
C   -1.5719694    0.8855374   -7.0114550  
O   -2.1988659    1.5795068   -7.8005473  
C   -0.4365506    0.0629998   -7.4214647  
H    1.9041938   -1.8243657   -7.4566468  
H    2.3191293   -2.7449950   -4.9827726  
H    0.6225289   -1.7350433   -3.4386725  
C    1.1243410    0.0099923   -0.7919003  
C    0.7474076    0.0234544   -2.1148543  
C   -0.6787381    0.0234490   -2.1414700  
C   -1.1201745    0.0098592   -0.7935546  
N    0.0000000    0.0000000    0.0000000  
C   -2.4730816    0.0063709   -0.4408240  
C   -3.3971958    0.0170982   -1.4675058  
O   -4.7313517    0.0146259   -1.1793471  
C   -2.9763648    0.0303504   -2.8186324  
O   -4.0166480    0.0395118   -3.7247624  
C   -1.6418562    0.0335260   -3.1673481  
H    1.4178717    0.0310972   -2.9571209  
H   -2.8160166   -0.0041111    0.5845966  
H   -5.1938818    0.0230867   -2.0274384  
H   -3.6464675    0.0482293   -4.6127343  
H    2.1062467    0.0052819   -0.3505407  
C    0.8676693    0.7151171    2.2619005  
C    0.5875920    0.4624972    3.5848544  
C   -0.5048400   -0.4542819    3.6114698  
C   -0.8517165   -0.7276451    2.2635546  
N    0.0000000    0.0000000    1.4700000  
C   -1.8902865   -1.5946756    1.9108239  
C   -2.5912627   -2.1969500    2.9375057  
O   -3.6148162   -3.0527051    2.6493466  
C   -2.2603868   -1.9365747    4.2886322  
O   -3.0513550   -2.6123276    5.1947621  
C   -1.2361111   -1.0811317    4.6373480  
H    1.1060808    0.8876438    4.4271209  
H   -2.1597133   -1.8070987    0.8854031  
H   -3.9636755   -3.3565188    3.4974381  
H   -2.7621927   -2.3810384    6.0827341  
H   -1.0058879   -0.9010589    5.6809233  
H    1.6167816    1.3499334    1.8205408  
