62

C    6.7636938   -0.0009527    0.9023169  
C    5.4671763   -0.0013101    0.4424133  
C    5.5308674   -0.0015360   -0.9825579  
C    6.9040849   -0.0015865   -1.3378040  
N    7.6252196    0.0007239   -0.1696528  
C    7.3417435   -0.0020994   -2.6656760  
C    6.3755446   -0.0028771   -3.6529133  
O    6.7475665   -0.0037537   -4.9661586  
C    5.0004299   -0.0024646   -3.3184348  
O    4.1619027   -0.0029228   -4.4139783  
C    4.5679461   -0.0016852   -2.0086700  
H    4.5841351   -0.0002918    1.0582295  
H    8.6271383   -0.0093205   -0.1061169  
H    8.3868646   -0.0019967   -2.9430282  
H    5.9304031   -0.0038905   -5.4814346  
H    3.2522420   -0.0026268   -4.1007370  
H    7.1420553   -0.0003154    1.9101865  
C    3.1301152   -0.0010311   -1.7028251  
C    2.5367770   -0.0002766   -0.4864665  
C    1.1089905    0.0001028   -0.7656183  
C    1.0177873   -0.0004148   -2.2415130  
N    2.1993580   -0.0011610   -2.7963820  
C   -0.2459208   -0.0002877   -2.9257119  
C   -1.3675318   -0.0000605   -2.1698523  
O   -2.6129310    0.0000866   -2.6748492  
C   -1.3083584    0.0000911   -0.6783232  
O   -2.3693259    0.0004206   -0.0541692  
C    0.0000000    0.0000000    0.0000000  
H    3.0096019   -0.0001007    0.4807529  
H   -3.1967440    0.0002093   -1.8949035  
C    2.1801859   -2.1249306   -6.0224132  
C    1.6691598   -1.6625651   -4.8318093  
C    0.6003603   -0.7747105   -5.1542714  
C    0.5048762   -0.7347770   -6.5689139  
N    1.4798211   -1.5643487   -7.0648075  
C   -0.4436385    0.0417843   -7.2412689  
C   -1.3117709    0.7914591   -6.4715212  
O   -2.2577347    1.5673118   -7.0766809  
C   -1.2319841    0.7651226   -5.0588081  
O   -2.1656642    1.5661204   -4.4343181  
C   -0.2963281   -0.0005339   -4.3948471  
H    2.0238873   -1.9312124   -3.8515079  
H    1.6475679   -1.7459248   -8.0378812  
H   -0.5214946    0.0766782   -8.3191935  
H   -2.7500797    2.0006169   -6.3673801  
H   -2.0433726    1.4908467   -3.4830125  
H    2.9897760   -2.8091272   -6.2105567  
C    0.8175213    0.6860729    2.3021913  
C    0.0000000    0.0000000    1.4700000  
C   -0.8887526   -0.7456559    2.3478473  
C   -0.4549825   -0.3816753    3.7138435  
N    0.5448156    0.4573574    3.6934124  
C   -1.0945674   -0.9182058    4.8835240  
C   -2.1210866   -1.7789155    4.6970523  
O   -2.8083856   -2.3554314    5.6976972  
C   -2.5824069   -2.1655116    3.3310774  
O   -3.5227682   -2.9541547    3.2362962  
C   -1.9100805   -1.6015804    2.1470656  
H   -0.7567140   -0.6349833    5.8697035  
H   -3.4728268   -2.9124471    5.2533954  
H   -2.2742832   -1.9066565    1.1752040  
H    1.6189533    1.3585343    2.0405121  
