60

C    3.5052202   -3.5709728   -4.1410060  
C    4.6146886   -4.3444094   -4.3926884  
C    4.9334402   -4.1785370   -5.7730806  
C    3.9757078   -3.2847087   -6.3169072  
N    3.1222050   -2.9366273   -5.2995630  
C    3.9838404   -2.8923089   -7.6588263  
C    4.9770691   -3.4114475   -8.4663966  
O    5.0318006   -3.0612791   -9.7845016  
C    5.9413896   -4.3049151   -7.9423558  
O    6.8647857   -4.7345614   -8.8729924  
C    5.9338128   -4.6926738   -6.6186815  
H    5.1301248   -4.9541141   -3.6704841  
H    3.2566511   -2.2115326   -8.0794693  
H    5.7891185   -3.5289421  -10.1600354  
H    7.4789789   -5.3337366   -8.4378364  
H    6.6854091   -5.3786825   -6.2458914  
H    2.9559449   -3.4227385   -3.2270684  
C    1.9859502   -2.0121222   -5.4225055  
C    1.1142987   -1.6302696   -4.4602212  
C    0.2013165   -0.7124160   -5.1239291  
C    0.6817523   -0.6541656   -6.5212024  
N    1.7275942   -1.4140512   -6.7022472  
C    0.0351788    0.1580608   -7.5148402  
C   -1.0425997    0.8790114   -7.1301861  
O   -1.7423825    1.6794830   -7.9521295  
C   -1.5518357    0.8410637   -5.7275461  
O   -2.5376877    1.5231241   -5.4480632  
C   -0.8712826    0.0001710   -4.7267111  
H    1.0933977   -1.9340156   -3.4275658  
H    0.4078533    0.1817532   -8.5284790  
H   -2.4462789    2.0547409   -7.3927868  
C    1.0965514    0.0001359   -0.8010305  
C    0.0000000    0.0000000    0.0000000  
C   -1.1546563    0.0001470   -0.8669513  
C   -0.6372014    0.0003519   -2.2486282  
N    0.7342871    0.0007337   -2.1395014  
C   -1.4147739    0.0001352   -3.3608717  
C   -2.8576049   -0.0001048   -3.1854462  
O   -3.6427779   -0.0002494   -4.1244907  
C   -3.4275840   -0.0000725   -1.7311666  
O   -4.6406831    0.0000333   -1.5710060  
C   -2.4891867   -0.0001091   -0.6116744  
H   -2.8919122   -0.0002918    0.3920866  
H    2.1388272    0.0000663   -0.5261648  
H    1.3735872   -0.0006099   -2.9130262  
C    0.8175213    0.6860729    2.3021913  
C    0.0000000    0.0000000    1.4700000  
C   -0.8887526   -0.7456559    2.3478473  
C   -0.4549825   -0.3816753    3.7138435  
N    0.5448156    0.4573574    3.6934124  
C   -1.0945674   -0.9182058    4.8835240  
C   -2.1210866   -1.7789155    4.6970523  
O   -2.8083856   -2.3554314    5.6976972  
C   -2.5824069   -2.1655116    3.3310774  
O   -3.5227682   -2.9541547    3.2362962  
C   -1.9100805   -1.6015804    2.1470656  
H   -0.7567140   -0.6349833    5.8697035  
H   -3.4728268   -2.9124471    5.2533954  
H   -2.2742832   -1.9066565    1.1752040  
H    1.6189533    1.3585343    2.0405121  
