64

C    7.5161552   -0.6273220   -4.8403109  
C    8.8861751   -0.5573834   -4.7372441  
C    9.2545295    0.7963246   -4.9949061  
C    8.0569518    1.5120484   -5.2507816  
N    7.0205195    0.6173800   -5.1508124  
C    8.0408075    2.8789979   -5.5440027  
C    9.2557177    3.5354485   -5.5792673  
O    9.2974901    4.8704699   -5.8603124  
C   10.4613790    2.8385894   -5.3271039  
O   11.5876297    3.6320894   -5.3996224  
C   10.4780797    1.4900027   -5.0380358  
H    9.5397651   -1.3809980   -4.5060042  
H    7.1314744    3.4302338   -5.7401001  
H   10.2288302    5.1258541   -5.8348084  
H   12.3575143    3.0848709   -5.2167693  
H   11.4172245    0.9831238   -4.8494654  
H    6.8534418   -1.4668968   -4.7183128  
C    3.4043357   -0.7242382   -2.9869837  
C    2.4861704   -0.0045255   -3.7159919  
C    3.2157601    0.7227063   -4.7026190  
C    4.5865270    0.4039558   -4.5256374  
N    4.6659996   -0.4754871   -3.4745038  
C    5.5977273    0.9420304   -5.3273469  
C    5.2182040    1.8176007   -6.3261040  
O    6.1649633    2.3718700   -7.1381671  
C    3.8556303    2.1482705   -6.5181128  
O    3.6391784    3.0341207   -7.5533719  
C    2.8575497    1.6180349   -5.7274092  
H    5.5125626   -0.8857746   -3.1238232  
H    5.6928636    2.9443313   -7.7567739  
H    2.6943217    3.2044150   -7.6154184  
H    1.8225156    1.8901100   -5.8981669  
H    3.2592093   -1.3942244   -2.1569140  
C    0.0000000    0.0000000    0.0000000  
C    1.0521669   -0.0011848   -0.8862341  
C    0.4917221   -0.0011931   -2.1979130  
C   -0.9187427    0.0003100   -2.0478683  
N   -1.1833170   -0.0009472   -0.7007915  
C   -1.7951698    0.0010259   -3.1372090  
C   -1.2375835    0.0005161   -4.4010425  
O   -2.0474208    0.0015256   -5.4997580  
C    0.1673584   -0.0013557   -4.5711962  
O    0.5673529   -0.0020659   -5.8915551  
C    1.0325773   -0.0023359   -3.4969890  
H    2.0953059   -0.0030542   -0.6200560  
H   -2.0989777    0.0102265   -0.2891825  
H   -2.8710930    0.0020274   -3.0295514  
H   -1.4634881    0.0006427   -6.2693593  
H    1.5290715   -0.0033076   -5.9180042  
C    1.1319247   -0.0015655    2.2709268  
C    0.7969915   -0.0034943    3.5869401  
C   -0.6453339   -0.0035710    3.6542670  
C   -1.1266833   -0.0015433    2.2596025  
N    0.0000000    0.0000000    1.4700000  
C   -2.4346130   -0.0013964    1.8976294  
C   -3.4350110   -0.0031408    2.9520183  
O   -4.6384611   -0.0030974    2.7283916  
C   -2.9478959   -0.0050506    4.4361073  
O   -3.7809380   -0.0062218    5.3323774  
C   -1.5113823   -0.0053090    4.7012123  
H    1.4821238   -0.0045407    4.4159191  
H   -2.7664565   -0.0000232    0.8686553  
H   -1.1823530   -0.0068408    5.7314848  
H    2.1104316   -0.0009391    1.8188057  
