60

C    1.6842443   -2.3757922   -7.7523254  
C    2.3201031   -2.5875068   -8.9537108  
C    2.2666700   -1.3582984   -9.6753693  
C    1.5805271   -0.4247379   -8.8570797  
N    1.2391460   -1.0756980   -7.6976283  
C    1.3434755    0.8955810   -9.2512290  
C    1.8078014    1.2805731  -10.4939512  
O    1.6038266    2.5583527  -10.9283317  
C    2.4942490    0.3635194  -11.3249872  
O    2.8933360    0.8985949  -12.5323672  
C    2.7282242   -0.9392379  -10.9369075  
H    2.7664657   -3.5142463   -9.2713735  
H    0.8210387    1.6119300   -8.6322728  
H    2.0010273    2.6146679  -11.8071513  
H    3.3488361    0.2145036  -13.0325096  
H    3.2567341   -1.6189597  -11.5950367  
H    1.5117433   -3.0497089   -6.9307177  
C    0.8071496   -0.7052398   -5.2248761  
C   -0.0307352   -0.0004646   -4.4215603  
C   -0.9176981    0.7416309   -5.2860987  
C   -0.5250712    0.4090154   -6.6688499  
N    0.5261924   -0.4721443   -6.5625864  
C   -1.1240788    0.9084416   -7.7794661  
C   -2.2290977    1.8356037   -7.6010302  
O   -2.8333890    2.3399950   -8.5384317  
C   -2.6616049    2.2021691   -6.1455673  
O   -3.5904454    2.9819428   -5.9828759  
C   -1.9395302    1.5991864   -5.0280379  
H   -0.8206845    0.6514074   -8.7848490  
H   -2.2453232    1.8580264   -4.0234399  
H    1.6063820   -1.3751333   -4.9521863  
C    3.2573670   -0.0002920   -1.5109380  
C    2.5379468   -0.0001709   -0.3591961  
C    1.1435043    0.0000332   -0.7338500  
C    1.1092609   -0.0000082   -2.2088477  
N    2.4227562    0.0001909   -2.6182613  
C   -0.0265532   -0.0002522   -2.9515663  
C   -1.3003035   -0.0002639   -2.2514981  
O   -2.3786784   -0.0004131   -2.8306429  
C   -1.2877725    0.0000312   -0.6895608  
O   -2.3539958    0.0003307   -0.0892036  
C    0.0000000    0.0000000    0.0000000  
H    2.9384091   -0.0000369    0.6389239  
H    4.3270394   -0.0004765   -1.6439446  
H    2.7280494   -0.0013406   -3.5742113  
C    0.0000000    0.0000000    1.4700000  
C    1.0662921    0.0000102    2.3034270  
C    0.4961870   -0.0000064    3.6418889  
C   -0.9663858    0.0000850    3.4240247  
N   -1.2632773    0.0000084    2.1528658  
C   -1.8985362    0.0000517    4.5177257  
C   -1.3925775   -0.0004564    5.7720543  
O   -2.1456383   -0.0005410    6.8851312  
C    0.0786232   -0.0009323    6.0245000  
O    0.4683759   -0.0012588    7.1921102  
C    1.0143166   -0.0008442    4.8859032  
H    2.1107198   -0.0000632    2.0421868  
H   -2.9622183    0.0003270    4.3293377  
H   -1.5042274   -0.0009692    7.6184419  
H    2.0724152   -0.0013148    5.1109744  
