62

C    7.6962073   -3.3825302   -6.5699340  
C    7.1853688   -2.1191540   -6.3818050  
C    7.7734223   -1.2802232   -7.3742701  
C    8.6418592   -2.0940993   -8.1458602  
N    8.5726517   -3.3642521   -7.6295847  
C    9.3907973   -1.5975269   -9.2169789  
C    9.2604525   -0.2549575   -9.5147962  
O    9.9685224    0.2819031  -10.5508625  
C    8.3993585    0.5733518   -8.7563525  
O    8.3792834    1.8871783   -9.1768270  
C    7.6604165    0.0842069   -7.6993622  
H    9.0731977   -4.1610634   -7.9796236  
H   10.0545649   -2.2125707   -9.8088699  
H    9.7343101    1.2185044  -10.5853146  
H    7.7738906    2.3778713   -8.6126246  
H    7.0093471    0.7428901   -7.1365811  
H    7.5058090   -4.2949201   -6.0311837  
C    6.1745029   -2.1408800   -4.0544034  
C    6.2180775   -1.7334918   -5.3442539  
C    5.0926412   -0.8229053   -5.4882169  
C    4.4611847   -0.7965391   -4.1513727  
N    5.0910257   -1.5671311   -3.3066964  
C    3.2973506   -0.0000934   -3.8752374  
C    2.7877444    0.7368257   -4.8884434  
O    1.7057652    1.5254555   -4.7725803  
C    3.4025815    0.7316574   -6.2486306  
O    2.8855805    1.4266378   -7.1232349  
C    4.5959743   -0.0936240   -6.5067945  
H    1.5889229    1.9175677   -5.6567458  
H    5.0113657   -0.0697227   -7.5053481  
H    6.8407164   -2.8229592   -3.5505179  
C    3.3321174    0.0004714   -1.3379332  
C    2.6974186    0.0000115   -2.5332308  
C    1.2800441   -0.0002119   -2.2052838  
C    1.2395035    0.0000643   -0.7271293  
N    2.4394063    0.0005458   -0.2131034  
C    0.0000000    0.0000000    0.0000000  
C   -1.1468701    0.0000634   -0.7169542  
O   -2.3742201    0.0000072   -0.1695492  
C   -1.1388767    0.0001606   -2.2096354  
O   -2.2206229    0.0000903   -2.7970413  
C    0.1454526    0.0001815   -2.9324239  
H   -2.9844344    0.0001023   -0.9290168  
H    0.1083580    0.0003680   -4.0135594  
H    4.3940040    0.0007617   -1.1498630  
C    2.5311839    2.1237619    3.0120429  
C    1.9795631    1.6616747    1.8395852  
C    0.9223175    0.7739173    2.1983588  
C    0.8753926    0.7337535    3.6154372  
N    1.8668922    1.5631002    4.0777464  
C   -0.0496243   -0.0427881    4.3197917  
C   -0.9437528   -0.7922060    3.5801400  
O   -1.8685244   -1.5680278    4.2172520  
C   -0.9124520   -0.7656372    2.1655264  
O   -1.8671164   -1.5663939    1.5732860  
C    0.0000000    0.0000000    1.4700000  
H    2.3005065    1.9304404    0.8477417  
H    2.0679347    1.7444845    5.0445261  
H   -0.0904770   -0.0778569    5.3997470  
H   -2.3849669   -2.0011402    3.5251786  
H   -1.7775064   -1.4909735    0.6183591  
H    3.3468514    2.8078103    3.1724291  
