64

C    4.2664300   -2.1162653   -6.1060701  
C    2.9913521   -1.6551760   -6.3385346  
C    3.0662569   -0.7674391   -7.4524967  
C    4.4238585   -0.7262587   -7.8613338  
N    5.1256585   -1.5550063   -7.0215291  
C    4.8667847    0.0505485   -8.9361253  
C    3.9219587    0.7991916   -9.6106718  
O    4.2999559    1.5752304  -10.6679786  
C    2.5627214    0.7716040   -9.2175694  
O    1.7448081    1.5716766   -9.9884427  
C    2.1250966    0.0057042   -8.1571890  
H    2.1152197   -1.9245766   -5.7739029  
H    6.1117997   -1.7356349   -7.0751774  
H    5.9001034    0.0863908   -9.2526210  
H    3.4982360    2.0077030  -10.9896576  
H    0.8448719    1.4955870   -9.6568881  
H    4.6311947   -2.7999803   -5.3587818  
C   -0.1387078    0.0017019   -4.3179684  
C    0.8847664    0.0023479   -5.2034512  
C    0.2487278    0.0030110   -6.5118679  
C   -1.2011837    0.0025365   -6.2214542  
N   -1.4344175    0.0018494   -4.9370902  
C   -2.1866324    0.0030146   -7.2673880  
C   -1.7437530    0.0043146   -8.5453518  
O   -2.5512988    0.0048871   -9.6195541  
C   -0.2869457    0.0051945   -8.8707332  
O    0.0441892    0.0062433  -10.0563003  
C    0.7042766    0.0046368   -7.7801358  
H    1.9409056    0.0024620   -4.9945358  
H   -3.2396158    0.0024440   -7.0262743  
H   -1.9471941    0.0058394  -10.3838902  
C    3.3041272    0.0001178   -1.5420428  
C    2.5845372   -0.0004779   -0.3695851  
C    1.2040007   -0.0000007   -0.7283589  
C    1.1422375    0.0006038   -2.1454371  
N    2.4348641    0.0026111   -2.6077464  
C   -0.0655179    0.0008799   -2.8497918  
C   -1.2321766    0.0002325   -2.1101402  
O   -2.4392816    0.0001148   -2.7472523  
C   -1.1911209   -0.0000007   -0.6955266  
O   -2.4371527   -0.0002320   -0.1032863  
C    0.0000000    0.0000000    0.0000000  
H    3.0031533   -0.0000660    0.6222584  
H    2.7054632   -0.0071097   -3.5745261  
H   -3.1132986   -0.0000648   -2.0551788  
H   -2.3200284   -0.0004071    0.8516409  
H    4.3686626    0.0004072   -1.7024289  
C    2.5311839    2.1237619    3.0120429  
C    1.9795631    1.6616747    1.8395852  
C    0.9223175    0.7739173    2.1983588  
C    0.8753926    0.7337535    3.6154372  
N    1.8668922    1.5631002    4.0777464  
C   -0.0496243   -0.0427881    4.3197917  
C   -0.9437528   -0.7922060    3.5801400  
O   -1.8685244   -1.5680278    4.2172520  
C   -0.9124520   -0.7656372    2.1655264  
O   -1.8671164   -1.5663939    1.5732860  
C    0.0000000    0.0000000    1.4700000  
H    2.3005065    1.9304404    0.8477417  
H    2.0679347    1.7444845    5.0445261  
H   -0.0904770   -0.0778569    5.3997470  
H   -2.3849669   -2.0011402    3.5251786  
H   -1.7775064   -1.4909735    0.6183591  
H    3.3468514    2.8078103    3.1724291  
