60

C   -0.0813830   -0.8975533   -9.6373942  
C   -0.1747048   -0.4956921  -10.9497465  
C   -0.4323880    0.9071863  -10.9382878  
C   -0.4858803    1.3094452   -9.5791508  
N   -0.2706014    0.1889450   -8.8157701  
C   -0.7227101    2.6314231   -9.1904676  
C   -0.9086306    3.5643724  -10.1920745  
O   -1.1429701    4.8695016   -9.8684444  
C   -0.8592753    3.1823832  -11.5538625  
O   -1.0641389    4.2266521  -12.4318596  
C   -0.6259501    1.8783526  -11.9380360  
H   -0.0710276   -1.1352309  -11.8095345  
H   -0.7648269    2.9444091   -8.1563169  
H   -1.2427523    5.3442880  -10.7038410  
H   -1.0148326    3.8835650  -13.3293358  
H   -0.5939334    1.6156614  -12.9889624  
H    0.1037594   -1.8734991   -9.2224131  
C    2.3617620   -2.0132534   -6.1309085  
C    1.9111467   -1.6311559   -4.9133181  
C    0.8167584   -0.7132544   -5.1894898  
C    0.7423551   -0.6552468   -6.6651875  
N    1.6455071   -1.4153047   -7.2225185  
C   -0.2276461    0.1569485   -7.3467464  
C   -1.0846242    0.8781011   -6.5885501  
O   -2.0400760    1.6785701   -7.0909459  
C   -1.0349500    0.8404012   -5.0971505  
O   -1.8457778    1.5226373   -4.4707857  
C   -0.0307352   -0.0004646   -4.4215603  
H    2.2762462   -1.9347703   -3.9470904  
H   -2.4850415    2.0539986   -6.3097853  
H    3.1689154   -2.6915916   -6.3574800  
C    3.2573670   -0.0002920   -1.5109380  
C    2.5379468   -0.0001709   -0.3591961  
C    1.1435043    0.0000332   -0.7338500  
C    1.1092609   -0.0000082   -2.2088477  
N    2.4227562    0.0001909   -2.6182613  
C   -0.0265532   -0.0002522   -2.9515663  
C   -1.3003035   -0.0002639   -2.2514981  
O   -2.3786784   -0.0004131   -2.8306429  
C   -1.2877725    0.0000312   -0.6895608  
O   -2.3539958    0.0003307   -0.0892036  
C    0.0000000    0.0000000    0.0000000  
H    2.9384091   -0.0000369    0.6389239  
H    4.3270394   -0.0004765   -1.6439446  
H    2.7280494   -0.0013406   -3.5742113  
C    0.0000000    0.0000000    1.4700000  
C    1.0541688    0.0001722    2.3260392  
C    0.5103138    0.0000454    3.6635956  
C   -0.9576371   -0.0002459    3.5155732  
N   -1.2018458    0.0001392    2.1615969  
C   -1.8348311   -0.0008317    4.5510609  
C   -1.2972847   -0.0009736    5.9014604  
O   -2.0050672   -0.0014265    6.9001319  
C    0.2542623   -0.0004184    6.0817573  
O    0.7184670   -0.0002256    7.2139121  
C    1.0974552   -0.0000873    4.8889129  
H    2.0940752    0.0005483    2.0517982  
H   -2.9081052   -0.0011668    4.4207061  
H    2.1707277    0.0000911    5.0223670  
H   -2.1128194   -0.0014912    1.7406791  
