62

C    1.1269575   -1.0555862   -7.3663785  
C    2.1403599   -1.9420398   -7.0840980  
C    2.8249432   -2.1957669   -8.3094833  
C    2.1791033   -1.4296394   -9.3134083  
N    1.1513861   -0.7507217   -8.7072028  
C    2.5896561   -1.4346863  -10.6499009  
C    3.6720838   -2.2273435  -10.9788712  
O    4.1149240   -2.2692123  -12.2692789  
C    4.3293744   -2.9991743   -9.9914184  
O    5.3897384   -3.7363191  -10.4767929  
C    3.9247299   -2.9948906   -8.6727943  
H    2.3585759   -2.3558466   -6.1144904  
H    0.5226578   -0.1177758   -9.1677037  
H    2.1015785   -0.8531489  -11.4198341  
H    4.8679229   -2.8743098  -12.2800422  
H    5.7778815   -4.2280153   -9.7465993  
H    4.4477173   -3.5966366   -7.9387213  
C   -0.0037892   -0.7105356   -5.1341628  
C   -1.0641734    0.0073898   -4.6315339  
C   -1.6260113    0.7376868   -5.7203886  
C   -0.8603254    0.4225624   -6.8720602  
N    0.1176067   -0.4577637   -6.4805350  
C   -1.1316211    0.9642913   -8.1321065  
C   -2.1954362    1.8398557   -8.2314163  
O   -2.5045510    2.3976108   -9.4382177  
C   -2.9709722    2.1669380   -7.0937084  
O   -3.9953198    3.0532739   -7.3553648  
C   -2.7037382    1.6330963   -5.8502752  
H   -0.5517515    0.7282604   -9.0137204  
H   -3.2684069    2.9694093   -9.2871060  
H   -4.4693356    3.2210061   -6.5351346  
H   -3.3151850    1.9024723   -4.9970179  
H    0.6764261   -1.3817974   -4.6385083  
C    1.1319248    0.0015675   -0.8009270  
C    0.7969916    0.0034959   -2.1169404  
C   -0.6453336    0.0035703   -2.1842672  
C   -1.1266831    0.0015415   -0.7896027  
N    0.0000000    0.0000000    0.0000000  
C   -2.4346129    0.0013924   -0.4276297  
C   -3.4350110    0.0031352   -1.4820184  
O   -4.6384610    0.0030897   -1.2583919  
C   -2.9478958    0.0050460   -2.9661075  
O   -3.7809377    0.0062160   -3.8623775  
C   -1.5113821    0.0053068   -3.2312125  
H    1.4821240    0.0045436   -2.9459192  
H   -2.7664565    0.0000185    0.6013447  
H    2.1104318    0.0009428   -0.3488058  
C    2.5128556    2.1077716    2.9199648  
C    1.9592212    1.6432552    4.0696553  
C    0.8915788    0.7479214    3.6910360  
C    0.8684491    0.7287414    2.2159470  
N    1.8754542    1.5738793    1.8102719  
C    0.0000000    0.0000000    1.4700000  
C   -0.9772830   -0.8200135    2.1664417  
O   -1.8021297   -1.5120829    1.5842315  
C   -0.9711318   -0.8147624    3.7284083  
O   -1.7894187   -1.5009653    4.3257297  
C    0.0140216    0.0115358    4.4216297  
H    2.2638494    1.8988021    5.0689105  
H    0.0117648    0.0094386    5.5031631  
H    3.3327358    2.7953732    2.7900019  
H    2.1123206    1.7707734    0.8551938  
