62

C    9.6385698   -0.7123056   -2.7890842  
C   10.9912750   -0.4619976   -2.7880781  
C   11.2474556    0.4461342   -3.8577830  
C   10.0024279    0.7168494   -4.4811174  
N    9.0469772   -0.0039980   -3.8087253  
C    9.8763036    1.5756863   -5.5771469  
C   11.0279646    2.1723393   -6.0523945  
O   10.9618219    3.0200143   -7.1201421  
C   12.2795029    1.9144849   -5.4441337  
O   13.3322367    2.5839130   -6.0331695  
C   12.4047118    1.0671229   -4.3630113  
H   11.7056783   -0.8831016   -2.1015705  
H    8.9303217    1.7860510   -6.0567993  
H   11.8646563    3.3210063   -7.2861494  
H   14.1396507    2.3548482   -5.5628337  
H   13.3767042    0.8887967   -3.9181435  
H    9.0491461   -1.3411615   -2.1440424  
C    5.6039770   -0.0017519   -1.1379123  
C    4.5679461   -0.0016854   -2.0086701  
C    5.1852103   -0.0025558   -3.3260478  
C    6.6391264   -0.0029687   -3.0563960  
N    6.8907016   -0.0025811   -1.7754982  
C    7.6095177   -0.0038924   -4.1163136  
C    7.1484101   -0.0047705   -5.3878139  
O    7.9405118   -0.0056803   -6.4734530  
C    5.6870989   -0.0047545   -5.6923313  
O    5.3390449   -0.0054589   -6.8730425  
C    4.7115728   -0.0037536   -4.5876722  
H    7.3255396   -0.0061817   -7.2290731  
H    3.6621313   -0.0038906   -4.8501667  
H    5.5656908   -0.0012541   -0.0601800  
C    3.1301149   -0.0010311   -1.7028252  
C    2.5367768   -0.0002767   -0.4864665  
C    1.1089904    0.0001028   -0.7656183  
C    1.0177872   -0.0004148   -2.2415132  
N    2.1993578   -0.0011611   -2.7963820  
C   -0.2459209   -0.0002877   -2.9257118  
C   -1.3675319   -0.0000605   -2.1698524  
O   -2.6129313    0.0000867   -2.6748490  
C   -1.3083584    0.0000910   -0.6783232  
O   -2.3693261    0.0004206   -0.0541692  
C    0.0000000    0.0000000    0.0000000  
H    3.0096017   -0.0001007    0.4807525  
H   -0.2829630   -0.0004687   -4.0053125  
H   -3.1967441    0.0002094   -1.8949034  
C    0.0000000    0.0000000    1.4700000  
C    1.0521667    0.0011902    2.3562342  
C    0.4917218    0.0011957    3.6679131  
C   -0.9187428   -0.0003148    3.5178682  
N   -1.1833171    0.0009411    2.1707914  
C   -1.7951701   -0.0010350    4.6072090  
C   -1.2375837   -0.0005224    5.8710424  
O   -2.0474215   -0.0015360    6.9697579  
C    0.1673580    0.0013566    6.0411963  
O    0.5673524    0.0020687    7.3615553  
C    1.0325770    0.0023412    4.9669890  
H    2.0953057    0.0030649    2.0900562  
H   -2.0989778   -0.0102372    1.7591824  
H   -2.8710934   -0.0020419    4.4995513  
H   -1.4634884   -0.0006497    7.7393593  
H    1.5290710    0.0033153    7.3880045  
H    2.1042148    0.0039609    5.1284455  
