60

C    9.6042529    0.7201007   -4.9068283  
C    9.0494870    0.0024126   -3.8726011  
C   10.1096886   -0.7247378   -3.2546811  
C   11.2984076   -0.4080266   -3.9607727  
N   10.9556201    0.4701746   -4.9587091  
C   12.5440603   -0.9465995   -3.6245012  
C   12.5906037   -1.8205802   -2.5557781  
O   13.7811780   -2.3752493   -2.1844437  
C   11.4153514   -2.1492051   -1.8391168  
O   11.6260746   -3.0336459   -0.8014740  
C   10.1860997   -1.6184778   -2.1704695  
H   11.5942907    0.8789419   -5.6167302  
H   13.4537233   -0.7093456   -4.1587521  
H   13.5923498   -2.9464066   -1.4285419  
H   10.7829906   -3.2025995   -0.3698863  
H    9.3032075   -1.8889725   -1.6031838  
H    9.1426649    1.3893864   -5.6124853  
C    6.5739141    0.0018721   -4.3537910  
C    7.6280828    0.0019468   -3.4977523  
C    7.0842285    0.0017734   -2.1601955  
C    5.6162780    0.0015609   -2.3082178  
N    5.3720684    0.0020314   -3.6621941  
C    4.7390840    0.0009613   -1.2727298  
C    5.2766310    0.0007199    0.0776697  
O    4.5688485    0.0002467    1.0763412  
C    6.8281783    0.0011904    0.2579660  
O    7.2923831    0.0012992    1.3901206  
C    7.6713704    0.0015458   -0.9348786  
H    8.7446430    0.0016650   -0.8014249  
H    6.5739141    0.0019306   -5.4317008  
H    4.4610948    0.0004680   -4.0831113  
C    3.2798077    0.0005856   -1.4499661  
C    2.5571132    0.0005565   -2.5996564  
C    1.1637425    0.0001547   -2.2210366  
C    1.1336959   -0.0000200   -0.7459475  
N    2.4483509   -0.0001429   -0.3402730  
C    0.0000000    0.0000000    0.0000000  
C   -1.2757370   -0.0000187   -0.6964411  
O   -2.3524597   -0.0000640   -0.1142306  
C   -1.2676502   -0.0000874   -2.2584078  
O   -2.3355774   -0.0004102   -2.8557287  
C    0.0181551    0.0001758   -2.9516297  
H    2.9547342    0.0006074   -3.5989118  
H    0.0150776    0.0003317   -4.0331632  
H    2.7563626    0.0012823    0.6148051  
C    2.4951002    2.0940188    2.9809380  
C    1.9440701    1.6314916    1.8291961  
C    0.8759964    0.7350050    2.2038498  
C    0.8497377    0.7130254    3.6788474  
N    1.8560616    1.5571714    4.0882609  
C   -0.0205033   -0.0168748    4.4215661  
C   -0.9962600   -0.8356168    3.7214979  
O   -1.8224391   -1.5286685    4.3006425  
C   -0.9864710   -0.8277881    2.1595606  
O   -1.8030528   -1.5133726    1.5592035  
C    0.0000000    0.0000000    1.4700000  
H    2.2509283    1.8888011    0.8310761  
H   -0.0229599   -0.0187323    5.5027230  
H    3.3143982    2.7817323    3.1139444  
H    2.0889452    1.7545833    5.0442112  
