62

C   -0.3588475   -0.0127543   -8.7343753  
C    0.4001544   -0.6877392   -9.6621581  
C   -0.0970722   -0.3262473  -10.9492819  
C   -1.1684375    0.5799507  -10.7421395  
N   -1.3019731    0.7469457   -9.3860804  
C   -1.8956409    1.1444934  -11.7944018  
C   -1.5345357    0.7879710  -13.0791874  
O   -2.2110440    1.3100142  -14.1435281  
C   -0.4686790   -0.1149372  -13.3061731  
O   -0.2313159   -0.3703916  -14.6409942  
C    0.2489867   -0.6724687  -12.2685614  
H    1.2115836   -1.3590350   -9.4386899  
H   -1.9746583    1.3426304   -8.9381563  
H   -2.7133404    1.8356528  -11.6431761  
H   -1.8043648    0.9356179  -14.9358058  
H    0.5029855   -0.9885486  -14.7064710  
H    1.0602205   -1.3612733  -12.4733192  
C    2.2882819   -2.1097771   -5.8897962  
C    1.6780090   -1.6459964   -7.0107556  
C    0.6303822   -0.7506089   -6.5799497  
C    0.6807208   -0.7305952   -5.1055495  
N    1.7068262   -1.5753512   -4.7500426  
C   -0.1496415   -0.0015615   -4.3176961  
C   -1.1605340    0.8179094   -4.9650744  
O   -1.9554939    1.5101850   -4.3429051  
C   -1.2321583    0.8117729   -6.5254071  
O   -2.0792929    1.4975134   -7.0816292  
C   -0.2825939   -0.0147701   -7.2663562  
H    1.9325531   -1.9020644   -8.0237955  
H    3.1137392   -2.7971815   -5.8004311  
H    1.9909865   -1.7716676   -3.8078326  
C    3.3003543    0.0005276   -1.4738987  
C    2.5232814    0.0003497   -2.6090747  
C    1.1623200   -0.0001320   -2.1820103  
C    1.1711883    0.0000582   -0.7636140  
N    2.4852300   -0.0014919   -0.3662360  
C    0.0000000    0.0000000    0.0000000  
C   -1.2020384    0.0000519   -0.6806477  
O   -2.3759249    0.0003493    0.0157743  
C   -1.2314656   -0.0005115   -2.0955510  
O   -2.5054392   -0.0008039   -2.6250180  
C   -0.0764516   -0.0007274   -2.8495195  
H    2.8919955   -0.0005620   -3.6205304  
H    2.8036267    0.0088183    0.5858662  
H   -3.0835638    0.0000347   -0.6418818  
H   -2.4360047   -0.0011529   -3.5845921  
H    4.3715549    0.0004895   -1.3667136  
C    0.8175213    0.6860729    2.3021913  
C    0.0000000    0.0000000    1.4700000  
C   -0.8887526   -0.7456559    2.3478473  
C   -0.4549825   -0.3816753    3.7138435  
N    0.5448156    0.4573574    3.6934124  
C   -1.0945674   -0.9182058    4.8835240  
C   -2.1210866   -1.7789155    4.6970523  
O   -2.8083856   -2.3554314    5.6976972  
C   -2.5824069   -2.1655116    3.3310774  
O   -3.5227682   -2.9541547    3.2362962  
C   -1.9100805   -1.6015804    2.1470656  
H   -0.7567140   -0.6349833    5.8697035  
H   -3.4728268   -2.9124471    5.2533954  
H   -2.2742832   -1.9066565    1.1752040  
H    1.6189533    1.3585343    2.0405121  
