60

C    2.3337833   -1.9933445   -8.3935105  
C    3.3325208   -2.8323264   -8.8306606  
C    3.3007029   -2.8099595  -10.2565243  
C    2.2531002   -1.9320917  -10.6357391  
N    1.6854664   -1.4550638   -9.4803808  
C    1.9338770   -1.6678979  -11.9710619  
C    2.6860992   -2.3012123  -12.9412445  
O    2.4172114   -2.0787283  -14.2607942  
C    3.7351672   -3.1808492  -12.5827580  
O    4.3906714   -3.7337839  -13.6634620  
C    4.0504700   -3.4421602  -11.2656302  
H    4.0009710   -3.3924970   -8.1994898  
H    0.9237433   -0.8026487   -9.4344083  
H    1.1365650   -0.9999752  -12.2666551  
H    3.0492956   -2.6105499  -14.7616946  
H    5.0835471   -4.3144871  -13.3343552  
H    4.8594285   -4.1207867  -11.0216396  
C    2.4782024   -2.1081877   -5.8783644  
C    1.9212515   -1.6438940   -7.0265418  
C    0.8545982   -0.7486150   -6.6450159  
C    0.8356633   -0.7292245   -5.1698703  
N    1.8439055   -1.5742005   -4.7669395  
C   -0.0307352   -0.0004646   -4.4215603  
C   -1.0100802    0.8193482   -5.1153371  
O   -1.8333384    1.5114170   -4.5308821  
C   -1.0083721    0.8138723   -6.6773144  
O   -1.8284256    1.4999048   -7.2724045  
C   -0.0251096   -0.0124249   -7.3732162  
H   -0.0304435   -0.0104841   -8.4547392  
H    3.2985196   -2.7956862   -5.7506359  
H    2.0835083   -1.7709324   -3.8125107  
C    3.2573670   -0.0002920   -1.5109380  
C    2.5379468   -0.0001709   -0.3591961  
C    1.1435043    0.0000332   -0.7338500  
C    1.1092609   -0.0000082   -2.2088477  
N    2.4227562    0.0001909   -2.6182613  
C   -0.0265532   -0.0002522   -2.9515663  
C   -1.3003035   -0.0002639   -2.2514981  
O   -2.3786784   -0.0004131   -2.8306429  
C   -1.2877725    0.0000312   -0.6895608  
O   -2.3539958    0.0003307   -0.0892036  
C    0.0000000    0.0000000    0.0000000  
H    2.9384091   -0.0000369    0.6389239  
H    4.3270394   -0.0004765   -1.6439446  
H    2.7280494   -0.0013406   -3.5742113  
C    0.8681109    0.7263879    2.2709268  
C    0.6127770    0.5096195    3.5869401  
C   -0.4920590   -0.4175482    3.6542670  
C   -0.8620974   -0.7254003    2.2596025  
N    0.0000000    0.0000000    1.4700000  
C   -1.8641242   -1.5660088    1.8976294  
C   -2.6293522   -2.2103885    2.9520183  
O   -3.5512764   -2.9839180    2.7283916  
C   -2.2549728   -1.8987399    4.4361073  
O   -2.8923672   -2.4351063    5.3323774  
C   -1.1543735   -0.9755647    4.7012123  
H    1.1382914    0.9492124    4.4159191  
H   -2.1192137   -1.7782617    0.8686553  
H   -0.9013378   -0.7652422    5.7314848  
H    1.6172880    1.3558399    1.8188057  
