60

C    3.6771241    2.1190063   -6.3423335  
C    4.6285812    1.6574060   -5.4624911  
C    5.4737683    0.7692212   -6.1914540  
C    4.9852198    0.7283069   -7.5224582  
N    3.8926935    1.5576375   -7.5791613  
C    5.5781046   -0.0488124   -8.5221391  
C    6.6845124   -0.7980472   -8.1718706  
O    7.3024167   -1.5744117   -9.1091359  
C    7.1866159   -0.7707329   -6.8490085  
O    8.2937849   -1.5713968   -6.6580664  
C    6.6020619   -0.0045253   -5.8622221  
H    4.7035074    1.9267623   -4.4228631  
H    3.3433853    1.7385625   -8.3998367  
H    5.2105013   -0.0844544   -9.5384056  
H    8.0409090   -2.0072800   -8.6613430  
H    8.5692569   -1.4954577   -5.7393979  
H    2.8609220    2.8031561   -6.1851343  
C    4.5679461   -0.0016854   -2.0086701  
C    5.6049857   -0.0016933   -1.1391135  
C    6.7955419   -0.0024716   -1.9752200  
C    6.2781456   -0.0029782   -3.3604582  
N    4.9730338   -0.0024399   -3.3863782  
C    7.1539712   -0.0037579   -4.4997628  
C    8.4861197   -0.0036308   -4.2658492  
O    9.4181585   -0.0043053   -5.2340147  
C    9.0391356   -0.0027522   -2.8793671  
O   10.2622855   -0.0028086   -2.7410741  
C    8.1201339   -0.0020062   -1.7272562  
H    5.5667635   -0.0011380   -0.0631887  
H   10.2688725   -0.0039791   -4.7592114  
H    8.5604265   -0.0012651   -0.7391404  
C    3.1301149   -0.0010311   -1.7028252  
C    2.5367768   -0.0002767   -0.4864665  
C    1.1089904    0.0001028   -0.7656183  
C    1.0177872   -0.0004148   -2.2415132  
N    2.1993578   -0.0011611   -2.7963820  
C   -0.2459209   -0.0002877   -2.9257118  
C   -1.3675319   -0.0000605   -2.1698524  
O   -2.6129313    0.0000867   -2.6748490  
C   -1.3083584    0.0000910   -0.6783232  
O   -2.3693261    0.0004206   -0.0541692  
C    0.0000000    0.0000000    0.0000000  
H    3.0096017   -0.0001007    0.4807525  
H   -0.2829630   -0.0004687   -4.0053125  
H   -3.1967441    0.0002094   -1.8949034  
C    0.8681109    0.7263879    2.2709268  
C    0.6127770    0.5096195    3.5869401  
C   -0.4920590   -0.4175482    3.6542670  
C   -0.8620974   -0.7254003    2.2596025  
N    0.0000000    0.0000000    1.4700000  
C   -1.8641242   -1.5660088    1.8976294  
C   -2.6293522   -2.2103885    2.9520183  
O   -3.5512764   -2.9839180    2.7283916  
C   -2.2549728   -1.8987399    4.4361073  
O   -2.8923672   -2.4351063    5.3323774  
C   -1.1543735   -0.9755647    4.7012123  
H    1.1382914    0.9492124    4.4159191  
H   -2.1192137   -1.7782617    0.8686553  
H   -0.9013378   -0.7652422    5.7314848  
H    1.6172880    1.3558399    1.8188057  
