62

C   -6.0638519   -0.7213439   -6.3401050  
C   -6.8591837   -0.0028733   -5.4777161  
C   -7.7896528    0.7244491   -6.2776088  
C   -7.5116421    0.4070318   -7.6318180  
N   -6.4569505   -0.4717380   -7.6341371  
C   -8.2367667    0.9455563   -8.6990462  
C   -9.2613989    1.8202137   -8.3936289  
O  -10.0016216    2.3748691   -9.3973439  
C   -9.5537984    2.1495494   -7.0486911  
O  -10.6027873    3.0346125   -6.9085894  
C   -8.8386847    1.6188696   -5.9953539  
H   -6.0444007   -0.8810640   -8.4528167  
H   -8.0297660    0.7077657   -9.7333609  
H  -10.6537922    2.9465524   -8.9717670  
H  -10.7346043    3.2040223   -5.9707572  
H   -9.0856449    1.8899169   -4.9755391  
H   -5.2463514   -1.3909853   -6.1345985  
C   -3.3460096   -0.0004265   -2.7913646  
C   -4.0351702    0.0003055   -1.6007663  
C   -5.4244878    0.0001005   -1.9238725  
C   -5.5227199   -0.0010603   -3.3388900  
N   -4.2424270    0.0005973   -3.8343331  
C   -6.7482124   -0.0018647   -4.0119112  
C   -7.8954377   -0.0017972   -3.2424625  
O   -9.1185481   -0.0029120   -3.8482795  
C   -7.8179689   -0.0002715   -1.8293762  
O   -9.0483375    0.0000156   -1.2052468  
C   -6.6093340    0.0007956   -1.1647522  
H   -3.5911531    0.0020178   -0.6200323  
H   -3.9968101   -0.0102739   -4.8077478  
H   -9.7745213   -0.0023507   -3.1390798  
H   -8.9066624    0.0010428   -0.2536529  
H   -6.5814276    0.0021374   -0.0813789  
C    0.0000000    0.0000000    0.0000000  
C    1.0662919   -0.0000103   -0.8334269  
C    0.4961869    0.0000064   -2.1718889  
C   -0.9663859   -0.0000850   -1.9540246  
N   -1.2632774   -0.0000084   -0.6828657  
C   -1.8985363   -0.0000518   -3.0477257  
C   -1.3925778    0.0004564   -4.3020545  
O   -2.1456384    0.0005409   -5.4151311  
C    0.0786230    0.0009323   -4.5544998  
O    0.4683758    0.0012588   -5.7221098  
C    1.0143164    0.0008442   -3.4159030  
H    2.1107195    0.0000633   -0.5721867  
H   -1.5042275    0.0009691   -6.1484418  
H    2.0724152    0.0013148   -3.6409744  
C    0.0000000    0.0000000    1.4700000  
C    1.0541688    0.0001722    2.3260392  
C    0.5103138    0.0000454    3.6635956  
C   -0.9576371   -0.0002459    3.5155732  
N   -1.2018458    0.0001392    2.1615969  
C   -1.8348311   -0.0008317    4.5510609  
C   -1.2972847   -0.0009736    5.9014604  
O   -2.0050672   -0.0014265    6.9001319  
C    0.2542623   -0.0004184    6.0817573  
O    0.7184670   -0.0002256    7.2139121  
C    1.0974552   -0.0000873    4.8889129  
H    2.0940752    0.0005483    2.0517982  
H   -2.9081052   -0.0011668    4.4207061  
H    2.1707277    0.0000911    5.0223670  
H   -2.1128194   -0.0014912    1.7406791  
