60

C    1.7038229   -2.3742619   -7.7853414  
C    2.3015324   -2.5857534   -9.0061940  
C    2.2257465   -1.3563036   -9.7254363  
C    1.5659153   -0.4228328   -8.8856860  
N    1.2609980   -1.0740754   -7.7162733  
C    1.3169244    0.8976690   -9.2717786  
C    1.7420389    1.2829398  -10.5283703  
O    1.5248325    2.5609069  -10.9557255  
C    2.4017779    0.3659796  -11.3808631  
O    2.7628357    0.9013386  -12.6000322  
C    2.6475076   -0.9369580  -11.0007370  
H    2.7374468   -3.5125022   -9.3380214  
H    0.8143943    1.6139511   -8.6364793  
H    1.8942145    2.6174021  -11.8465859  
H    3.2022070    0.2172932  -13.1144625  
H    3.1548853   -1.6166019  -11.6753705  
H    1.5570720   -3.0483960   -6.9589232  
C    0.9070721   -0.7042926   -5.2310448  
C    0.0950446    0.0004351   -4.4015596  
C   -0.8184769    0.7430225   -5.2375488  
C   -0.4696135    0.4107476   -6.6320657  
N    0.5842459   -0.4707048   -6.5591861  
C   -1.1031229    0.9106726   -7.7231412  
C   -2.2017460    1.8380505   -7.5097575  
O   -2.8350881    2.3428871   -8.4275364  
C   -2.5881747    2.2042622   -6.0413003  
O   -3.5112398    2.9842135   -5.8492391  
C   -1.8314682    1.6007481   -4.9472170  
H   -0.8315613    0.6538815   -8.7376471  
H   -2.1054516    1.8593459   -3.9334198  
H    1.7143129   -1.3744694   -4.9838303  
C    3.3321173    0.0004713   -1.3379338  
C    2.6974181    0.0000116   -2.5332314  
C    1.2800438   -0.0002119   -2.2052841  
C    1.2395034    0.0000643   -0.7271299  
N    2.4394062    0.0005460   -0.2131038  
C    0.0000000    0.0000000    0.0000000  
C   -1.1468702    0.0000634   -0.7169543  
O   -2.3742203    0.0000074   -0.1695487  
C   -1.1388770    0.0001607   -2.2096355  
O   -2.2206234    0.0000905   -2.7970411  
C    0.1454522    0.0001815   -2.9324241  
H    3.1367984   -0.0000653   -3.5160950  
H   -2.9844346    0.0001026   -0.9290167  
H    4.3940038    0.0007618   -1.1498640  
C    2.3971438    2.0127888    3.1728260  
C    1.9431056    1.6308205    1.9564670  
C    0.8496017    0.7127664    2.2356185  
C    0.7794028    0.6545384    3.7115134  
N    1.6840587    1.4146091    4.2663826  
C   -0.1885723   -0.1578550    4.3957118  
C   -1.0476298   -0.8789867    3.6398520  
O   -2.0015663   -1.6796266    4.1448486  
C   -1.0022026   -0.8410666    2.1483229  
O   -1.8147390   -1.5232959    1.5241687  
C    0.0000000    0.0000000    1.4700000  
H    2.3054237    1.9346118    0.9892483  
H   -0.2170646   -0.1815267    5.4753125  
H   -2.4487139   -2.0549881    3.3649027  
H    3.2048689    2.6911772    3.3971983  
