60

C    3.4187968   -3.3815587   -7.5849679  
C    4.2584575   -3.3712366   -8.6746162  
C    4.2689004   -2.0372574   -9.1795822  
C    3.4098684   -1.2715715   -8.3502964  
N    2.9087512   -2.1188234   -7.3933930  
C    3.1796859    0.0922926   -8.5544528  
C    3.8287487    0.6942328   -9.6149084  
O    3.6399915    2.0237481   -9.8593912  
C    4.6894446   -0.0529941  -10.4537597  
O    5.2610687    0.6894574  -11.4663573  
C    4.9167810   -1.3985733  -10.2531084  
H    4.7963107   -4.2209262   -9.0589772  
H    2.5260378    0.6814427   -7.9260833  
H    4.1771607    2.2380284  -10.6332126  
H    5.8271429    0.1103596  -11.9857891  
H    5.5812788   -1.9447868  -10.9123272  
H    3.1422646   -4.1900658   -6.9301364  
C    1.9957412   -2.1407953   -5.0258943  
C    1.9855628   -1.7332340   -6.3163859  
C    0.8551749   -0.8225482   -6.4132069  
C    0.2799734   -0.7963197   -5.0512083  
N    0.9444052   -1.5670716   -4.2336130  
C   -0.8712826    0.0001710   -4.7267111  
C   -1.4226087    0.7372645   -5.7177042  
O   -2.4987599    1.5259551   -5.5567519  
C   -0.8649831    0.7322381   -7.1023301  
O   -1.4179257    1.4273747   -7.9545394  
C    0.3165526   -0.0930926   -7.4101071  
H   -2.6523129    1.9181964   -6.4352285  
H    0.6899766   -0.0690846   -8.4250991  
H    2.6823202   -2.8229905   -4.5502976  
C    1.0965514    0.0001359   -0.8010305  
C    0.0000000    0.0000000    0.0000000  
C   -1.1546563    0.0001470   -0.8669513  
C   -0.6372014    0.0003519   -2.2486282  
N    0.7342871    0.0007337   -2.1395014  
C   -1.4147739    0.0001352   -3.3608717  
C   -2.8576049   -0.0001048   -3.1854462  
O   -3.6427779   -0.0002494   -4.1244907  
C   -3.4275840   -0.0000725   -1.7311666  
O   -4.6406831    0.0000333   -1.5710060  
C   -2.4891867   -0.0001091   -0.6116744  
H   -2.8919122   -0.0002918    0.3920866  
H    2.1388272    0.0000663   -0.5261648  
H    1.3735872   -0.0006099   -2.9130262  
C    0.8175213    0.6860729    2.3021913  
C    0.0000000    0.0000000    1.4700000  
C   -0.8887526   -0.7456559    2.3478473  
C   -0.4549825   -0.3816753    3.7138435  
N    0.5448156    0.4573574    3.6934124  
C   -1.0945674   -0.9182058    4.8835240  
C   -2.1210866   -1.7789155    4.6970523  
O   -2.8083856   -2.3554314    5.6976972  
C   -2.5824069   -2.1655116    3.3310774  
O   -3.5227682   -2.9541547    3.2362962  
C   -1.9100805   -1.6015804    2.1470656  
H   -0.7567140   -0.6349833    5.8697035  
H   -3.4728268   -2.9124471    5.2533954  
H   -2.2742832   -1.9066565    1.1752040  
H    1.6189533    1.3585343    2.0405121  
