62

C    3.0873635   -0.7141672   -6.4420050  
C    2.4346454    0.0066824   -7.4150431  
C    3.4299553    0.7344519   -8.1321965  
C    4.6818422    0.4148432   -7.5469138  
N    4.4375910   -0.4656073   -6.5223338  
C    5.8891205    0.9531427   -8.0024381  
C    5.8316088    1.8298248   -9.0684117  
O    6.9806535    2.3843612   -9.5533857  
C    4.5921007    2.1613622   -9.6655032  
O    4.7010376    3.0482752  -10.7166274  
C    3.4006708    1.6309058   -9.2164649  
H    5.1372594   -0.8766468   -5.9311553  
H    6.8465321    0.7136870   -7.5605941  
H    6.7192423    2.9576316  -10.2857041  
H    3.8198772    3.2191061  -11.0630036  
H    2.4666997    1.9036625   -9.6937278  
H    2.6964531   -1.3848437   -5.6961221  
C   -1.0641738    0.0073911   -4.6315339  
C    0.2077342    0.0068494   -5.1556683  
C    0.0728976    0.0090250   -6.5756733  
C   -1.3163589    0.0111367   -6.8618346  
N   -1.9782052    0.0081252   -5.6591012  
C   -1.8198408    0.0139055   -8.1661683  
C   -0.9041960    0.0148613   -9.2004659  
O   -1.3413921    0.0178983  -10.4934707  
C    0.4859172    0.0124129   -8.9351413  
O    1.2686365    0.0133401  -10.0712285  
C    0.9833260    0.0094076   -7.6486338  
H    1.1204513    0.0039959   -4.5847635  
H   -2.9756842    0.0192487   -5.5455510  
H   -2.8775175    0.0153804   -8.3909329  
H   -0.5510068    0.0177656  -11.0489487  
H    2.1928166    0.0115764   -9.8038490  
C    1.1319245    0.0015656   -0.8009271  
C    0.7969914    0.0034943   -2.1169404  
C   -0.6453340    0.0035712   -2.1842672  
C   -1.1266833    0.0015434   -0.7896027  
N    0.0000000    0.0000000    0.0000000  
C   -2.4346131    0.0013965   -0.4276296  
C   -3.4350110    0.0031409   -1.4820182  
O   -4.6384610    0.0030975   -1.2583916  
C   -2.9478961    0.0050507   -2.9661073  
O   -3.7809383    0.0062220   -3.8623773  
C   -1.5113824    0.0053091   -3.2312124  
H    1.4821237    0.0045409   -2.9459193  
H   -2.7664564    0.0000233    0.6013449  
H    2.1104315    0.0009392   -0.3488061  
C    2.3971438    2.0127888    3.1728260  
C    1.9431056    1.6308205    1.9564670  
C    0.8496017    0.7127664    2.2356185  
C    0.7794028    0.6545384    3.7115134  
N    1.6840587    1.4146091    4.2663826  
C   -0.1885723   -0.1578550    4.3957118  
C   -1.0476298   -0.8789867    3.6398520  
O   -2.0015663   -1.6796266    4.1448486  
C   -1.0022026   -0.8410666    2.1483229  
O   -1.8147390   -1.5232959    1.5241687  
C    0.0000000    0.0000000    1.4700000  
H    2.3054237    1.9346118    0.9892483  
H   -0.2170646   -0.1815267    5.4753125  
H   -2.4487139   -2.0549881    3.3649027  
H    3.2048689    2.6911772    3.3971983  
