62

C    9.1005351   -0.0032965    0.1216519  
C    9.8312997   -0.0042105    1.2871776  
C   11.2083406   -0.0064055    0.9152224  
C   11.2565561   -0.0064539   -0.5023819  
N    9.9595671   -0.0064920   -0.9523136  
C   12.4575215   -0.0080563   -1.2182495  
C   13.6311964   -0.0093318   -0.4897842  
O   14.8321547   -0.0105700   -1.1384067  
C   13.6036647   -0.0096818    0.9251572  
O   14.8553002   -0.0114149    1.5054586  
C   12.4192484   -0.0083748    1.6320379  
H    9.4221830   -0.0045004    2.2829771  
H    9.6797526    0.0040341   -1.9164579  
H   12.5010318   -0.0082463   -2.2986708  
H   15.5127569   -0.0116210   -0.4528081  
H   14.7473097   -0.0115118    2.4614615  
H   12.4296079   -0.0088644    2.7157223  
C    6.6962559   -0.0006582    0.9128046  
C    7.6449137   -0.0016133   -0.0834455  
C    6.9440365   -0.0023813   -1.3257698  
C    5.5585247   -0.0015568   -1.0219874  
N    5.4432391   -0.0024702    0.3459768  
C    4.5679461   -0.0016854   -2.0086701  
C    4.9836054   -0.0023570   -3.3260176  
O    4.0581867   -0.0021607   -4.3293196  
C    6.3614227   -0.0035602   -3.6491823  
O    6.6142428   -0.0045343   -5.0054365  
C    7.3392016   -0.0037074   -2.6763130  
H    4.5782209    0.0083751    0.8554935  
H    4.5542216   -0.0030158   -5.1583031  
H    7.5672639   -0.0052861   -5.1371679  
H    8.3866774   -0.0048228   -2.9542891  
H    6.8142879   -0.0002736    1.9828645  
C    3.1301149   -0.0010311   -1.7028252  
C    2.5367768   -0.0002767   -0.4864665  
C    1.1089904    0.0001028   -0.7656183  
C    1.0177872   -0.0004148   -2.2415132  
N    2.1993578   -0.0011611   -2.7963820  
C   -0.2459209   -0.0002877   -2.9257118  
C   -1.3675319   -0.0000605   -2.1698524  
O   -2.6129313    0.0000867   -2.6748490  
C   -1.3083584    0.0000910   -0.6783232  
O   -2.3693261    0.0004206   -0.0541692  
C    0.0000000    0.0000000    0.0000000  
H    3.0096017   -0.0001007    0.4807525  
H   -0.2829630   -0.0004687   -4.0053125  
H   -3.1967441    0.0002094   -1.8949034  
C    2.4951002    2.0940188    2.9809380  
C    1.9440701    1.6314916    1.8291961  
C    0.8759964    0.7350050    2.2038498  
C    0.8497377    0.7130254    3.6788474  
N    1.8560616    1.5571714    4.0882609  
C   -0.0205033   -0.0168748    4.4215661  
C   -0.9962600   -0.8356168    3.7214979  
O   -1.8224391   -1.5286685    4.3006425  
C   -0.9864710   -0.8277881    2.1595606  
O   -1.8030528   -1.5133726    1.5592035  
C    0.0000000    0.0000000    1.4700000  
H    2.2509283    1.8888011    0.8310761  
H   -0.0229599   -0.0187323    5.5027230  
H    3.3143982    2.7817323    3.1139444  
H    2.0889452    1.7545833    5.0442112  
