62

C    6.5924460   -3.3368071   -4.8108766  
C    6.0516306   -2.0736819   -4.7437834  
C    6.8690182   -1.2274201   -5.5502060  
C    7.9018522   -2.0367692   -6.0888470  
N    7.7053546   -3.3114110   -5.6184272  
C    8.8944371   -1.5326105   -6.9346540  
C    8.8432764   -0.1869664   -7.2425538  
O    9.7875709    0.3572788   -8.0642110  
C    7.8208388    0.6369141   -6.7146731  
O    7.9070216    1.9546141   -7.1141494  
C    6.8414613    0.1402825   -5.8799856  
H    8.2768494   -4.1064701   -5.8403630  
H    9.6843971   -2.1441749   -7.3483612  
H    9.5699242    1.2948604   -8.1468837  
H    7.1804174    2.4419120   -6.7139105  
H    6.0710813    0.7957141   -5.4908814  
H    6.2732041   -4.2535441   -4.3454337  
C    4.4925592   -2.1138022   -2.7420818  
C    4.8565035   -1.6946788   -3.9763669  
C    3.8030380   -0.7794117   -4.3874587  
C    2.8583245   -0.7634595   -3.2499849  
N    3.2572738   -1.5436999   -2.2824862  
C    1.6628945    0.0339172   -3.2649299  
C    1.4223698    0.7816763   -4.3659923  
O    0.3461535    1.5724674   -4.5158195  
C    2.3568199    0.7871865   -5.5300082  
O    2.0745621    1.4917540   -6.4990986  
C    3.5763790   -0.0392794   -5.4905725  
H    0.4536187    1.9730612   -5.3973686  
H    4.2275605   -0.0074316   -6.3538100  
H    5.0117291   -2.8025036   -2.0946821  
C    1.1243410    0.0100105   -0.7919003  
C    0.7474072    0.0234665   -2.1148542  
C   -0.6787384    0.0234379   -2.1414698  
C   -1.1201748    0.0098411   -0.7935547  
N    0.0000000    0.0000000    0.0000000  
C   -2.4730818    0.0063307   -0.4408240  
C   -3.3971962    0.0170429   -1.4675058  
O   -4.7313520    0.0145490   -1.1793468  
C   -2.9763654    0.0303020   -2.8186325  
O   -4.0166484    0.0394464   -3.7247625  
C   -1.6418567    0.0334992   -3.1673480  
H   -2.8160166   -0.0041569    0.5845966  
H   -5.1938823    0.0230023   -2.0274386  
H   -3.6464680    0.0481700   -4.6127343  
H   -1.3497475    0.0435647   -4.2109234  
H    2.1062466    0.0053162   -0.3505405  
C    2.5128556    2.1077716    2.9199648  
C    1.9592212    1.6432552    4.0696553  
C    0.8915788    0.7479214    3.6910360  
C    0.8684491    0.7287414    2.2159470  
N    1.8754542    1.5738793    1.8102719  
C    0.0000000    0.0000000    1.4700000  
C   -0.9772830   -0.8200135    2.1664417  
O   -1.8021297   -1.5120829    1.5842315  
C   -0.9711318   -0.8147624    3.7284083  
O   -1.7894187   -1.5009653    4.3257297  
C    0.0140216    0.0115358    4.4216297  
H    2.2638494    1.8988021    5.0689105  
H    0.0117648    0.0094386    5.5031631  
H    3.3327358    2.7953732    2.7900019  
H    2.1123206    1.7707734    0.8551938  
