66

C    4.5582355   -2.0922261   -2.8633930  
C    4.7995864   -1.5811263   -4.1175836  
C    3.7180586   -0.7032889   -4.4246644  
C    2.8401178   -0.7189701   -3.3107075  
N    3.3790677   -1.5738357   -2.3815389  
C    1.6628945    0.0339172   -3.2649299  
C    1.3667037    0.8171315   -4.3635762  
O    0.2298889    1.5725143   -4.3714925  
C    2.2299651    0.8458156   -5.4846350  
O    1.7963543    1.6742716   -6.4990245  
C    3.3913533    0.1031243   -5.5305963  
H    5.6499297   -1.8133776   -4.7356192  
H    2.9820490   -1.7789142   -1.4824837  
H    0.2153770    2.0351559   -5.2194415  
H    2.4353782    1.6358685   -7.2172003  
H    4.0328102    0.1452893   -6.4030840  
C    6.5215051   -3.6286165   -2.4565565  
C    6.9663351   -4.4688206   -1.4622478  
C    6.0161454   -4.3974683   -0.4008108  
C    5.0046400   -3.4902725   -0.8079716  
N    5.3433250   -3.0404216   -2.0599875  
C    3.9031452   -3.1761235   -0.0062184  
C    3.8211096   -3.7891783    1.2289378  
O    2.7662652   -3.5186177    2.0518072  
C    4.8205668   -4.6969095    1.6531149  
O    4.5963846   -5.2238017    2.9082926  
C    5.9076347   -5.0070887    0.8627997  
H    7.8656800   -5.0595428   -1.4971670  
H    3.1289085   -2.4854269   -0.3106839  
H    2.9021376   -4.0433991    2.8514370  
H    5.3165329   -5.8261864    3.1183485  
H    6.6574106   -5.7060201    1.2146667  
H    6.9521735   -3.4012815   -3.4166626  
C    1.1243410    0.0100105   -0.7919003  
C    0.7474072    0.0234665   -2.1148542  
C   -0.6787384    0.0234379   -2.1414698  
C   -1.1201748    0.0098411   -0.7935547  
N    0.0000000    0.0000000    0.0000000  
C   -2.4730818    0.0063307   -0.4408240  
C   -3.3971962    0.0170429   -1.4675058  
O   -4.7313520    0.0145490   -1.1793468  
C   -2.9763654    0.0303020   -2.8186325  
O   -4.0166484    0.0394464   -3.7247625  
C   -1.6418567    0.0334992   -3.1673480  
H   -2.8160166   -0.0041569    0.5845966  
H   -5.1938823    0.0230023   -2.0274386  
H   -3.6464680    0.0481700   -4.6127343  
H   -1.3497475    0.0435647   -4.2109234  
H    2.1062466    0.0053162   -0.3505405  
C    0.8676693    0.7151171    2.2619005  
C    0.5875920    0.4624972    3.5848544  
C   -0.5048400   -0.4542819    3.6114698  
C   -0.8517165   -0.7276451    2.2635546  
N    0.0000000    0.0000000    1.4700000  
C   -1.8902865   -1.5946756    1.9108239  
C   -2.5912627   -2.1969500    2.9375057  
O   -3.6148162   -3.0527051    2.6493466  
C   -2.2603868   -1.9365747    4.2886322  
O   -3.0513550   -2.6123276    5.1947621  
C   -1.2361111   -1.0811317    4.6373480  
H    1.1060808    0.8876438    4.4271209  
H   -2.1597133   -1.8070987    0.8854031  
H   -3.9636755   -3.3565188    3.4974381  
H   -2.7621927   -2.3810384    6.0827341  
H   -1.0058879   -0.9010589    5.6809233  
H    1.6167816    1.3499334    1.8205408  
