62

C    0.0000000    0.0000000    0.0000000  
C    1.0521663   -0.0011985   -0.8862346  
C    0.4917215   -0.0011999   -2.1979134  
C   -0.9187428    0.0003217   -2.0478684  
N   -1.1833171   -0.0009320   -0.7007913  
C   -1.7951702    0.0010485   -3.1372091  
C   -1.2375839    0.0005316   -4.4010427  
O   -2.0474214    0.0015510   -5.4997580  
C    0.1673579   -0.0013586   -4.5711965  
O    0.5673522   -0.0020741   -5.8915554  
C    1.0325770   -0.0023497   -3.4969894  
H    2.0953053   -0.0030813   -0.6200564  
H   -2.0989774    0.0102535   -0.2891825  
H   -1.4634888    0.0006605   -6.2693593  
H    1.5290702   -0.0033279   -5.9180048  
H    2.1042143   -0.0039778   -3.6584458  
C   -4.4484545    2.1114145   -0.3461923  
C   -5.6479905    1.6480102   -0.7825920  
C   -5.3783926    0.7523835   -1.8825943  
C   -3.9129544    0.7318199   -2.0524736  
N   -3.4082397    1.5765178   -1.0908926  
C   -3.2578654    0.0024289   -2.9908507  
C   -4.0489190   -0.8168734   -3.8939084  
O   -3.5523770   -1.5094411   -4.7725990  
C   -5.6025063   -0.8101561   -3.7322732  
O   -6.2789761   -1.4957501   -4.4869983  
C   -6.1934210    0.0167354   -2.6830244  
H   -6.6117099    1.9044774   -0.3799969  
H   -4.2368607    2.7988459    0.4566501  
H   -2.4341395    1.7725013   -0.9503009  
C   -7.6564187    0.0152654   -2.5397186  
C   -8.4069168    0.6997071   -1.6453639  
C   -9.7812178    0.3319700   -1.9496108  
C   -9.6727007   -0.6076847   -3.0862097  
N   -8.4295769   -0.7972738   -3.4364799  
C  -10.8302155   -1.2078634   -3.6903886  
C  -12.0410696   -0.8843457   -3.1819587  
O  -13.2046031   -1.3694886   -3.6476491  
C  -12.1833409    0.0605250   -2.0351632  
O  -13.3165071    0.3095870   -1.6239173  
C  -10.9808859    0.6630672   -1.4326942  
H   -8.0695769    1.3711282   -0.8743441  
H  -10.7215070   -1.8910540   -4.5200530  
H  -13.8868970   -0.9583382   -3.0867718  
H  -11.1265028    1.3424833   -0.6035867  
C    1.1188642   -0.0008217    2.2703808  
C    0.0000000    0.0000000    1.4700000  
C   -1.1323862   -0.0008904    2.3373528  
C   -0.6382662   -0.0019682    3.6669281  
N    0.7324016   -0.0038477    3.5902241  
C   -1.4770914   -0.0027325    4.7854808  
C   -2.8395474   -0.0020958    4.5576857  
O   -3.7039201   -0.0024443    5.6140350  
C   -3.3517868   -0.0013946    3.2384331  
O   -4.7300496   -0.0012389    3.1773122  
C   -2.5248543   -0.0009135    2.1344818  
H    1.3576314    0.0056174    4.3757045  
H   -1.1067570   -0.0036993    5.8013813  
H   -4.5940033   -0.0021850    5.2385129  
H   -4.9934601   -0.0007286    2.2519915  
H   -2.9462578   -0.0005617    1.1360343  
H    2.1619896   -0.0009344    2.0042067  
