60

C    6.4538005   -2.1278449   -6.9387042  
C    7.5333152   -2.9789417   -6.9911399  
C    7.9841943   -2.9966723   -8.3442815  
C    7.1342243   -2.1296525   -9.0775988  
N    6.2149913   -1.6202380   -8.1943529  
C    7.2863414   -1.9030613  -10.4488412  
C    8.3154298   -2.5635225  -11.0914521  
O    8.5092153   -2.3781887  -12.4297751  
C    9.1737494   -3.4328940  -10.3771010  
O   10.1498118   -4.0160997  -11.1584572  
C    9.0241024   -3.6571145   -9.0243792  
H    7.9444708   -3.5212468   -6.1569629  
H    5.4886678   -0.9666703   -8.4251870  
H    6.6417952   -1.2435911  -11.0135198  
H    9.2679974   -2.9239828  -12.6739566  
H   10.6855821   -4.5874264  -10.5997620  
H    9.6969037   -4.3287369   -8.5040527  
C    5.7075976   -2.1458906   -4.5134257  
C    5.6080286   -1.7400310   -5.8006484  
C    4.4743458   -0.8284979   -5.8198978  
C    3.9952579   -0.7999675   -4.4212399  
N    4.7143359   -1.5702093   -3.6507568  
C    2.8699641   -0.0020530   -4.0185824  
C    2.2516355    0.7342027   -4.9698612  
O    1.1898873    1.5240358   -4.7355644  
C    2.7116332    0.7268601   -6.3898995  
O    2.1013099    1.4213442   -7.2025605  
C    3.8682738   -0.0998986   -6.7779431  
H    0.9759272    1.9152451   -5.6017797  
H    4.1702389   -0.0775583   -7.8164741  
H    6.4250580   -2.8280481   -4.0857754  
C    3.2573670   -0.0002921   -1.5109382  
C    2.5379468   -0.0001711   -0.3591962  
C    1.1435043    0.0000330   -0.7338498  
C    1.1092608   -0.0000085   -2.2088474  
N    2.4227562    0.0001906   -2.6182610  
C   -0.0265533   -0.0002525   -2.9515663  
C   -1.3003033   -0.0002641   -2.2514979  
O   -2.3786785   -0.0004132   -2.8306425  
C   -1.2877724    0.0000310   -0.6895608  
O   -2.3539956    0.0003306   -0.0892035  
C    0.0000000    0.0000000    0.0000000  
H    2.9384091   -0.0000370    0.6389240  
H   -0.0296290   -0.0004088   -4.0327231  
H    4.3270394   -0.0004767   -1.6439445  
C    2.5128556    2.1077716    2.9199648  
C    1.9592212    1.6432552    4.0696553  
C    0.8915788    0.7479214    3.6910360  
C    0.8684491    0.7287414    2.2159470  
N    1.8754542    1.5738793    1.8102719  
C    0.0000000    0.0000000    1.4700000  
C   -0.9772830   -0.8200135    2.1664417  
O   -1.8021297   -1.5120829    1.5842315  
C   -0.9711318   -0.8147624    3.7284083  
O   -1.7894187   -1.5009653    4.3257297  
C    0.0140216    0.0115358    4.4216297  
H    2.2638494    1.8988021    5.0689105  
H    0.0117648    0.0094386    5.5031631  
H    3.3327358    2.7953732    2.7900019  
H    2.1123206    1.7707734    0.8551938  
