62

C    0.9257299   -0.7167798   -5.2310363  
C    0.0950450    0.0004357   -4.4015596  
C   -0.8020942    0.7279290   -5.2385151  
C   -0.4682547    0.4119044   -6.5803816  
N    0.5861906   -0.4662352   -6.5399634  
C   -1.1490752    0.9509639   -7.6761405  
C   -2.1859877    1.8247346   -7.4124828  
O   -2.8845242    2.3798586   -8.4453905  
C   -2.5338283    2.1526768   -6.0804627  
O   -3.5882629    3.0369887   -5.9829748  
C   -1.8624421    1.6214689   -4.9989894  
H    1.0324206   -0.8745737   -7.3412871  
H   -0.8994317    0.7142341   -8.7012457  
H   -3.5540573    2.9507676   -8.0465769  
H   -3.7587632    3.2054701   -5.0512304  
H   -2.1514337    1.8914447   -3.9899923  
H    1.7344792   -1.3861205   -4.9925708  
C    3.3321174    0.0004722   -1.3379336  
C    2.6974183    0.0000122   -2.5332313  
C    1.2800441   -0.0002113   -2.2052840  
C    1.2395036    0.0000646   -0.7271298  
N    2.4394063    0.0005463   -0.2131037  
C    0.0000000    0.0000000    0.0000000  
C   -1.1468699    0.0000637   -0.7169543  
O   -2.3742201    0.0000076   -0.1695489  
C   -1.1388769    0.0001611   -2.2096357  
O   -2.2206234    0.0000908   -2.7970412  
C    0.1454523    0.0001820   -2.9324241  
H    3.1367987   -0.0000643   -3.5160945  
H   -2.9844345    0.0001025   -0.9290168  
C    6.8742267    0.0004681   -4.0661420  
C    5.5942430    0.0009000   -3.5620505  
C    5.7067599    0.0008107   -2.1401007  
C    7.0913512    0.0006008   -1.8321523  
N    7.7720043   -0.0015548   -3.0243456  
C    7.5742856    0.0007693   -0.5200688  
C    6.6425088    0.0014637    0.4997198  
O    7.0593440    0.0020077    1.7994359  
C    5.2567329    0.0013072    0.2125913  
O    4.4562663    0.0016421    1.3362447  
C    4.7795905    0.0008679   -1.0815729  
H    4.6906033    0.0001327   -4.1472239  
H    8.7711582    0.0083692   -3.1221985  
H    8.6283029    0.0004667   -0.2787179  
H    6.2603308    0.0021431    2.3424300  
H    3.5363988    0.0015354    1.0543806  
H    7.2178048   -0.0000028   -5.0863933  
C    0.8175213    0.6860729    2.3021913  
C    0.0000000    0.0000000    1.4700000  
C   -0.8887526   -0.7456559    2.3478473  
C   -0.4549825   -0.3816753    3.7138435  
N    0.5448156    0.4573574    3.6934124  
C   -1.0945674   -0.9182058    4.8835240  
C   -2.1210866   -1.7789155    4.6970523  
O   -2.8083856   -2.3554314    5.6976972  
C   -2.5824069   -2.1655116    3.3310774  
O   -3.5227682   -2.9541547    3.2362962  
C   -1.9100805   -1.6015804    2.1470656  
H   -0.7567140   -0.6349833    5.8697035  
H   -3.4728268   -2.9124471    5.2533954  
H   -2.2742832   -1.9066565    1.1752040  
H    1.6189533    1.3585343    2.0405121  
