62

C    0.9407939   -0.7075072   -5.2230667  
C    0.6134854   -0.4569313   -6.5355259  
C   -0.4865820    0.4509916   -6.5242557  
C   -0.7892287    0.7213088   -5.1651160  
N    0.0950450    0.0004357   -4.4015596  
C   -1.8220586    1.5798549   -4.7765919  
C   -2.5626678    2.1766203   -5.7783637  
O   -3.5826128    3.0240229   -5.4548932  
C   -2.2762265    1.9191613   -7.1401584  
O   -3.1032315    2.5886548   -8.0183305  
C   -1.2576383    1.0720866   -7.5241744  
H    1.1062029   -0.8777272   -7.3952668  
H   -2.0578699    1.7899159   -3.7424409  
H   -3.9627903    3.3251533   -6.2903879  
H   -2.8428304    2.3598639   -8.9157990  
H   -1.0618897    0.8940609   -8.5751109  
H    1.7097005   -1.3363231   -4.8079380  
C    3.3321174    0.0004722   -1.3379336  
C    2.6974183    0.0000122   -2.5332313  
C    1.2800441   -0.0002113   -2.2052840  
C    1.2395036    0.0000646   -0.7271298  
N    2.4394063    0.0005463   -0.2131037  
C    0.0000000    0.0000000    0.0000000  
C   -1.1468699    0.0000637   -0.7169543  
O   -2.3742201    0.0000076   -0.1695489  
C   -1.1388769    0.0001611   -2.2096357  
O   -2.2206234    0.0000908   -2.7970412  
C    0.1454523    0.0001820   -2.9324241  
H    3.1367987   -0.0000643   -3.5160945  
H   -2.9844345    0.0001025   -0.9290168  
C    6.8064687    0.0000406   -4.0743105  
C    7.7887314    0.0006881   -3.1111766  
C    7.1308663    0.0013420   -1.8455492  
C    5.7357528    0.0007680   -2.1016430  
N    5.5736261    0.0019340   -3.4648491  
C    4.7795905    0.0008679   -1.0815729  
C    5.2401782    0.0012528    0.2207468  
O    4.3497078    0.0010157    1.2551919  
C    6.6282669    0.0022033    0.4964753  
O    6.9274455    0.0029071    1.8432624  
C    7.5721104    0.0023784   -0.5093506  
H    8.8489884    0.0017942   -3.2978481  
H    4.6916434   -0.0086996   -3.9444063  
H    4.8738775    0.0016567    2.0666786  
H    7.8844233    0.0034998    1.9422371  
H    8.6285023    0.0032961   -0.2674563  
H    6.8877386   -0.0001762   -5.1477885  
C    2.3971438    2.0127888    3.1728260  
C    1.9431056    1.6308205    1.9564670  
C    0.8496017    0.7127664    2.2356185  
C    0.7794028    0.6545384    3.7115134  
N    1.6840587    1.4146091    4.2663826  
C   -0.1885723   -0.1578550    4.3957118  
C   -1.0476298   -0.8789867    3.6398520  
O   -2.0015663   -1.6796266    4.1448486  
C   -1.0022026   -0.8410666    2.1483229  
O   -1.8147390   -1.5232959    1.5241687  
C    0.0000000    0.0000000    1.4700000  
H    2.3054237    1.9346118    0.9892483  
H   -0.2170646   -0.1815267    5.4753125  
H   -2.4487139   -2.0549881    3.3649027  
H    3.2048689    2.6911772    3.3971983  
