62

C    6.6661884   -3.2992258   -7.4636209  
C    7.3481491   -3.2663080   -8.6579056  
C    7.2834522   -1.9245028   -9.1374603  
C    6.5432372   -1.1775502   -8.1855837  
N    6.1819305   -2.0429933   -7.1830452  
C    6.2813943    0.1878404   -8.3336918  
C    6.7760608    0.8105958   -9.4631428  
O    6.5498569    2.1425461   -9.6574451  
C    7.5165313    0.0822610  -10.4244179  
O    7.9404711    0.8442522  -11.4935237  
C    7.7749958   -1.2648109  -10.2790886  
H    7.8317111   -4.1063390   -9.1264235  
H    5.7177648    0.7627772   -7.6119088  
H    6.9747152    2.3724594  -10.4940445  
H    8.4322802    0.2770843  -12.0952275  
H    8.3449522   -1.7962610  -11.0322073  
H    6.4856739   -4.1197182   -6.7904460  
C    5.6357770   -2.1338823   -4.7226670  
C    5.4138141   -1.6803982   -5.9832854  
C    4.2861634   -0.7812073   -5.9147639  
C    3.8663700   -0.7477411   -4.5007474  
N    4.7243819   -1.5891317   -3.8308458  
C    2.8310662   -0.0116220   -4.0232752  
C    2.0799745    0.8018235   -4.9649245  
O    1.1306873    1.4996777   -4.6330293  
C    2.5068732    0.7814480   -6.4673054  
O    1.8818003    1.4620139   -7.2694113  
C    3.6400757   -0.0517385   -6.8616447  
H    3.9294093   -0.0601124   -7.9037292  
H    6.3883455   -2.8203722   -4.3701591  
H    4.6945082   -1.7768209   -2.8454894  
C    3.3041270    0.0001177   -1.5420434  
C    2.5845372   -0.0004781   -0.3695856  
C    1.2040006   -0.0000008   -0.7283592  
C    1.1422371    0.0006037   -2.1454375  
N    2.4348636    0.0026109   -2.6077467  
C   -0.0655183    0.0008798   -2.8497920  
C   -1.2321770    0.0002326   -2.1101400  
O   -2.4392818    0.0001147   -2.7472520  
C   -1.1911210   -0.0000007   -0.6955263  
O   -2.4371527   -0.0002320   -0.1032859  
C    0.0000000    0.0000000    0.0000000  
H    3.0031533   -0.0000660    0.6222577  
H   -0.1193553    0.0014844   -3.9297472  
H   -3.1132989   -0.0000648   -2.0551784  
H   -2.3200282   -0.0004069    0.8516410  
H    4.3686624    0.0004070   -1.7024294  
C    0.0000000    0.0000000    1.4700000  
C    1.0541688    0.0001722    2.3260392  
C    0.5103138    0.0000454    3.6635956  
C   -0.9576371   -0.0002459    3.5155732  
N   -1.2018458    0.0001392    2.1615969  
C   -1.8348311   -0.0008317    4.5510609  
C   -1.2972847   -0.0009736    5.9014604  
O   -2.0050672   -0.0014265    6.9001319  
C    0.2542623   -0.0004184    6.0817573  
O    0.7184670   -0.0002256    7.2139121  
C    1.0974552   -0.0000873    4.8889129  
H    2.0940752    0.0005483    2.0517982  
H   -2.9081052   -0.0011668    4.4207061  
H    2.1707277    0.0000911    5.0223670  
H   -2.1128194   -0.0014912    1.7406791  
