60

C    6.0175641    0.7172381   -5.8693538  
C    7.0732907   -0.0008200   -5.3572005  
C    7.6466139   -0.7289434   -6.4415142  
C    6.8924118   -0.4124173   -7.6003572  
N    5.9099724    0.4666152   -7.2173008  
C    7.1768136   -0.9518810   -8.8584838  
C    8.2421709   -1.8265786   -8.9484624  
O    8.5638621   -2.3821319  -10.1529919  
C    9.0063719   -2.1550331   -7.8035032  
O   10.0339137   -3.0402596   -8.0562378  
C    8.7262051   -1.6234265   -6.5619605  
H    5.2264889    0.8754636   -7.8285891  
H    6.6057380   -0.7147725   -9.7455319  
H    9.3265349   -2.9536767   -9.9950978  
H   10.4997160   -3.2090372   -7.2315281  
H    9.3291660   -1.8938117   -5.7030026  
H    5.3319133    1.3872300   -5.3795043  
C    4.7161325   -0.0005435   -1.6923264  
C    5.6747634   -0.0008964   -0.7370224  
C    6.9326495   -0.0010016   -1.4679276  
C    6.5359790   -0.0007816   -2.8924403  
N    5.2379004   -0.0004319   -3.0302106  
C    7.5063012   -0.0007606   -3.9524225  
C    8.8134761   -0.0005619   -3.6051057  
O    9.8251245   -0.0005266   -4.4897574  
C    9.2455282   -0.0004050   -2.1762981  
O   10.4523082   -0.0003511   -1.9335990  
C    8.2310910   -0.0004739   -1.1072606  
H    5.5443949   -0.0009741    0.3316587  
H   10.6319759   -0.0003444   -3.9437338  
H    8.5850041   -0.0002400   -0.0850199  
C    3.2573665   -0.0002920   -1.5109385  
C    2.5379463   -0.0001709   -0.3591964  
C    1.1435038    0.0000331   -0.7338500  
C    1.1092599   -0.0000083   -2.2088477  
N    2.4227553    0.0001909   -2.6182613  
C   -0.0265539   -0.0002524   -2.9515660  
C   -1.3003040   -0.0002640   -2.2514977  
O   -2.3786790   -0.0004133   -2.8306421  
C   -1.2877727    0.0000311   -0.6895603  
O   -2.3539959    0.0003306   -0.0892030  
C    0.0000000    0.0000000    0.0000000  
H    2.9384091   -0.0000367    0.6389234  
H   -0.0296303   -0.0004086   -4.0327229  
H    2.7280482   -0.0013407   -3.5742119  
C    0.8681109    0.7263879    2.2709268  
C    0.6127770    0.5096195    3.5869401  
C   -0.4920590   -0.4175482    3.6542670  
C   -0.8620974   -0.7254003    2.2596025  
N    0.0000000    0.0000000    1.4700000  
C   -1.8641242   -1.5660088    1.8976294  
C   -2.6293522   -2.2103885    2.9520183  
O   -3.5512764   -2.9839180    2.7283916  
C   -2.2549728   -1.8987399    4.4361073  
O   -2.8923672   -2.4351063    5.3323774  
C   -1.1543735   -0.9755647    4.7012123  
H    1.1382914    0.9492124    4.4159191  
H   -2.1192137   -1.7782617    0.8686553  
H   -0.9013378   -0.7652422    5.7314848  
H    1.6172880    1.3558399    1.8188057  
