64

C   -4.2048801    0.7087126   -6.1621006  
C   -5.5552535    0.4590683   -6.2435708  
C   -5.7459840   -0.4504454   -7.3257010  
C   -4.4652844   -0.7226483   -7.8712665  
N   -3.5523784   -0.0013212   -7.1426318  
C   -4.2727868   -1.5830914   -8.9563334  
C   -5.3935335   -2.1798502   -9.5003780  
O   -5.2626296   -3.0290624  -10.5609042  
C   -6.6798155   -1.9205261   -8.9702391  
O   -7.6948952   -2.5902686   -9.6217007  
C   -6.8704934   -1.0715795   -7.8999793  
H   -6.3101053    0.8814896   -5.6026709  
H   -3.2993341   -1.7945954   -9.3768788  
H   -6.1537798   -3.3298462  -10.7814615  
H   -8.5294589   -2.3601458   -9.2019977  
H   -7.8677970   -0.8921507   -7.5157021  
H   -3.6556933    1.3381888   -5.4830478  
C   -0.1496416   -0.0015616   -4.3176961  
C    0.8570956   -0.0031043   -5.2552169  
C    0.2320383   -0.0039344   -6.5373647  
C   -1.1692064   -0.0025406   -6.3172809  
N   -1.3663825   -0.0030698   -4.9587013  
C   -2.0987842   -0.0025639   -7.3616342  
C   -1.6048144   -0.0037141   -8.6516611  
O   -2.4683518   -0.0034398   -9.7086935  
C   -0.2100867   -0.0054888   -8.8915534  
O    0.1236722   -0.0068928  -10.2301908  
C    0.7075433   -0.0057398   -7.8617574  
H    1.9121940   -0.0046787   -5.0413048  
H   -2.2604160    0.0082110   -4.5020190  
H   -1.9234607   -0.0046794  -10.5064137  
H    1.0828816   -0.0080166  -10.3044896  
H    1.7698136   -0.0072977   -8.0763683  
C    3.3003544    0.0005274   -1.4738988  
C    2.5232813    0.0003494   -2.6090747  
C    1.1623199   -0.0001321   -2.1820103  
C    1.1711883    0.0000582   -0.7636141  
N    2.4852299   -0.0014920   -0.3662360  
C    0.0000000    0.0000000    0.0000000  
C   -1.2020383    0.0000519   -0.6806477  
O   -2.3759250    0.0003494    0.0157744  
C   -1.2314656   -0.0005115   -2.0955510  
O   -2.5054391   -0.0008040   -2.6250180  
C   -0.0764517   -0.0007275   -2.8495195  
H    2.8919953   -0.0005622   -3.6205304  
H    2.8036267    0.0088182    0.5858661  
H   -3.0835639    0.0000346   -0.6418817  
H   -2.4360050   -0.0011531   -3.5845921  
H    4.3715546    0.0004893   -1.3667137  
C    2.5528530    2.1414826    2.8079335  
C    2.0663498    1.7338582    4.0032312  
C    0.9804344    0.8229586    3.6752840  
C    0.9495562    0.7966882    2.1971295  
N    1.8690446    1.5676019    1.6831036  
C    0.0000000    0.0000000    1.4700000  
C   -0.8785127   -0.7372425    2.1869543  
O   -1.8187535   -1.5261249    1.6395491  
C   -0.8723269   -0.7321790    3.6796354  
O   -1.7010379   -1.4274584    4.2670412  
C    0.1115397    0.0933559    4.4024240  
H    2.4028853    2.0163452    4.9860947  
H   -2.2861435   -1.9184361    2.3990168  
H    0.0832434    0.0693689    5.4835595  
H    3.3664920    2.8238276    2.6198634  
