62

C    3.2884234   -3.0467755   -5.7908117  
C    4.0279888   -3.6927332   -6.7542687  
C    4.9976264   -4.4861865   -6.0724802  
C    4.7995110   -4.2824209   -4.6828196  
N    3.7553888   -3.4015472   -4.5468546  
C    5.5802913   -4.9101172   -3.7075407  
C    6.5790672   -5.7592110   -4.1430429  
O    7.3707171   -6.3982684   -3.2331464  
C    6.7924642   -5.9750964   -5.5253135  
O    7.8253505   -6.8478999   -5.7986291  
C    6.0227637   -5.3559850   -6.4880131  
H    3.8867735   -3.6022334   -7.8176881  
H    3.3801074   -3.0766191   -3.6741769  
H    5.4344556   -4.7589087   -2.6468471  
H    7.9935746   -6.9337986   -3.7415969  
H    7.9026018   -6.9382735   -6.7533378  
H    6.2098562   -5.5407157   -7.5393685  
C    2.1650260   -2.1089222   -5.9297644  
C    1.5723593   -1.6445155   -7.0598740  
C    0.5184562   -0.7489596   -6.6450216  
C    0.5459251   -0.7295293   -5.1700098  
N    1.5661282   -1.5747494   -4.7989591  
C   -0.2963293   -0.0005341   -4.3948471  
C   -1.2968021    0.8195083   -5.0575083  
O   -2.1011000    1.5117977   -4.4474750  
C   -1.3442169    0.8139950   -6.6187661  
O   -2.1824072    1.5002198   -7.1877946  
C   -0.3835323   -0.0125658   -7.3452196  
H    1.8425064   -1.9002750   -8.0689433  
H   -0.4228746   -0.0106490   -8.4260399  
H    1.8355779   -1.7715191   -3.8525310  
C    3.1301146   -0.0010313   -1.7028256  
C    2.5367765   -0.0002766   -0.4864669  
C    1.1089901    0.0001027   -0.7656184  
C    1.0177865   -0.0004150   -2.2415133  
N    2.1993571   -0.0011612   -2.7963824  
C   -0.2459219   -0.0002879   -2.9257116  
C   -1.3675326   -0.0000606   -2.1698520  
O   -2.6129318    0.0000865   -2.6748483  
C   -1.3083588    0.0000910   -0.6783229  
O   -2.3693264    0.0004206   -0.0541685  
C    0.0000000    0.0000000    0.0000000  
H    3.0096016   -0.0001007    0.4807518  
H   -3.1967444    0.0002093   -1.8949026  
H    4.1849275   -0.0015114   -1.9271979  
C    2.5311839    2.1237619    3.0120429  
C    1.9795631    1.6616747    1.8395852  
C    0.9223175    0.7739173    2.1983588  
C    0.8753926    0.7337535    3.6154372  
N    1.8668922    1.5631002    4.0777464  
C   -0.0496243   -0.0427881    4.3197917  
C   -0.9437528   -0.7922060    3.5801400  
O   -1.8685244   -1.5680278    4.2172520  
C   -0.9124520   -0.7656372    2.1655264  
O   -1.8671164   -1.5663939    1.5732860  
C    0.0000000    0.0000000    1.4700000  
H    2.3005065    1.9304404    0.8477417  
H    2.0679347    1.7444845    5.0445261  
H   -0.0904770   -0.0778569    5.3997470  
H   -2.3849669   -2.0011402    3.5251786  
H   -1.7775064   -1.4909735    0.6183591  
H    3.3468514    2.8078103    3.1724291  
