60

C    9.8571366   -0.7192837   -2.1080696  
C    9.2992109   -0.0010180   -3.1401940  
C   10.3574278    0.7269055   -3.7606010  
C   11.5482486    0.4100491   -3.0581236  
N   11.2085705   -0.4689795   -2.0598526  
C   12.7927751    0.9492483   -3.3975475  
C   12.8360107    1.8240163   -4.4657654  
O   14.0253536    2.3793205   -4.8400834  
C   11.6586228    2.1527985   -5.1788413  
O   11.8661232    3.0380552   -6.2164389  
C   10.4304814    1.6214533   -4.8443775  
H   11.8492347   -0.8780264   -1.4039479  
H   13.7040275    0.7118876   -2.8660583  
H   13.8341995    2.9509667   -5.5950306  
H   11.0217636    3.2070616   -6.6455036  
H    9.5458963    1.8920870   -5.4089532  
H    9.3977635   -1.3892220   -1.4015873  
C    5.6463485   -0.0007503   -0.7029966  
C    4.7161325   -0.0005435   -1.6923264  
C    5.4339821   -0.0003284   -2.9451344  
C    6.8689502   -0.0004569   -2.6021234  
N    6.9298893   -0.0003136   -1.2276504  
C    7.8767468   -0.0007182   -3.5109967  
C    7.5246265   -0.0006576   -4.9211552  
O    8.3596092   -0.0008157   -5.8161993  
C    6.0111289   -0.0002696   -5.3073303  
O    5.7025043    0.0000911   -6.4913959  
C    5.0159839   -0.0002906   -4.2379667  
H    3.9702004   -0.0002260   -4.5137576  
H    5.5021930   -0.0009683    0.3652304  
H    7.7763881   -0.0019094   -0.6886838  
C    3.2573665   -0.0002920   -1.5109385  
C    2.5379463   -0.0001709   -0.3591964  
C    1.1435038    0.0000331   -0.7338500  
C    1.1092599   -0.0000083   -2.2088477  
N    2.4227553    0.0001909   -2.6182613  
C   -0.0265539   -0.0002524   -2.9515660  
C   -1.3003040   -0.0002640   -2.2514977  
O   -2.3786790   -0.0004133   -2.8306421  
C   -1.2877727    0.0000311   -0.6895603  
O   -2.3539959    0.0003306   -0.0892030  
C    0.0000000    0.0000000    0.0000000  
H    2.9384091   -0.0000367    0.6389234  
H   -0.0296303   -0.0004086   -4.0327229  
H    2.7280482   -0.0013407   -3.5742119  
C    0.8681109    0.7263879    2.2709268  
C    0.6127770    0.5096195    3.5869401  
C   -0.4920590   -0.4175482    3.6542670  
C   -0.8620974   -0.7254003    2.2596025  
N    0.0000000    0.0000000    1.4700000  
C   -1.8641242   -1.5660088    1.8976294  
C   -2.6293522   -2.2103885    2.9520183  
O   -3.5512764   -2.9839180    2.7283916  
C   -2.2549728   -1.8987399    4.4361073  
O   -2.8923672   -2.4351063    5.3323774  
C   -1.1543735   -0.9755647    4.7012123  
H    1.1382914    0.9492124    4.4159191  
H   -2.1192137   -1.7782617    0.8686553  
H   -0.9013378   -0.7652422    5.7314848  
H    1.6172880    1.3558399    1.8188057  
