62

C    3.1607558   -0.7203982   -7.3329033  
C    2.2241544   -0.0033736   -8.0408025  
C    2.9286421    0.7234944   -9.0457699  
C    4.3037973    0.4073025   -8.9012143  
N    4.4099435   -0.4703303   -7.8509236  
C    5.2945695    0.9457765   -9.7277774  
C    4.8897219    1.8191219  -10.7185059  
O    5.8157958    2.3736673  -11.5538985  
C    3.5223770    2.1472232  -10.8782991  
O    3.2796612    3.0310612  -11.9094446  
C    2.5444438    1.6165925  -10.0630662  
H    5.2653668   -0.8786522   -7.5200074  
H    6.3443578    0.7089162   -9.6226857  
H    5.3280289    2.9443576  -12.1618957  
H    2.3333009    3.1996877  -11.9490809  
H    1.5051526    1.8866761  -10.2093772  
H    3.0367110   -1.3893002   -6.4985524  
C   -0.1496416   -0.0015616   -4.3176961  
C    0.8605985   -0.0020604   -5.2251593  
C    0.2508226   -0.0027743   -6.5339786  
C   -1.2079377   -0.0026204   -6.3130522  
N   -1.3844307   -0.0022742   -4.9485963  
C   -2.1355997   -0.0027544   -7.3035815  
C   -1.6659552   -0.0032973   -8.6790705  
O   -2.4225826   -0.0035177   -9.6412627  
C   -0.1253092   -0.0037208   -8.9363927  
O    0.2819511   -0.0044860  -10.0902551  
C    0.7762285   -0.0032482   -7.7870095  
H    1.9128694   -0.0021242   -5.0030344  
H   -3.2010529   -0.0025071   -7.1199511  
H   -2.2733177   -0.0005425   -4.4828452  
C    3.3003544    0.0005274   -1.4738988  
C    2.5232813    0.0003494   -2.6090747  
C    1.1623199   -0.0001321   -2.1820103  
C    1.1711883    0.0000582   -0.7636141  
N    2.4852299   -0.0014920   -0.3662360  
C    0.0000000    0.0000000    0.0000000  
C   -1.2020383    0.0000519   -0.6806477  
O   -2.3759250    0.0003494    0.0157744  
C   -1.2314656   -0.0005115   -2.0955510  
O   -2.5054391   -0.0008040   -2.6250180  
C   -0.0764517   -0.0007275   -2.8495195  
H    2.8919953   -0.0005622   -3.6205304  
H    2.8036267    0.0088182    0.5858661  
H   -3.0835639    0.0000346   -0.6418817  
H   -2.4360050   -0.0011531   -3.5845921  
H    4.3715546    0.0004893   -1.3667137  
C    0.8400945    0.7047457    2.2710304  
C    0.0000000    0.0000000    1.4700000  
C   -0.8844236   -0.7423113    2.3369512  
C   -0.4878984   -0.4098547    3.7186280  
N    0.5629682    0.4714286    3.6095011  
C   -1.0836927   -0.9095027    4.8308716  
C   -2.1891196   -1.8367527    4.6554461  
O   -2.7906899   -2.3413415    5.5944904  
C   -2.6257283   -2.2031529    3.2011665  
O   -3.5549479   -2.9829990    3.0410059  
C   -1.9068976   -1.5999348    2.0816745  
H   -0.7774656   -0.6525820    5.8354244  
H   -2.2155208   -1.8586617    1.0779135  
H    1.6384792    1.3747609    1.9961646  
H    1.0518368    0.8833920    4.3830260  
