62

C    5.1716583   -2.3633465   -4.7626504  
C    4.7848055   -1.0599246   -4.9721819  
C    5.8389770   -0.4233149   -5.6919384  
C    6.8509711   -1.3962105   -5.8950856  
N    6.4145514   -2.5622536   -5.3167262  
C    8.0419882   -1.1184523   -6.5726686  
C    8.2144143    0.1647336   -7.0542079  
O    9.3585865    0.4900351   -7.7235831  
C    7.2163806    1.1493597   -6.8611853  
O    7.5368719    2.3786184   -7.3992867  
C    6.0412840    0.8761239   -6.1925925  
H    6.9178165   -3.4309721   -5.3108712  
H    8.8172457   -1.8554812   -6.7306772  
H    9.2760092    1.4206850   -7.9692171  
H    6.8108847    2.9854483   -7.2252054  
H    5.2951540    1.6508361   -6.0599721  
H    4.6599584   -3.1664816   -4.2605587  
C    2.9043670   -0.7136448   -3.3215824  
C    1.7334695    0.0049281   -3.2500363  
C    1.6178827    0.7351380   -4.4698861  
C    2.7571742    0.4192953   -5.2535850  
N    3.5185104   -0.4613564   -4.5259608  
C    2.9748791    0.9607486   -6.5241054  
C    2.0250228    1.8367708   -7.0125071  
O    2.1878104    2.3942849   -8.2476962  
C    0.8817961    2.1645715   -6.2454372  
O    0.0290270    3.0512956   -6.8698164  
C    0.6665121    1.6310018   -4.9918492  
H    3.8412004    0.7241708   -7.1263684  
H    1.4229291    2.9664834   -8.3919541  
H   -0.7162334    3.2195063   -6.2850980  
H   -0.2185384    1.9009301   -4.4276656  
H    3.3507362   -1.3850623   -2.6082017  
C    1.1319246    0.0015678   -0.8009268  
C    0.7969914    0.0034958   -2.1169401  
C   -0.6453340    0.0035696   -2.1842669  
C   -1.1266832    0.0015410   -0.7896025  
N    0.0000000    0.0000000    0.0000000  
C   -2.4346129    0.0013913   -0.4276292  
C   -3.4350111    0.0031335   -1.4820181  
O   -4.6384614    0.0030875   -1.2583914  
C   -2.9478961    0.0050442   -2.9661074  
O   -3.7809382    0.0062135   -3.8623773  
C   -1.5113825    0.0053055   -3.2312122  
H   -2.7664565    0.0000174    0.6013448  
H   -1.1823533    0.0068381   -4.2614848  
H    2.1104316    0.0009435   -0.3488059  
C    0.8400945    0.7047457    2.2710304  
C    0.0000000    0.0000000    1.4700000  
C   -0.8844236   -0.7423113    2.3369512  
C   -0.4878984   -0.4098547    3.7186280  
N    0.5629682    0.4714286    3.6095011  
C   -1.0836927   -0.9095027    4.8308716  
C   -2.1891196   -1.8367527    4.6554461  
O   -2.7906899   -2.3413415    5.5944904  
C   -2.6257283   -2.2031529    3.2011665  
O   -3.5549479   -2.9829990    3.0410059  
C   -1.9068976   -1.5999348    2.0816745  
H   -0.7774656   -0.6525820    5.8354244  
H   -2.2155208   -1.8586617    1.0779135  
H    1.6384792    1.3747609    1.9961646  
H    1.0518368    0.8833920    4.3830260  
