62

C   -4.0986953    0.7230842   -7.7581830  
C   -3.1612588    0.0061823   -8.4651000  
C   -3.8646812   -0.7213607   -9.4703254  
C   -5.2400781   -0.4056882   -9.3269321  
N   -5.3473860    0.4722984   -8.2770554  
C   -6.2299976   -0.9448890  -10.1540410  
C   -5.8240356   -1.8184412  -11.1441318  
O   -6.7492449   -2.3736895  -11.9800152  
C   -4.4564333   -2.1460317  -11.3027631  
O   -4.2125664   -3.0301591  -12.3333903  
C   -3.4793392   -1.6146840  -10.4869903  
H   -6.2032293    0.8803886   -7.9469421  
H   -7.2799642   -0.7084272  -10.0498350  
H   -6.2607783   -2.9444064  -12.5874259  
H   -3.2661061   -3.1984057  -12.3722444  
H   -2.4398247   -1.8843892  -10.6324118  
H   -3.9755629    1.3923540   -6.9239920  
C   -0.9736295    0.0040466   -4.6965763  
C    0.3136156    0.0047603   -5.1144031  
C    0.2364007    0.0059852   -6.5671712  
C   -1.2123337    0.0057278   -6.8634017  
N   -1.9266299    0.0046737   -5.7708044  
C   -1.7135262    0.0067575   -8.2102096  
C   -0.8085709    0.0083771   -9.2153904  
O   -1.1348685    0.0094717  -10.5190660  
C    0.6601134    0.0090496   -8.9486954  
O    1.4261903    0.0104126   -9.9122021  
C    1.1492577    0.0079248   -7.5584929  
H    1.2054047    0.0045795   -4.5112551  
H   -0.2810977    0.0105426  -10.9883478  
H    2.2204487    0.0085759   -7.4075623  
C    1.1188642    0.0008216   -0.8003808  
C    0.0000000    0.0000000    0.0000000  
C   -1.1323861    0.0008904   -0.8673528  
C   -0.6382661    0.0019681   -2.1969280  
N    0.7324017    0.0038477   -2.1202241  
C   -1.4770913    0.0027323   -3.3154808  
C   -2.8395472    0.0020956   -3.0876858  
O   -3.7039201    0.0024441   -4.1440350  
C   -3.3517867    0.0013945   -1.7684332  
O   -4.7300494    0.0012387   -1.7073122  
C   -2.5248543    0.0009134   -0.6644817  
H    1.3576316   -0.0056175   -2.9057045  
H   -4.5940031    0.0021847   -3.7685129  
H   -4.9934602    0.0007284   -0.7819915  
H   -2.9462576    0.0005617    0.3339659  
H    2.1619896    0.0009343   -0.5342067  
C    2.5128556    2.1077716    2.9199648  
C    1.9592212    1.6432552    4.0696553  
C    0.8915788    0.7479214    3.6910360  
C    0.8684491    0.7287414    2.2159470  
N    1.8754542    1.5738793    1.8102719  
C    0.0000000    0.0000000    1.4700000  
C   -0.9772830   -0.8200135    2.1664417  
O   -1.8021297   -1.5120829    1.5842315  
C   -0.9711318   -0.8147624    3.7284083  
O   -1.7894187   -1.5009653    4.3257297  
C    0.0140216    0.0115358    4.4216297  
H    2.2638494    1.8988021    5.0689105  
H    0.0117648    0.0094386    5.5031631  
H    3.3327358    2.7953732    2.7900019  
H    2.1123206    1.7707734    0.8551938  
