60

C    8.6145665   -3.2802045   -3.7408534  
C    7.4212524   -2.5977690   -3.6884024  
C    7.7103846   -1.2308145   -3.9755233  
C    9.1083906   -1.1387145   -4.1969373  
N    9.6271187   -2.4006226   -4.0448650  
C    9.7473279    0.0657299   -4.5065504  
C    8.9606126    1.1977697   -4.5945436  
O    9.5330532    2.4000250   -4.8943926  
C    7.5641130    1.1261730   -4.3766461  
O    6.9194094    2.3396634   -4.4996940  
C    6.9331516   -0.0616543   -4.0709015  
H    6.4607162   -3.0316092   -3.4689803  
H   10.5942953   -2.6474100   -4.1527772  
H   10.8124462    0.1426057   -4.6762970  
H    8.8168487    3.0482472   -4.9055191  
H    5.9809564    2.2033164   -4.3374641  
H    8.8237434   -4.3245308   -3.5840519  
C    4.1985330   -2.1423498   -1.2324142  
C    5.3247411   -1.7348288   -1.8626208  
C    4.8654772   -0.8236655   -2.8996154  
C    3.3948137   -0.7971457   -2.7478595  
N    2.9980296   -1.5681521   -1.7721028  
C    2.5562217   -0.0001543   -3.6003001  
C    3.1594332    0.7371395   -4.5604398  
O    2.5003399    1.5262938   -5.4258142  
C    4.6414695    0.7318289   -4.7384884  
O    5.1222596    1.4271711   -5.6332286  
C    5.4799816   -0.0940150   -3.8514687  
H    6.3415670   -2.0175427   -1.6499837  
H    3.1964050    1.9185699   -5.9832782  
H    4.1121693   -2.8248211   -0.4019036  
C    0.0000000    0.0000000    0.0000000  
C    1.0541688   -0.0001719   -0.8560391  
C    0.5103141   -0.0000449   -2.1935955  
C   -0.9576367    0.0002461   -2.0455733  
N   -1.2018459   -0.0001392   -0.6915970  
C   -1.8348306    0.0008319   -3.0810611  
C   -1.2972842    0.0009739   -4.4314605  
O   -2.0050664    0.0014267   -5.4301321  
C    0.2542628    0.0004190   -4.6117571  
O    0.7184677    0.0002263   -5.7439119  
C    1.0974556    0.0000880   -3.4189127  
H    2.0940752   -0.0005479   -0.5817978  
H   -2.9081050    0.0011669   -2.9507065  
H   -2.1128195    0.0014911   -0.2706793  
C    3.2573670    0.0002920    2.9809380  
C    2.5379467    0.0001709    1.8291961  
C    1.1435042   -0.0000331    2.2038498  
C    1.1092607    0.0000083    3.6788474  
N    2.4227561   -0.0001909    4.0882609  
C   -0.0265533    0.0002524    4.4215661  
C   -1.3003036    0.0002640    3.7214979  
O   -2.3786784    0.0004133    4.3006425  
C   -1.2877726   -0.0000311    2.1595606  
O   -2.3539958   -0.0003306    1.5592035  
C    0.0000000    0.0000000    1.4700000  
H    2.9384090    0.0000368    0.8310761  
H   -0.0296291    0.0004086    5.5027230  
H    4.3270393    0.0004765    3.1139444  
H    2.7280493    0.0013407    5.0442112  
