64

C    7.3745182   -5.5078675   -1.1630833  
C    6.4367106   -4.5447048   -1.4551508  
C    7.1428127   -3.3198530   -1.6442488  
C    8.5202082   -3.5997622   -1.4535708  
N    8.6256469   -4.9368840   -1.1609873  
C    9.5130576   -2.6215556   -1.5637965  
C    9.1080859   -1.3374520   -1.8724264  
O   10.0362080   -0.3438735   -1.9924529  
C    7.7384465   -1.0383991   -2.0659993  
O    7.4958266    0.2859066   -2.3671534  
C    6.7584072   -2.0028679   -1.9571496  
H    5.3742679   -4.7049615   -1.5224253  
H    9.4844044   -5.4267886   -0.9863135  
H   10.5645298   -2.8284215   -1.4195189  
H    9.5478969    0.4613074   -2.2080927  
H    6.5478479    0.4029034   -2.4822707  
H    7.2498090   -6.5566656   -0.9546863  
C    4.2912323   -2.1143351   -1.4466317  
C    5.3462901   -1.6515578   -2.1654949  
C    4.8141498   -0.7557115   -3.1650558  
C    3.3521068   -0.7343357   -2.9681712  
N    3.0997464   -1.5788209   -1.9117392  
C    2.4861704   -0.0045255   -3.7159919  
C    3.0304435    0.8144036   -4.7863461  
O    2.3328584    1.5073004   -5.5154345  
C    4.5758858    0.8068264   -5.0129661  
O    5.0456360    1.4921000   -5.9112952  
C    5.4069285   -0.0204565   -4.1418624  
H    6.4760576   -0.0199704   -4.3052231  
H    4.2838598   -2.8017032   -0.6163547  
H    2.1903282   -1.7742811   -1.5351743  
C    0.0000000    0.0000000    0.0000000  
C    1.0521669   -0.0011848   -0.8862341  
C    0.4917221   -0.0011931   -2.1979130  
C   -0.9187427    0.0003100   -2.0478683  
N   -1.1833170   -0.0009472   -0.7007915  
C   -1.7951698    0.0010259   -3.1372090  
C   -1.2375835    0.0005161   -4.4010425  
O   -2.0474208    0.0015256   -5.4997580  
C    0.1673584   -0.0013557   -4.5711962  
O    0.5673529   -0.0020659   -5.8915551  
C    1.0325773   -0.0023359   -3.4969890  
H    2.0953059   -0.0030542   -0.6200560  
H   -2.0989777    0.0102265   -0.2891825  
H   -2.8710930    0.0020274   -3.0295514  
H   -1.4634881    0.0006427   -6.2693593  
H    1.5290715   -0.0033076   -5.9180042  
C    0.0000000    0.0000000    1.4700000  
C    1.0521667    0.0011902    2.3562342  
C    0.4917218    0.0011957    3.6679131  
C   -0.9187428   -0.0003148    3.5178682  
N   -1.1833171    0.0009411    2.1707914  
C   -1.7951701   -0.0010350    4.6072090  
C   -1.2375837   -0.0005224    5.8710424  
O   -2.0474215   -0.0015360    6.9697579  
C    0.1673580    0.0013566    6.0411963  
O    0.5673524    0.0020687    7.3615553  
C    1.0325770    0.0023412    4.9669890  
H    2.0953057    0.0030649    2.0900562  
H   -2.0989778   -0.0102372    1.7591824  
H   -2.8710934   -0.0020419    4.4995513  
H   -1.4634884   -0.0006497    7.7393593  
H    1.5290710    0.0033153    7.3880045  
H    2.1042148    0.0039609    5.1284455  
