60

C    0.8696307   -1.0761641   -7.7091951  
C    1.9207932   -1.9622499   -7.7579480  
C    2.1816660   -2.2233775   -9.1357569  
C    1.2503568   -1.4619358   -9.8872862  
N    0.4674653   -0.7785704   -8.9902304  
C    1.2159561   -1.4746708  -11.2849424  
C    2.1387098   -2.2703404  -11.9357980  
O    2.1495661   -2.3196853  -13.2997849  
C    3.0756595   -3.0375874  -11.2034907  
O    3.9278618   -3.7785644  -11.9959852  
C    3.1099983   -3.0257189   -9.8246478  
H    2.4354454   -2.3710680   -6.9053087  
H   -0.2752256   -0.1473946   -9.2310797  
H    0.5085760   -0.8967353  -11.8635675  
H    2.8606702   -2.9257003  -13.5454302  
H    4.5278080   -4.2667593  -11.4238545  
H    3.8391291   -3.6240969   -9.2909915  
C    0.5157023   -0.7055389   -5.2240925  
C   -0.2963293   -0.0005341   -4.3948471  
C   -1.2098552    0.7417638   -5.2310887  
C   -0.8609896    0.4090171   -6.6254926  
N    0.1928750   -0.4724045   -6.5523132  
C   -1.4945018    0.9085675   -7.7167381  
C   -2.5931303    1.8360112   -7.5036697  
O   -3.2264755    2.3405325   -8.4216202  
C   -2.9795613    2.2027198   -6.0353367  
O   -3.9026312    2.9827311   -5.8435407  
C   -2.2228515    1.5995820   -4.9410482  
H   -1.2229386    0.6514332   -8.7311565  
H   -2.4968364    1.8585229   -3.9273394  
H    1.3229470   -1.3756268   -4.9766502  
C    3.1301146   -0.0010313   -1.7028256  
C    2.5367765   -0.0002766   -0.4864669  
C    1.1089901    0.0001027   -0.7656184  
C    1.0177865   -0.0004150   -2.2415133  
N    2.1993571   -0.0011612   -2.7963824  
C   -0.2459219   -0.0002879   -2.9257116  
C   -1.3675326   -0.0000606   -2.1698520  
O   -2.6129318    0.0000865   -2.6748483  
C   -1.3083588    0.0000910   -0.6783229  
O   -2.3693264    0.0004206   -0.0541685  
C    0.0000000    0.0000000    0.0000000  
H    3.0096016   -0.0001007    0.4807518  
H   -3.1967444    0.0002093   -1.8949026  
H    4.1849275   -0.0015114   -1.9271979  
C    0.8400945    0.7047457    2.2710304  
C    0.0000000    0.0000000    1.4700000  
C   -0.8844236   -0.7423113    2.3369512  
C   -0.4878984   -0.4098547    3.7186280  
N    0.5629682    0.4714286    3.6095011  
C   -1.0836927   -0.9095027    4.8308716  
C   -2.1891196   -1.8367527    4.6554461  
O   -2.7906899   -2.3413415    5.5944904  
C   -2.6257283   -2.2031529    3.2011665  
O   -3.5549479   -2.9829990    3.0410059  
C   -1.9068976   -1.5999348    2.0816745  
H   -0.7774656   -0.6525820    5.8354244  
H   -2.2155208   -1.8586617    1.0779135  
H    1.6384792    1.3747609    1.9961646  
H    1.0518368    0.8833920    4.3830260  
