60

C   -0.0366744   -0.8951959   -9.6377171  
C   -0.1299962   -0.4929560  -10.9499524  
C   -0.3876789    0.9099192  -10.9380899  
C   -0.4411708    1.3117858   -9.5788368  
N   -0.2258923    0.1910652   -8.8157785  
C   -0.6780002    2.6336516   -9.1897712  
C   -0.8639202    3.5668900  -10.1911097  
O   -1.0982592    4.8719259   -9.8671030  
C   -0.8145652    3.1852937  -11.5530069  
O   -1.0194285    4.2298161  -12.4307027  
C   -0.5812406    1.8813739  -11.9375558  
H   -0.0263194   -1.1322467  -11.8099240  
H   -0.7201167    2.9463391   -8.1555302  
H   -1.1980413    5.3469534  -10.7023616  
H   -0.9701223    3.8869880  -13.3282778  
H   -0.5492241    1.6189861  -12.9885589  
H    0.1484676   -1.8712616   -9.2230157  
C    2.4064704   -2.0119089   -6.1315527  
C    1.9558553   -1.6301625   -4.9138521  
C    0.8614673   -0.7121809   -5.1897589  
C    0.7870640   -0.6537475   -6.6654397  
N    1.6902156   -1.4136448   -7.2229901  
C   -0.1829370    0.1586449   -7.3467641  
C   -1.0399147    0.8795790   -6.5883597  
O   -1.9953662    1.6801933   -7.0905244  
C   -0.9902404    0.8414487   -5.0969710  
O   -1.8010679    1.5235043   -4.4704093  
C    0.0139741    0.0003876   -4.4216236  
H    2.3209548   -1.9340559   -3.9477120  
H   -2.4403315    2.0553965   -6.3092554  
H    3.2136235   -2.6901819   -6.3583201  
C    3.2798085    0.0005853   -1.4499648  
C    2.5571144    0.0005562   -2.5996554  
C    1.1637436    0.0001546   -2.2210360  
C    1.1336965   -0.0000201   -0.7459470  
N    2.4483513   -0.0001430   -0.3402717  
C    0.0000000    0.0000000    0.0000000  
C   -1.2757367   -0.0000188   -0.6964414  
O   -2.3524597   -0.0000640   -0.1142313  
C   -1.2676494   -0.0000875   -2.2584081  
O   -2.3355762   -0.0004102   -2.8557294  
C    0.0181562    0.0001757   -2.9516296  
H    2.9547357    0.0006072   -3.5989105  
H    4.3498550    0.0008609   -1.3200021  
H    2.7563627    0.0012824    0.6148063  
C    0.8400945    0.7047457    2.2710304  
C    0.0000000    0.0000000    1.4700000  
C   -0.8844236   -0.7423113    2.3369512  
C   -0.4878984   -0.4098547    3.7186280  
N    0.5629682    0.4714286    3.6095011  
C   -1.0836927   -0.9095027    4.8308716  
C   -2.1891196   -1.8367527    4.6554461  
O   -2.7906899   -2.3413415    5.5944904  
C   -2.6257283   -2.2031529    3.2011665  
O   -3.5549479   -2.9829990    3.0410059  
C   -1.9068976   -1.5999348    2.0816745  
H   -0.7774656   -0.6525820    5.8354244  
H   -2.2155208   -1.8586617    1.0779135  
H    1.6384792    1.3747609    1.9961646  
H    1.0518368    0.8833920    4.3830260  
