62

C    9.6394801    0.7160609   -4.8006225  
C   10.9925218    0.4675743   -4.8001885  
C   11.2484214   -0.4422018   -3.7318144  
C   10.0028837   -0.7157506   -3.1107392  
N    9.0474095    0.0050617   -3.7831345  
C    9.8763758   -1.5767951   -2.0164871  
C   11.0281708   -2.1727825   -1.5407277  
O   10.9616678   -3.0225319   -0.4746524  
C   12.2802137   -1.9121137   -2.1467438  
O   13.3330191   -2.5812206   -1.5574719  
C   12.4058012   -1.0625732   -3.2261113  
H   11.7073221    0.8909158   -5.4849045  
H    8.9300044   -1.7893239   -1.5385599  
H   11.8646736   -3.3226179   -0.3079332  
H   14.1407840   -2.3501953   -2.0262429  
H   13.3781785   -0.8821125   -3.6692770  
H    9.0501185    1.3453232   -5.4453231  
C    6.5907972    0.0037508   -4.4182849  
C    5.3731499    0.0029998   -3.8171112  
C    5.6071058    0.0014825   -2.3922965  
C    7.0713649    0.0014399   -2.2113666  
N    7.6095209    0.0024508   -3.4775726  
C    7.6973073    0.0005989   -1.0072487  
C    6.8738986   -0.0005524    0.1904706  
O    7.3427979   -0.0014289    1.3211484  
C    5.3209699   -0.0007806    0.0224891  
O    4.6174383   -0.0020529    1.0236398  
C    4.7630507    0.0004755   -1.3275395  
H    4.4198606    0.0032744   -4.3149605  
H    8.7727862    0.0007140   -0.8965439  
H    6.8296430    0.0049279   -5.4693992  
C    3.3003548    0.0005276   -1.4738982  
C    2.5232817    0.0003497   -2.6090743  
C    1.1623204   -0.0001319   -2.1820101  
C    1.1711886    0.0000583   -0.7636140  
N    2.4852302   -0.0014919   -0.3662356  
C    0.0000000    0.0000000    0.0000000  
C   -1.2020379    0.0000520   -0.6806479  
O   -2.3759249    0.0003495    0.0157742  
C   -1.2314652   -0.0005112   -2.0955511  
O   -2.5054384   -0.0008036   -2.6250184  
C   -0.0764510   -0.0007271   -2.8495195  
H    2.8919962   -0.0005619   -3.6205297  
H    2.8036267    0.0088181    0.5858667  
H   -3.0835636    0.0000348   -0.6418823  
H   -2.4360038   -0.0011526   -3.5845925  
H   -0.1304090   -0.0013420   -3.9319089  
C    0.0000000    0.0000000    1.4700000  
C    1.0541688    0.0001722    2.3260392  
C    0.5103138    0.0000454    3.6635956  
C   -0.9576371   -0.0002459    3.5155732  
N   -1.2018458    0.0001392    2.1615969  
C   -1.8348311   -0.0008317    4.5510609  
C   -1.2972847   -0.0009736    5.9014604  
O   -2.0050672   -0.0014265    6.9001319  
C    0.2542623   -0.0004184    6.0817573  
O    0.7184670   -0.0002256    7.2139121  
C    1.0974552   -0.0000873    4.8889129  
H    2.0940752    0.0005483    2.0517982  
H   -2.9081052   -0.0011668    4.4207061  
H    2.1707277    0.0000911    5.0223670  
H   -2.1128194   -0.0014912    1.7406791  
