62

C   -3.6304804   -0.0040760   -6.9390032  
C   -4.2595076   -0.0027802   -5.7155692  
C   -5.6631889   -0.0033737   -5.9691017  
C   -5.8317519   -0.0053416   -7.3774726  
N   -4.5777148   -0.0037702   -7.9360470  
C   -7.0892334   -0.0067059   -7.9886424  
C   -8.1967258   -0.0063789   -7.1630283  
O   -9.4484819   -0.0080156   -7.7071955  
C   -8.0489971   -0.0040505   -5.7555531  
O   -9.2467650   -0.0035975   -5.0709387  
C   -6.8087700   -0.0024305   -5.1519308  
H   -3.7672116   -0.0004524   -4.7581601  
H   -4.3808659   -0.0151499   -8.9204770  
H   -7.2244430   -0.0080638   -9.0614513  
H  -10.0683305   -0.0071553   -6.9662153  
H   -9.0578870   -0.0020160   -4.1275797  
H   -6.7269588   -0.0004777   -4.0712917  
C   -0.1496416   -0.0015616   -4.3176961  
C    0.8738324   -0.0018843   -5.2031790  
C    0.2377937   -0.0027129   -6.5115956  
C   -1.2121179   -0.0029010   -6.2211811  
N   -1.4453514   -0.0021478   -4.9368172  
C   -2.1975665   -0.0036288   -7.2671149  
C   -1.7546874   -0.0037561   -8.5450792  
O   -2.5622331   -0.0044166   -9.6192806  
C   -0.2978804   -0.0032019   -8.8704614  
O    0.0332548   -0.0034793  -10.0560289  
C    0.6933422   -0.0025030   -7.7798645  
H    1.9299714   -0.0015051   -4.9942637  
H   -1.9581285   -0.0043080  -10.3836172  
H    1.7389224   -0.0020008   -8.0573383  
C    3.3003544    0.0005274   -1.4738988  
C    2.5232813    0.0003494   -2.6090747  
C    1.1623199   -0.0001321   -2.1820103  
C    1.1711883    0.0000582   -0.7636141  
N    2.4852299   -0.0014920   -0.3662360  
C    0.0000000    0.0000000    0.0000000  
C   -1.2020383    0.0000519   -0.6806477  
O   -2.3759250    0.0003494    0.0157744  
C   -1.2314656   -0.0005115   -2.0955510  
O   -2.5054391   -0.0008040   -2.6250180  
C   -0.0764517   -0.0007275   -2.8495195  
H    2.8919953   -0.0005622   -3.6205304  
H    2.8036267    0.0088182    0.5858661  
H   -3.0835639    0.0000346   -0.6418817  
H   -2.4360050   -0.0011531   -3.5845921  
H    4.3715546    0.0004893   -1.3667137  
C    0.0000000    0.0000000    1.4700000  
C    1.0541688    0.0001722    2.3260392  
C    0.5103138    0.0000454    3.6635956  
C   -0.9576371   -0.0002459    3.5155732  
N   -1.2018458    0.0001392    2.1615969  
C   -1.8348311   -0.0008317    4.5510609  
C   -1.2972847   -0.0009736    5.9014604  
O   -2.0050672   -0.0014265    6.9001319  
C    0.2542623   -0.0004184    6.0817573  
O    0.7184670   -0.0002256    7.2139121  
C    1.0974552   -0.0000873    4.8889129  
H    2.0940752    0.0005483    2.0517982  
H   -2.9081052   -0.0011668    4.4207061  
H    2.1707277    0.0000911    5.0223670  
H   -2.1128194   -0.0014912    1.7406791  
