60

C    6.1554744   -4.5902587   -5.7388388  
C    7.1058075   -4.3763725   -6.7102220  
C    6.9850690   -3.0149170   -7.1182175  
C    5.9356099   -2.4430150   -6.3543516  
N    5.4524108   -3.4272079   -5.5282158  
C    5.5391904   -1.1094507   -6.4930844  
C    6.2146977   -0.3391038   -7.4196017  
O    5.8685596    0.9694536   -7.5953282  
C    7.2642782   -0.8917466   -8.1914714  
O    7.8381415    0.0030276   -9.0709048  
C    7.6557081   -2.2073352   -8.0553287  
H    7.7998697   -5.1115249   -7.0801186  
H    4.7098444   -3.3131048   -4.8622155  
H    6.4559174    1.3178644   -8.2786188  
H    8.5371573   -0.4497310   -9.5525597  
H    8.4630180   -2.6027228   -8.6606369  
H    5.9225800   -5.4808088   -5.1805930  
C    4.2034632   -0.7255611   -4.3886927  
C    4.4527392   -0.5087782   -5.7058645  
C    3.4509038    0.4181860   -6.1769258  
C    2.5913884    0.7259028   -5.0179026  
N    3.1006054    0.0006263   -3.9654951  
C    1.5263726    1.5663063   -5.0520706  
C    1.2050739    2.2105929   -6.3146855  
O    0.2656473    2.9839394   -6.4477796  
C    2.1016856    1.8990847   -7.5551920  
O    1.8407233    2.4353745   -8.6236264  
C    3.2224910    0.9761281   -7.3945737  
H    0.9088831    1.7784629   -4.1903242  
H    3.8385514    0.7659019   -8.2582846  
H    4.7325171   -1.3548943   -3.6916046  
C    3.2798083    0.0005857   -1.4499652  
C    2.5571142    0.0005565   -2.5996556  
C    1.1637432    0.0001548   -2.2210361  
C    1.1336964   -0.0000200   -0.7459473  
N    2.4483512   -0.0001428   -0.3402723  
C    0.0000000    0.0000000    0.0000000  
C   -1.2757368   -0.0000186   -0.6964415  
O   -2.3524598   -0.0000639   -0.1142311  
C   -1.2676497   -0.0000872   -2.2584083  
O   -2.3355766   -0.0004101   -2.8557295  
C    0.0181558    0.0001758   -2.9516296  
H    0.0150788    0.0003319   -4.0331631  
H    4.3498547    0.0008612   -1.3200026  
H    2.7563626    0.0012823    0.6148059  
C    2.3971438    2.0127888    3.1728260  
C    1.9431056    1.6308205    1.9564670  
C    0.8496017    0.7127664    2.2356185  
C    0.7794028    0.6545384    3.7115134  
N    1.6840587    1.4146091    4.2663826  
C   -0.1885723   -0.1578550    4.3957118  
C   -1.0476298   -0.8789867    3.6398520  
O   -2.0015663   -1.6796266    4.1448486  
C   -1.0022026   -0.8410666    2.1483229  
O   -1.8147390   -1.5232959    1.5241687  
C    0.0000000    0.0000000    1.4700000  
H    2.3054237    1.9346118    0.9892483  
H   -0.2170646   -0.1815267    5.4753125  
H   -2.4487139   -2.0549881    3.3649027  
H    3.2048689    2.6911772    3.3971983  
