62

C    8.3549464   -0.7048878    0.7886064  
C    9.6221257   -0.4532979    1.2612837  
C   10.2342120    0.4557528    0.3482787  
C    9.2843701    0.7256817   -0.6699873  
N    8.1552301    0.0035034   -0.3731356  
C    9.5473781    1.5850918   -1.7409819  
C   10.7918092    2.1831370   -1.7846789  
O   11.1011848    3.0314244   -2.8082549  
C   11.7529955    1.9260847   -0.7782675  
O   12.9443041    2.5968831   -0.9630860  
C   11.4943143    1.0781579    0.2784397  
H   10.0527863   -0.8741587    2.1536979  
H    8.8277805    1.7948628   -2.5203263  
H   12.0049084    3.3333771   -2.6489595  
H   13.5372987    2.3682865   -0.2407953  
H   12.2503837    0.9004722    1.0342605  
H    7.5782960   -1.3347103    1.1874767  
C    5.6506104    0.0006750   -0.6678807  
C    6.9152385    0.0024406   -1.1626409  
C    6.8040776    0.0027733   -2.6022515  
C    5.3606764    0.0010736   -2.9078307  
N    4.7161325   -0.0005435   -1.6923264  
C    4.8400799    0.0012310   -4.1611001  
C    5.7629687    0.0029804   -5.2839571  
O    5.3925537    0.0031985   -6.4506159  
C    7.2958235    0.0045458   -4.9836904  
O    8.0824529    0.0057183   -5.9209602  
C    7.7361582    0.0044924   -3.5908671  
H    3.7780219    0.0000955   -4.3634394  
H    8.7991574    0.0057871   -3.3914808  
H    5.3226856   -0.0000553    0.3589367  
C    3.2573665   -0.0002920   -1.5109385  
C    2.5379463   -0.0001709   -0.3591964  
C    1.1435038    0.0000331   -0.7338500  
C    1.1092599   -0.0000083   -2.2088477  
N    2.4227553    0.0001909   -2.6182613  
C   -0.0265539   -0.0002524   -2.9515660  
C   -1.3003040   -0.0002640   -2.2514977  
O   -2.3786790   -0.0004133   -2.8306421  
C   -1.2877727    0.0000311   -0.6895603  
O   -2.3539959    0.0003306   -0.0892030  
C    0.0000000    0.0000000    0.0000000  
H    2.9384091   -0.0000367    0.6389234  
H   -0.0296303   -0.0004086   -4.0327229  
H    2.7280482   -0.0013407   -3.5742119  
C    0.8676693    0.7151171    2.2619005  
C    0.5875920    0.4624972    3.5848544  
C   -0.5048400   -0.4542819    3.6114698  
C   -0.8517165   -0.7276451    2.2635546  
N    0.0000000    0.0000000    1.4700000  
C   -1.8902865   -1.5946756    1.9108239  
C   -2.5912627   -2.1969500    2.9375057  
O   -3.6148162   -3.0527051    2.6493466  
C   -2.2603868   -1.9365747    4.2886322  
O   -3.0513550   -2.6123276    5.1947621  
C   -1.2361111   -1.0811317    4.6373480  
H    1.1060808    0.8876438    4.4271209  
H   -2.1597133   -1.8070987    0.8854031  
H   -3.9636755   -3.3565188    3.4974381  
H   -2.7621927   -2.3810384    6.0827341  
H   -1.0058879   -0.9010589    5.6809233  
H    1.6167816    1.3499334    1.8205408  
