62

C    4.2303300    0.5703294   -7.3178292  
C    5.2772657   -0.2699245   -7.0172197  
C    6.1645155   -0.2455741   -8.1338194  
C    5.6020170    0.6347581   -9.0932656  
N    4.4271135    1.1112854   -8.5668257  
C    6.2105358    0.9013486  -10.3234781  
C    7.4088723    0.2679411  -10.5898644  
O    8.0459838    0.4927067  -11.7758591  
C    7.9857517   -0.6141355   -9.6454238  
O    9.1804388   -1.1668339  -10.0584495  
C    7.3858542   -0.8778114   -8.4317009  
H    5.3873248   -0.8321928   -6.1057734  
H    3.8124246    1.7650585   -9.0170696  
H    5.7868902    1.5711569  -11.0590629  
H    8.8519481   -0.0396172  -11.7580184  
H    9.5024070   -1.7492727   -9.3636795  
H    7.8514425   -1.5582749   -7.7283694  
C    2.8912669   -0.6998116   -3.3332350  
C    1.7334695    0.0049281   -3.2500363  
C    1.6041102    0.7488995   -4.4807305  
C    2.7899386    0.4174235   -5.2935811  
N    3.5303614   -0.4649349   -4.5411801  
C    3.0393028    0.9187046   -6.5298011  
C    2.0755512    1.8468028   -7.0975618  
O    2.2101254    2.3528610   -8.2039499  
C    0.8125769    2.2121884   -6.2542379  
O   -0.0056403    2.9927350   -6.7217079  
C    0.6534236    1.6072169   -4.9341881  
H   -0.2239001    1.8652502   -4.3567402  
H    3.3315067   -1.3708305   -2.6136436  
H    4.3999326   -0.8765953   -4.8265370  
C    1.1319246    0.0015678   -0.8009268  
C    0.7969914    0.0034958   -2.1169401  
C   -0.6453340    0.0035696   -2.1842669  
C   -1.1266832    0.0015410   -0.7896025  
N    0.0000000    0.0000000    0.0000000  
C   -2.4346129    0.0013913   -0.4276292  
C   -3.4350111    0.0031335   -1.4820181  
O   -4.6384614    0.0030875   -1.2583914  
C   -2.9478961    0.0050442   -2.9661074  
O   -3.7809382    0.0062135   -3.8623773  
C   -1.5113825    0.0053055   -3.2312122  
H   -2.7664565    0.0000174    0.6013448  
H   -1.1823533    0.0068381   -4.2614848  
H    2.1104316    0.0009435   -0.3488059  
C    2.5285572    2.1210227    2.9438989  
C    1.9331703    1.6216660    4.0790748  
C    0.8903039    0.7472258    3.6520102  
C    0.8972198    0.7527806    2.2336141  
N    1.9028376    1.5986179    1.8362361  
C    0.0000000    0.0000000    1.4700000  
C   -0.9207814   -0.7726952    2.1506477  
O   -1.8198395   -1.5274828    1.4542253  
C   -0.9436862   -0.7911793    3.5655508  
O   -1.9197945   -1.6098497    4.0950179  
C   -0.0590329   -0.0485852    4.3195194  
H    2.2150357    1.8593692    5.0905303  
H    2.1533708    1.7953814    0.8841339  
H   -2.3621246   -1.9821033    2.1118817  
H   -1.8668290   -1.5649508    5.0545920  
H   -0.1007624   -0.0827977    5.4019087  
H    3.3491200    2.8096064    2.8367138  
