60

C    3.6725646    0.5509951   -8.7250565  
C    4.7561486   -0.2895463   -8.8337013  
C    5.1638111   -0.2687837  -10.2004420  
C    4.2844996    0.6097573  -10.8837453  
N    3.3901144    1.0887137   -9.9589244  
C    4.3911700    0.8727548  -12.2527750  
C    5.4041373    0.2375296  -12.9445564  
O    5.5538095    0.4587822  -14.2830854  
C    6.2912083   -0.6428064  -12.2805307  
O    7.2461856   -1.1976766  -13.1072596  
C    6.1863986   -0.9029378  -10.9300219  
H    5.1976834   -0.8496993   -8.0273081  
H    2.6519748    1.7419879  -10.1496171  
H    3.7240842    1.5411823  -12.7794674  
H    6.3084579   -0.0742840  -14.5652426  
H    7.8037076   -1.7787349  -12.5808144  
H    6.8804014   -1.5821402  -10.4488540  
C    3.9135205   -0.7081243   -4.5250692  
C    2.8699641   -0.0020530   -4.0185824  
C    2.2916403    0.7390434   -5.1145539  
C    3.0895150    0.4044294   -6.3096353  
N    4.0568594   -0.4768162   -5.8847343  
C    2.8606219    0.9024529   -7.5511206  
C    1.7547625    1.8301060   -7.7216206  
O    1.4676787    2.3333354   -8.7998801  
C    0.8966369    2.1987791   -6.4696201  
O   -0.0368091    2.9789835   -6.6008463  
C    1.2404687    1.5971817   -5.1836524  
H    0.6412575    1.8574784   -4.3217272  
H    4.5900516   -1.3778176   -4.0193954  
H    4.7576403   -0.8900200   -6.4722854  
C    3.2573670   -0.0002921   -1.5109382  
C    2.5379468   -0.0001711   -0.3591962  
C    1.1435043    0.0000330   -0.7338498  
C    1.1092608   -0.0000085   -2.2088474  
N    2.4227562    0.0001906   -2.6182610  
C   -0.0265533   -0.0002525   -2.9515663  
C   -1.3003033   -0.0002641   -2.2514979  
O   -2.3786785   -0.0004132   -2.8306425  
C   -1.2877724    0.0000310   -0.6895608  
O   -2.3539956    0.0003306   -0.0892035  
C    0.0000000    0.0000000    0.0000000  
H    2.9384091   -0.0000370    0.6389240  
H   -0.0296290   -0.0004088   -4.0327231  
H    4.3270394   -0.0004767   -1.6439445  
C    0.8175213    0.6860729    2.3021913  
C    0.0000000    0.0000000    1.4700000  
C   -0.8887526   -0.7456559    2.3478473  
C   -0.4549825   -0.3816753    3.7138435  
N    0.5448156    0.4573574    3.6934124  
C   -1.0945674   -0.9182058    4.8835240  
C   -2.1210866   -1.7789155    4.6970523  
O   -2.8083856   -2.3554314    5.6976972  
C   -2.5824069   -2.1655116    3.3310774  
O   -3.5227682   -2.9541547    3.2362962  
C   -1.9100805   -1.6015804    2.1470656  
H   -0.7567140   -0.6349833    5.8697035  
H   -3.4728268   -2.9124471    5.2533954  
H   -2.2742832   -1.9066565    1.1752040  
H    1.6189533    1.3585343    2.0405121  
