62

C   -0.0768048    0.1076852   -8.8468324  
C    0.9363384   -0.5618641   -9.4931391  
C    0.8731677   -0.1860773  -10.8676918  
C   -0.2075324    0.7228366  -11.0014433  
N   -0.7638195    0.8776355   -9.7559730  
C   -0.5630246    1.3004631  -12.2240478  
C    0.1862798    0.9544739  -13.3317543  
O   -0.1173534    1.4894936  -14.5501851  
C    1.2680494    0.0490606  -13.2185349  
O    1.9159723   -0.1948500  -14.4118681  
C    1.6191475   -0.5213750  -12.0127735  
H    1.6342929   -1.2388011   -9.0309604  
H   -1.5430885    1.4720296   -9.5382197  
H   -1.3856707    1.9937600  -12.3326541  
H    0.5190414    1.1207912  -15.1765446  
H    2.6324278   -0.8155893  -14.2476174  
H    2.4526328   -1.2117847  -11.9569614  
C    1.5640652   -2.0395934   -5.3856075  
C    0.7230585   -1.5862625   -4.4205823  
C   -0.2043664   -0.6833978   -5.0605464  
C    0.1679206   -0.6476539   -6.4877523  
N    1.2472262   -1.4907314   -6.6189377  
C   -0.4698105    0.0915040   -7.4304339  
C   -1.5980270    0.9063960   -7.0113715  
O   -2.2374220    1.6070672   -7.7850216  
C   -2.0096057    0.8840407   -5.5047499  
O   -2.9576826    1.5662686   -5.1400907  
C   -1.2456329    0.0471727   -4.5828766  
H    0.7494880   -1.8536711   -3.3792332  
H    2.3887877   -2.7282963   -5.2995223  
H    1.7291274   -1.6799008   -7.4786076  
C    1.1243410    0.0099923   -0.7919003  
C    0.7474076    0.0234544   -2.1148543  
C   -0.6787381    0.0234490   -2.1414700  
C   -1.1201745    0.0098592   -0.7935546  
N    0.0000000    0.0000000    0.0000000  
C   -2.4730816    0.0063709   -0.4408240  
C   -3.3971958    0.0170982   -1.4675058  
O   -4.7313517    0.0146259   -1.1793471  
C   -2.9763648    0.0303504   -2.8186324  
O   -4.0166480    0.0395118   -3.7247624  
C   -1.6418562    0.0335260   -3.1673481  
H    1.4178717    0.0310972   -2.9571209  
H   -2.8160166   -0.0041111    0.5845966  
H   -5.1938818    0.0230867   -2.0274384  
H   -3.6464675    0.0482293   -4.6127343  
H    2.1062467    0.0052819   -0.3505407  
C    0.8175213    0.6860729    2.3021913  
C    0.0000000    0.0000000    1.4700000  
C   -0.8887526   -0.7456559    2.3478473  
C   -0.4549825   -0.3816753    3.7138435  
N    0.5448156    0.4573574    3.6934124  
C   -1.0945674   -0.9182058    4.8835240  
C   -2.1210866   -1.7789155    4.6970523  
O   -2.8083856   -2.3554314    5.6976972  
C   -2.5824069   -2.1655116    3.3310774  
O   -3.5227682   -2.9541547    3.2362962  
C   -1.9100805   -1.6015804    2.1470656  
H   -0.7567140   -0.6349833    5.8697035  
H   -3.4728268   -2.9124471    5.2533954  
H   -2.2742832   -1.9066565    1.1752040  
H    1.6189533    1.3585343    2.0405121  
