62

C    5.6685267    0.0002157   -2.2869307  
C    4.7390844    0.0009612   -1.2727295  
C    5.4635795    0.0004225   -0.0440283  
C    6.8430309   -0.0003722   -0.3742384  
N    6.9321468   -0.0024287   -1.7441550  
C    7.8522875   -0.0007544    0.5933305  
C    7.4618846   -0.0000194    1.9183826  
O    8.4063108    0.0000012    2.9038117  
C    6.0904959    0.0004035    2.2678240  
O    5.8636452    0.0007017    3.6286626  
C    5.0942999    0.0005074    1.3138219  
H    7.7872777    0.0071654   -2.2701206  
H    8.9054278   -0.0015041    0.3481836  
H    7.9262132    0.0002667    3.7421253  
H    4.9133156    0.0010058    3.7785865  
H    4.0523283    0.0006524    1.6117690  
H    5.5300628   -0.0000848   -3.3545385  
C    3.2798077    0.0005856   -1.4499659  
C    2.5571132    0.0005565   -2.5996562  
C    1.1637425    0.0001548   -2.2210364  
C    1.1336957   -0.0000200   -0.7459472  
N    2.4483508   -0.0001429   -0.3402728  
C    0.0000000    0.0000000    0.0000000  
C   -1.2757370   -0.0000187   -0.6964410  
O   -2.3524597   -0.0000640   -0.1142306  
C   -1.2676501   -0.0000873   -2.2584079  
O   -2.3355772   -0.0004101   -2.8557287  
C    0.0181552    0.0001759   -2.9516296  
H    2.9547343    0.0006074   -3.5989115  
H    2.7563624    0.0012823    0.6148054  
C    0.8693931   -0.7179710   -5.2245453  
C    0.0139724    0.0003878   -4.4216237  
C   -0.8554526    0.7289894   -5.2864007  
C   -0.4799944    0.4124318   -6.6170956  
N    0.5715105   -0.4670795   -6.5435101  
C   -1.1253160    0.9522987   -7.7337392  
C   -2.1688647    1.8274404   -7.5028471  
O   -2.8338485    2.3833995   -8.5572288  
C   -2.5579917    2.1559338   -6.1824347  
O   -3.6138149    3.0416270   -6.1181814  
C   -1.9216405    1.6239294   -5.0803666  
H    1.0421852   -0.8760582   -7.3303921  
H   -0.8438695    0.7151688   -8.7504780  
H   -3.5148460    2.9552110   -8.1796844  
H   -3.8133107    3.2103988   -5.1922650  
H   -2.2418658    1.8943555   -4.0809645  
H    1.6693688   -1.3883488   -4.9607429  
C    0.0000000    0.0000000    1.4700000  
C    1.0541688    0.0001722    2.3260392  
C    0.5103138    0.0000454    3.6635956  
C   -0.9576371   -0.0002459    3.5155732  
N   -1.2018458    0.0001392    2.1615969  
C   -1.8348311   -0.0008317    4.5510609  
C   -1.2972847   -0.0009736    5.9014604  
O   -2.0050672   -0.0014265    6.9001319  
C    0.2542623   -0.0004184    6.0817573  
O    0.7184670   -0.0002256    7.2139121  
C    1.0974552   -0.0000873    4.8889129  
H    2.0940752    0.0005483    2.0517982  
H   -2.9081052   -0.0011668    4.4207061  
H    2.1707277    0.0000911    5.0223670  
H   -2.1128194   -0.0014912    1.7406791  
