62

C    3.4099282   -0.7226390   -7.4180288  
C    2.4895633   -0.0033453   -8.1446741  
C    3.2162127    0.7236691   -9.1336286  
C    4.5875343    0.4052244   -8.9604359  
N    4.6701551   -0.4738350   -7.9092244  
C    5.5963534    0.9431968   -9.7652087  
C    5.2138329    1.8183489  -10.7631896  
O    6.1581790    2.3725007  -11.5781375  
C    3.8506599    2.1487087  -10.9514357  
O    3.6311046    3.0341569  -11.9863856  
C    2.8549281    1.6185745  -10.1577102  
H    5.5177858   -0.8838487   -7.5608105  
H    6.6433327    0.7046230   -9.6382487  
H    5.6842193    2.9446610  -12.1955989  
H    2.6860452    3.2042617  -12.0458027  
H    1.8193636    1.8904052  -10.3256164  
H    3.2672834   -1.3923591   -6.5873148  
C    0.0139742    0.0003878   -4.4216236  
C    1.0636157   -0.0005606   -5.3108473  
C    0.4994415   -0.0004375   -6.6209270  
C   -0.9105908    0.0008990   -6.4668698  
N   -1.1713316   -0.0005800   -5.1190459  
C   -1.7901136    0.0016816   -7.5537126  
C   -1.2361250    0.0014116   -8.8191278  
O   -2.0490846    0.0024962   -9.9155342  
C    0.1683274   -0.0002909   -8.9932770  
O    0.5645640   -0.0007695  -10.3147699  
C    1.0365989   -0.0013371   -7.9215366  
H    2.1075080   -0.0023610   -5.0476387  
H   -2.0858187    0.0104399   -4.7048323  
H   -2.8657261    0.0025566   -7.4429946  
H   -1.4673439    0.0017844  -10.6867942  
H    1.5262035   -0.0019081  -10.3439552  
C    3.2798085    0.0005856   -1.4499646  
C    2.5571146    0.0005565   -2.5996553  
C    1.1637435    0.0001548   -2.2210360  
C    1.1336964   -0.0000200   -0.7459470  
N    2.4483515   -0.0001429   -0.3402716  
C    0.0000000    0.0000000    0.0000000  
C   -1.2757368   -0.0000187   -0.6964415  
O   -2.3524594   -0.0000640   -0.1142314  
C   -1.2676495   -0.0000873   -2.2584081  
O   -2.3355761   -0.0004101   -2.8557295  
C    0.0181563    0.0001759   -2.9516296  
H    2.9547358    0.0006075   -3.5989104  
H    4.3498547    0.0008611   -1.3200019  
H    2.7563628    0.0012823    0.6148064  
C    0.0000000    0.0000000    1.4700000  
C    1.0662921    0.0000102    2.3034270  
C    0.4961870   -0.0000064    3.6418889  
C   -0.9663858    0.0000850    3.4240247  
N   -1.2632773    0.0000084    2.1528658  
C   -1.8985362    0.0000517    4.5177257  
C   -1.3925775   -0.0004564    5.7720543  
O   -2.1456383   -0.0005410    6.8851312  
C    0.0786232   -0.0009323    6.0245000  
O    0.4683759   -0.0012588    7.1921102  
C    1.0143166   -0.0008442    4.8859032  
H    2.1107198   -0.0000632    2.0421868  
H   -2.9622183    0.0003270    4.3293377  
H   -1.5042274   -0.0009692    7.6184419  
H    2.0724152   -0.0013148    5.1109744  
