64

C   -0.5931375   -2.6044741   -9.7285289  
C   -0.5119550   -2.0410492  -10.9808981  
C   -0.8029298   -0.6525621  -10.8324500  
C   -1.0556379   -0.4251790   -9.4553654  
N   -0.9218163   -1.6314883   -8.8138614  
C   -1.3767052    0.8356502   -8.9434915  
C   -1.4435908    1.8861301   -9.8380277  
O   -1.7526908    3.1384616   -9.3917802  
C   -1.1951032    1.6791611  -11.2157934  
O   -1.3007349    2.8243632  -11.9778277  
C   -0.8785741    0.4355433  -11.7215104  
H   -0.2735466   -2.5664142  -11.8898237  
H   -1.0324421   -1.7794234   -7.8270190  
H   -1.7463345    3.7140715  -10.1676010  
H   -1.1181285    2.5974653  -12.8947651  
H   -0.6936052    0.3076223  -12.7816521  
H   -0.4439970   -3.6236760   -9.4155707  
C    0.5436212   -0.7158536   -5.2159133  
C    0.2183625   -0.4634326   -6.5285279  
C   -0.8742712    0.4534301   -6.5178236  
C   -1.1747021    0.7270468   -5.1588525  
N   -0.2963293   -0.0005341   -4.3948471  
C   -2.2005010    1.5942198   -4.7708634  
C   -2.9362258    2.1963789   -5.7730069  
O   -3.9492321    3.0522648   -5.4500647  
C   -2.6518952    1.9357510   -7.1346407  
O   -3.4734197    2.6114157   -8.0132297  
C   -1.6402436    1.0801671   -7.5181290  
H    0.7076327   -0.8887619   -7.3880062  
H   -2.4345909    1.8068364   -3.7368431  
H   -4.3269456    3.3559650   -6.2857461  
H   -3.2148938    2.3799551   -8.9105556  
H    1.3073801   -1.3506562   -4.8003930  
C    3.1301146   -0.0010313   -1.7028256  
C    2.5367765   -0.0002766   -0.4864669  
C    1.1089901    0.0001027   -0.7656184  
C    1.0177865   -0.0004150   -2.2415133  
N    2.1993571   -0.0011612   -2.7963824  
C   -0.2459219   -0.0002879   -2.9257116  
C   -1.3675326   -0.0000606   -2.1698520  
O   -2.6129318    0.0000865   -2.6748483  
C   -1.3083588    0.0000910   -0.6783229  
O   -2.3693264    0.0004206   -0.0541685  
C    0.0000000    0.0000000    0.0000000  
H    3.0096016   -0.0001007    0.4807518  
H   -3.1967444    0.0002093   -1.8949026  
H    4.1849275   -0.0015114   -1.9271979  
C    0.8576279    0.7185626    2.2703808  
C    0.0000000    0.0000000    1.4700000  
C   -0.8668858   -0.7285659    2.3373528  
C   -0.4876752   -0.4117774    3.6669281  
N    0.5635254    0.4678311    3.5902241  
C   -1.1297612   -0.9515493    4.7854808  
C   -2.1738724   -1.8268314    4.5576857  
O   -2.8357962   -2.3827064    5.6140350  
C   -2.5667212   -2.1555554    3.2384331  
O   -3.6226318   -3.0413663    3.1773122  
C   -1.9335634   -1.6236449    2.1344818  
H    1.0363952    0.8769718    4.3757045  
H   -0.8454472   -0.7142436    5.8013813  
H   -3.5178062   -2.9546422    5.2385129  
H   -3.8247440   -3.2102924    2.2519915  
H   -2.2566033   -1.8942483    1.1360343  
H    1.6567807    1.3889844    2.0042067  
