62

C    3.2542639   -5.4954911   -8.8933013  
C    2.8282067   -4.5337975   -8.0066845  
C    2.7442867   -3.3077653   -8.7308404  
C    3.1342621   -3.5854736  -10.0660273  
N    3.4391829   -4.9224776  -10.1297518  
C    3.1702931   -2.6056356  -11.0627254  
C    2.8057185   -1.3221329  -10.7051175  
O    2.8225921   -0.3270262  -11.6391908  
C    2.4140121   -1.0252676   -9.3779957  
O    2.0805618    0.2986990   -9.1798368  
C    2.3784915   -1.9913470   -8.3941489  
H    2.6063679   -4.6957664   -6.9657493  
H    3.7375284   -5.4110201  -10.9545536  
H    3.4667231   -2.8108211  -12.0821523  
H    2.5378519    0.4774015  -11.1863291  
H    1.8281110    0.4141782   -8.2586766  
H    3.4422473   -6.5445295   -8.7411843  
C    2.5229104   -2.1069161   -5.8790361  
C    1.9659599   -1.6422908   -7.0270794  
C    0.8993071   -0.7471214   -6.6452951  
C    0.8803723   -0.7281566   -5.1701439  
N    1.8886141   -1.5732494   -4.7674571  
C    0.0139741    0.0003876   -4.4216236  
C   -0.9653705    0.8204010   -5.1151637  
O   -1.7886283    1.5123015   -4.5305090  
C   -0.9636625    0.8153758   -6.6771425  
O   -1.7837157    1.5015804   -7.2720341  
C    0.0195994   -0.0107210   -7.3732829  
H    0.0142656   -0.0084680   -8.4548052  
H    3.3432276   -2.7944518   -5.7515060  
H    2.1282169   -1.7702569   -3.8130854  
C    3.2798085    0.0005853   -1.4499648  
C    2.5571144    0.0005562   -2.5996554  
C    1.1637436    0.0001546   -2.2210360  
C    1.1336965   -0.0000201   -0.7459470  
N    2.4483513   -0.0001430   -0.3402717  
C    0.0000000    0.0000000    0.0000000  
C   -1.2757367   -0.0000188   -0.6964414  
O   -2.3524597   -0.0000640   -0.1142313  
C   -1.2676494   -0.0000875   -2.2584081  
O   -2.3355762   -0.0004102   -2.8557294  
C    0.0181562    0.0001757   -2.9516296  
H    2.9547357    0.0006072   -3.5989105  
H    4.3498550    0.0008609   -1.3200021  
H    2.7563627    0.0012824    0.6148063  
C    2.5311839    2.1237619    3.0120429  
C    1.9795631    1.6616747    1.8395852  
C    0.9223175    0.7739173    2.1983588  
C    0.8753926    0.7337535    3.6154372  
N    1.8668922    1.5631002    4.0777464  
C   -0.0496243   -0.0427881    4.3197917  
C   -0.9437528   -0.7922060    3.5801400  
O   -1.8685244   -1.5680278    4.2172520  
C   -0.9124520   -0.7656372    2.1655264  
O   -1.8671164   -1.5663939    1.5732860  
C    0.0000000    0.0000000    1.4700000  
H    2.3005065    1.9304404    0.8477417  
H    2.0679347    1.7444845    5.0445261  
H   -0.0904770   -0.0778569    5.3997470  
H   -2.3849669   -2.0011402    3.5251786  
H   -1.7775064   -1.4909735    0.6183591  
H    3.3468514    2.8078103    3.1724291  
