62

C    3.2316864   -3.3746036   -7.6816322  
C    4.0392382   -3.3632093   -8.7952739  
C    4.0348267   -2.0287821   -9.2991439  
C    3.2002456   -1.2639405   -8.4444981  
N    2.7273107   -2.1121034   -7.4741534  
C    2.9640736    0.1000745   -8.6406490  
C    3.5818989    0.7030363   -9.7190308  
O    3.3859633    2.0327435   -9.9567296  
C    4.4178623   -0.0433376  -10.5832693  
O    4.9596626    0.7000832  -11.6114338  
C    4.6510857   -1.3890650  -10.3905236  
H    4.5657500   -4.2124897   -9.1959001  
H    2.3289533    0.6885845   -7.9929773  
H    3.9003338    2.2477775  -10.7456821  
H    5.5104197    0.1215178  -12.1476542  
H    5.2961485   -1.9346098  -11.0693112  
H    2.9744344   -4.1837255   -7.0197390  
C    1.8836766   -2.1362882   -5.0810766  
C    1.8358578   -1.7275857   -6.3703609  
C    0.7030360   -0.8169587   -6.4333932  
C    0.1677630   -0.7920097   -5.0551896  
N    0.8558147   -1.5634005   -4.2579876  
C   -0.9736297    0.0040464   -4.6965763  
C   -1.5536730    0.7419468   -5.6704281  
O   -2.6247575    1.5303572   -5.4774855  
C   -1.0366301    0.7382178   -7.0707185  
O   -1.6142408    1.4340381   -7.9058356  
C    0.1355197   -0.0866893   -7.4135266  
H   -2.8038828    1.9233567   -6.3507658  
H    0.4792071   -0.0617348   -8.4389469  
H    2.5838918   -2.8188169   -4.6262944  
C    1.1188642    0.0008222   -0.8003808  
C    0.0000000    0.0000000    0.0000000  
C   -1.1323862    0.0008899   -0.8673528  
C   -0.6382663    0.0019679   -2.1969280  
N    0.7324016    0.0038481   -2.1202242  
C   -1.4770914    0.0027318   -3.3154808  
C   -2.8395473    0.0020945   -3.0876857  
O   -3.7039201    0.0024425   -4.1440349  
C   -3.3517868    0.0013931   -1.7684331  
O   -4.7300497    0.0012366   -1.7073121  
C   -2.5248543    0.0009123   -0.6644817  
H    1.3576314   -0.0056167   -2.9057046  
H   -4.5940032    0.0021826   -3.7685128  
H   -4.9934602    0.0007259   -0.7819913  
H   -2.9462577    0.0005603    0.3339659  
H    2.1619895    0.0009355   -0.5342068  
C    0.8681109    0.7263879    2.2709268  
C    0.6127770    0.5096195    3.5869401  
C   -0.4920590   -0.4175482    3.6542670  
C   -0.8620974   -0.7254003    2.2596025  
N    0.0000000    0.0000000    1.4700000  
C   -1.8641242   -1.5660088    1.8976294  
C   -2.6293522   -2.2103885    2.9520183  
O   -3.5512764   -2.9839180    2.7283916  
C   -2.2549728   -1.8987399    4.4361073  
O   -2.8923672   -2.4351063    5.3323774  
C   -1.1543735   -0.9755647    4.7012123  
H    1.1382914    0.9492124    4.4159191  
H   -2.1192137   -1.7782617    0.8686553  
H   -0.9013378   -0.7652422    5.7314848  
H    1.6172880    1.3558399    1.8188057  
