62

C   -1.0515831    0.5558366   -9.0056318  
C   -0.0750278   -0.2840151   -9.4888045  
C   -0.1734520   -0.2618927  -10.9116268  
C   -1.2369531    0.6167288  -11.2416507  
N   -1.7495824    1.0944229  -10.0611265  
C   -1.6180466    0.8809215  -12.5606498  
C   -0.9124960    0.2468309  -13.5647934  
O   -1.2426045    0.4692771  -14.8703815  
C    0.1514988   -0.6335654  -13.2555450  
O    0.7553332   -1.1872212  -14.3655867  
C    0.5278280   -0.8948757  -11.9545373  
H    0.6217616   -0.8445931   -8.8894465  
H   -2.5078154    1.7474471   -9.9797430  
H   -2.4277858    1.5494172  -12.8187970  
H   -0.6350427   -0.0631374  -15.4001634  
H    1.4623842   -1.7684080  -14.0690999  
H    1.3467793   -1.5740933  -11.7484792  
C    0.6496546   -0.7066350   -5.1591661  
C   -0.1496415   -0.0015615   -4.3176961  
C   -1.0762653    0.7401246   -5.1399526  
C   -0.7489647    0.4069438   -6.5394722  
N    0.3061893   -0.4741192   -6.4823099  
C   -1.3994869    0.9058709   -7.6209516  
C   -2.4949744    1.8330538   -7.3912239  
O   -3.1426428    2.3370192   -8.2994341  
C   -2.8586998    2.2002132   -5.9172149  
O   -3.7789320    2.9800099   -5.7114237  
C   -2.0849146    1.5977388   -4.8345636  
H   -2.3432250    1.8569886   -3.8168265  
H    1.4608539   -1.3763737   -4.9240176  
H    0.7560121   -0.8864477   -7.2789846  
C    3.3003543    0.0005276   -1.4738987  
C    2.5232814    0.0003497   -2.6090747  
C    1.1623200   -0.0001320   -2.1820103  
C    1.1711883    0.0000582   -0.7636140  
N    2.4852300   -0.0014919   -0.3662360  
C    0.0000000    0.0000000    0.0000000  
C   -1.2020384    0.0000519   -0.6806477  
O   -2.3759249    0.0003493    0.0157743  
C   -1.2314656   -0.0005115   -2.0955510  
O   -2.5054392   -0.0008039   -2.6250180  
C   -0.0764516   -0.0007274   -2.8495195  
H    2.8919955   -0.0005620   -3.6205304  
H    2.8036267    0.0088183    0.5858662  
H   -3.0835638    0.0000347   -0.6418818  
H   -2.4360047   -0.0011529   -3.5845921  
H    4.3715549    0.0004895   -1.3667136  
C    0.8681109    0.7263879    2.2709268  
C    0.6127770    0.5096195    3.5869401  
C   -0.4920590   -0.4175482    3.6542670  
C   -0.8620974   -0.7254003    2.2596025  
N    0.0000000    0.0000000    1.4700000  
C   -1.8641242   -1.5660088    1.8976294  
C   -2.6293522   -2.2103885    2.9520183  
O   -3.5512764   -2.9839180    2.7283916  
C   -2.2549728   -1.8987399    4.4361073  
O   -2.8923672   -2.4351063    5.3323774  
C   -1.1543735   -0.9755647    4.7012123  
H    1.1382914    0.9492124    4.4159191  
H   -2.1192137   -1.7782617    0.8686553  
H   -0.9013378   -0.7652422    5.7314848  
H    1.6172880    1.3558399    1.8188057  
