62

C   -6.8368625    1.9905710    0.2399356  
C   -7.0904347    2.8292535    1.3004921  
C   -8.4993646    2.8063205    1.5218305  
C   -9.0578834    1.9284320    0.5578311  
N   -8.0212134    1.4519367   -0.2056372  
C  -10.4285424    1.6637442    0.4802220  
C  -11.2503168    2.2965770    1.3925756  
O  -12.5965486    2.0735991    1.3617185  
C  -10.7119393    3.1762262    2.3616904  
O  -11.6595943    3.7286472    3.1984249  
C   -9.3598809    3.4380244    2.4386647  
H   -6.3510128    3.3895929    1.8466319  
H   -8.1107004    0.7996351   -0.9635790  
H  -10.8604905    0.9958028   -0.2522244  
H  -12.9777172    2.6051415    2.0726606  
H  -11.2131364    4.3093955    3.8221323  
H   -8.9766592    4.1166474    3.1917192  
C   -4.3359695    2.1064016   -0.0635820  
C   -5.5644951    1.6417184   -0.4083570  
C   -5.3776808    0.7467249   -1.5259091  
C   -3.9292261    0.7279264   -1.8059379  
N   -3.3543293    1.5729379   -0.8848847  
C   -3.3460097   -0.0004262   -2.7913647  
C   -4.2020393   -0.8203941   -3.6324363  
O   -3.7724540   -1.5121265   -4.5463638  
C   -5.7389983   -0.8155427   -3.3539785  
O   -6.4697268   -1.5017109   -4.0557405  
C   -6.2499650    0.0103535   -2.2628046  
H   -7.3153178    0.0079811   -2.0764130  
H   -4.0651605    2.7938486    0.7212542  
H   -2.3726200    1.7700213   -0.8181562  
C    0.0000000    0.0000000    0.0000000  
C    1.0662919   -0.0000103   -0.8334272  
C    0.4961868    0.0000066   -2.1718889  
C   -0.9663860   -0.0000849   -1.9540248  
N   -1.2632775   -0.0000084   -0.6828659  
C   -1.8985364   -0.0000515   -3.0477258  
C   -1.3925778    0.0004567   -4.3020543  
O   -2.1456385    0.0005412   -5.4151314  
C    0.0786229    0.0009326   -4.5544999  
O    0.4683756    0.0012594   -5.7221104  
C    1.0143162    0.0008443   -3.4159034  
H    2.1107195    0.0000631   -0.5721869  
H   -1.5042277    0.0009692   -6.1484420  
H    2.0724151    0.0013151   -3.6409746  
C    3.3003543   -0.0005276    2.9438989  
C    2.5232812   -0.0003497    4.0790748  
C    1.1623199    0.0001319    3.6520102  
C    1.1711883   -0.0000583    2.2336141  
N    2.4852299    0.0014920    1.8362361  
C    0.0000000    0.0000000    1.4700000  
C   -1.2020384   -0.0000520    2.1506477  
O   -2.3759250   -0.0003494    1.4542253  
C   -1.2314658    0.0005113    3.5655508  
O   -2.5054393    0.0008037    4.0950179  
C   -0.0764518    0.0007272    4.3195194  
H    2.8919952    0.0005619    5.0905303  
H    2.8036267   -0.0088181    0.8841339  
H   -3.0835639   -0.0000348    2.1118817  
H   -2.4360050    0.0011527    5.0545920  
H   -0.1304098    0.0013421    5.4019087  
H    4.3715549   -0.0004895    2.8367138  
