62

C    9.0175498    0.0025993   -4.0179188  
C    9.5797773    0.0038112   -5.2734523  
C   10.9950752    0.0042766   -5.0958810  
C   11.2392397    0.0030112   -3.6986307  
N   10.0171027    0.0039646   -3.0733338  
C   12.5278101    0.0027559   -3.1560676  
C   13.5892343    0.0034900   -4.0401251  
O   14.8684788    0.0029302   -3.5641583  
C   13.3659204    0.0051302   -5.4376028  
O   14.5250808    0.0061105   -6.1857277  
C   12.0949855    0.0056561   -5.9735591  
H    9.0366350    0.0054049   -6.2029614  
H    9.8735624   -0.0071376   -2.0797274  
H   12.7205990    0.0019379   -2.0920967  
H   15.4475242    0.0039021   -4.3374441  
H   14.2856740    0.0071699   -7.1175471  
H   11.9550953    0.0071021   -7.0482259  
C    6.5323610    0.0028962   -4.4466868  
C    7.6043844    0.0022108   -3.6131162  
C    7.0889173    0.0013269   -2.2643654  
C    5.6181666    0.0015260   -2.3813329  
N    5.3453988    0.0028888   -3.7298458  
C    4.7630507    0.0004755   -1.3275395  
C    5.3290148   -0.0007199    0.0111983  
O    4.6424946   -0.0016577    1.0246035  
C    6.8840257   -0.0006991    0.1586665  
O    7.3720525   -0.0013931    1.2807582  
C    7.7018219    0.0002117   -1.0517302  
H    8.7776751    0.0000147   -0.9409873  
H    6.5095820    0.0036229   -5.5243547  
H    4.4257331    0.0017847   -4.1314188  
C    3.3003548    0.0005276   -1.4738982  
C    2.5232817    0.0003497   -2.6090743  
C    1.1623204   -0.0001319   -2.1820101  
C    1.1711886    0.0000583   -0.7636140  
N    2.4852302   -0.0014919   -0.3662356  
C    0.0000000    0.0000000    0.0000000  
C   -1.2020379    0.0000520   -0.6806479  
O   -2.3759249    0.0003495    0.0157742  
C   -1.2314652   -0.0005112   -2.0955511  
O   -2.5054384   -0.0008036   -2.6250184  
C   -0.0764510   -0.0007271   -2.8495195  
H    2.8919962   -0.0005619   -3.6205297  
H    2.8036267    0.0088181    0.5858667  
H   -3.0835636    0.0000348   -0.6418823  
H   -2.4360038   -0.0011526   -3.5845925  
H   -0.1304090   -0.0013420   -3.9319089  
C    0.0000000    0.0000000    1.4700000  
C    1.0541688    0.0001722    2.3260392  
C    0.5103138    0.0000454    3.6635956  
C   -0.9576371   -0.0002459    3.5155732  
N   -1.2018458    0.0001392    2.1615969  
C   -1.8348311   -0.0008317    4.5510609  
C   -1.2972847   -0.0009736    5.9014604  
O   -2.0050672   -0.0014265    6.9001319  
C    0.2542623   -0.0004184    6.0817573  
O    0.7184670   -0.0002256    7.2139121  
C    1.0974552   -0.0000873    4.8889129  
H    2.0940752    0.0005483    2.0517982  
H   -2.9081052   -0.0011668    4.4207061  
H    2.1707277    0.0000911    5.0223670  
H   -2.1128194   -0.0014912    1.7406791  
