62

C    2.4358064   -3.0509215   -9.0398520  
C    2.1167923   -1.8278575   -8.4968864  
C    2.0758579   -0.8924954   -9.5729997  
C    2.3805260   -1.6087075  -10.7588094  
N    2.5955441   -2.9159994  -10.3991273  
C    2.4298443   -1.0017497  -12.0173636  
C    2.1665118    0.3528379  -12.0800315  
O    2.2008205    0.9955749  -13.2836616  
C    1.8609471    1.0847289  -10.9079474  
O    1.6233240    2.4245600  -11.1353928  
C    1.8123827    0.4866566   -9.6659822  
H    2.8206753   -3.6624461  -11.0316737  
H    2.6615846   -1.5420109  -12.9248962  
H    1.9910618    1.9214741  -13.1048430  
H    1.4247918    2.8454690  -10.2933576  
H    1.5757353    1.0731237   -8.7859069  
H    2.5634431   -4.0085586   -8.5648789  
C    2.5715460   -2.1234227   -6.0298477  
C    2.0605229   -1.6614591   -4.8390870  
C    0.9917284   -0.7734885   -5.1612472  
C    0.8962444   -0.7330737   -6.5758760  
N    1.8711844   -1.5624823   -7.0720513  
C   -0.0522659    0.0437218   -7.2479668  
C   -0.9203938    0.7931399   -6.4779637  
O   -1.8663530    1.5692037   -7.0828604  
C   -0.8406071    0.7663228   -5.0652602  
O   -1.7742823    1.5671135   -4.4404977  
C    0.0950446    0.0004351   -4.4015596  
H    2.4152487   -1.9304416   -3.8588774  
H   -0.1301220    0.0789826   -8.3258795  
H   -2.3586956    2.0022708   -6.3734118  
H   -1.6519911    1.4915157   -3.4892178  
H    3.3811318   -2.8075602   -6.2182240  
C    3.3321173    0.0004713   -1.3379338  
C    2.6974181    0.0000116   -2.5332314  
C    1.2800438   -0.0002119   -2.2052841  
C    1.2395034    0.0000643   -0.7271299  
N    2.4394062    0.0005460   -0.2131038  
C    0.0000000    0.0000000    0.0000000  
C   -1.1468702    0.0000634   -0.7169543  
O   -2.3742203    0.0000074   -0.1695487  
C   -1.1388770    0.0001607   -2.2096355  
O   -2.2206234    0.0000905   -2.7970411  
C    0.1454522    0.0001815   -2.9324241  
H    3.1367984   -0.0000653   -3.5160950  
H   -2.9844346    0.0001026   -0.9290167  
H    4.3940038    0.0007618   -1.1498640  
C    2.5528530    2.1414826    2.8079335  
C    2.0663498    1.7338582    4.0032312  
C    0.9804344    0.8229586    3.6752840  
C    0.9495562    0.7966882    2.1971295  
N    1.8690446    1.5676019    1.6831036  
C    0.0000000    0.0000000    1.4700000  
C   -0.8785127   -0.7372425    2.1869543  
O   -1.8187535   -1.5261249    1.6395491  
C   -0.8723269   -0.7321790    3.6796354  
O   -1.7010379   -1.4274584    4.2670412  
C    0.1115397    0.0933559    4.4024240  
H    2.4028853    2.0163452    4.9860947  
H   -2.2861435   -1.9184361    2.3990168  
H    0.0832434    0.0693689    5.4835595  
H    3.3664920    2.8238276    2.6198634  
