64

C    4.4543757   -0.3783327   -8.9472946  
C    3.9364125    0.8374872   -8.5652421  
C    4.3419737    1.7897739   -9.5467048  
C    5.1115360    1.0908779  -10.5117160  
N    5.1616823   -0.2228402  -10.1164346  
C    5.6755159    1.7172596  -11.6272251  
C    5.4584226    3.0738280  -11.7713459  
O    5.9859346    3.7351902  -12.8424879  
C    4.6936832    3.7886195  -10.8189487  
O    4.5681848    5.1329015  -11.1026757  
C    4.1372294    3.1713795   -9.7180852  
H    5.6300721   -0.9602814  -10.6111798  
H    6.2631622    1.1902559  -12.3662397  
H    5.7187705    4.6591028  -12.7515318  
H    4.0381501    5.5414460  -10.4114739  
H    3.5563615    3.7450347   -9.0053514  
H    4.3764389   -1.3438578   -8.4775652  
C    4.1997576   -0.7142333   -4.3804518  
C    4.4285870   -0.4616215   -5.7132274  
C    3.4231705    0.4548822   -6.1418987  
C    2.6024499    0.7280933   -5.0177544  
N    3.1006054    0.0006263   -3.9654951  
C    1.5068388    1.5948438   -5.0740423  
C    1.2349665    2.1969895   -6.2871722  
O    0.1771845    3.0524717   -6.3979040  
C    2.0420041    1.9367625   -7.4202164  
O    1.6419271    2.6123578   -8.5546119  
C    3.1228464    1.0815955   -7.3654835  
H    5.2218489   -0.8865966   -6.3040953  
H    0.8773289    1.8071501   -4.2209039  
H    0.1665252    3.3562377   -7.3148977  
H    2.2389614    2.3811846   -9.2727431  
H    4.7327698   -1.3488805   -3.6933712  
C    3.2798083    0.0005857   -1.4499652  
C    2.5571142    0.0005565   -2.5996556  
C    1.1637432    0.0001548   -2.2210361  
C    1.1336964   -0.0000200   -0.7459473  
N    2.4483512   -0.0001428   -0.3402723  
C    0.0000000    0.0000000    0.0000000  
C   -1.2757368   -0.0000186   -0.6964415  
O   -2.3524598   -0.0000639   -0.1142311  
C   -1.2676497   -0.0000872   -2.2584083  
O   -2.3355766   -0.0004101   -2.8557295  
C    0.0181558    0.0001758   -2.9516296  
H    0.0150788    0.0003319   -4.0331631  
H    4.3498547    0.0008612   -1.3200026  
H    2.7563626    0.0012823    0.6148059  
C    0.0000000    0.0000000    1.4700000  
C    1.0521667    0.0011902    2.3562342  
C    0.4917218    0.0011957    3.6679131  
C   -0.9187428   -0.0003148    3.5178682  
N   -1.1833171    0.0009411    2.1707914  
C   -1.7951701   -0.0010350    4.6072090  
C   -1.2375837   -0.0005224    5.8710424  
O   -2.0474215   -0.0015360    6.9697579  
C    0.1673580    0.0013566    6.0411963  
O    0.5673524    0.0020687    7.3615553  
C    1.0325770    0.0023412    4.9669890  
H    2.0953057    0.0030649    2.0900562  
H   -2.0989778   -0.0102372    1.7591824  
H   -2.8710934   -0.0020419    4.4995513  
H   -1.4634884   -0.0006497    7.7393593  
H    1.5290710    0.0033153    7.3880045  
H    2.1042148    0.0039609    5.1284455  
