62

C    0.0000000    0.0000000    0.0000000  
C    1.0521664   -0.0011910   -0.8862344  
C    0.4917221   -0.0011961   -2.1979133  
C   -0.9187424    0.0003153   -2.0478684  
N   -1.1833170   -0.0009405   -0.7007913  
C   -1.7951700    0.0010360   -3.1372091  
C   -1.2375836    0.0005230   -4.4010425  
O   -2.0474213    0.0015368   -5.4997581  
C    0.1673585   -0.0013572   -4.5711964  
O    0.5673527   -0.0020697   -5.8915552  
C    1.0325770   -0.0023421   -3.4969893  
H    2.0953058   -0.0030663   -0.6200561  
H   -2.0989775    0.0102384   -0.2891824  
H   -1.4634880    0.0006503   -6.2693595  
H    1.5290712   -0.0033167   -5.9180044  
H    2.1042146   -0.0039627   -3.6584458  
C   -3.9705527    0.7070960   -2.0745741  
C   -3.2578652    0.0024056   -2.9908508  
C   -4.2093229   -0.7382534   -3.7851986  
C   -5.5443146   -0.4048878   -3.2527945  
N   -5.3302022    0.4752907   -2.2172602  
C   -6.7108610   -0.9029308   -3.7353172  
C   -6.6473139   -1.8292886   -4.8535110  
O   -7.6421018   -2.3324281   -5.3590295  
C   -5.2441054   -2.1966276   -5.4330570  
O   -5.1780534   -2.9757355   -6.3742735  
C   -4.0579914   -1.5951387   -4.8287424  
H   -7.6796705   -0.6453661   -3.3303750  
H   -3.0902100   -1.8545061   -5.2359914  
H   -3.6168787    1.3760929   -1.3069497  
C   -5.8716244    4.5374610   -0.5734641  
C   -5.3977458    3.4376125   -1.2136577  
C   -6.3512769    2.3767088   -0.9898354  
C   -7.4272479    2.9527777   -0.1608473  
N   -7.0762679    4.2651310    0.0569411  
C   -8.5183187    2.2684853    0.2669535  
C   -8.6409856    0.8713122   -0.1143533  
O   -9.5863531    0.1698397    0.2210829  
C   -7.5131212    0.2405479   -0.9917719  
O   -7.6053469   -0.9349664   -1.3187595  
C   -6.3857525    1.0791266   -1.3913688  
H   -4.4843597    3.3764330   -1.7781012  
H   -9.2962423    2.7099577    0.8742807  
H   -5.4420618    5.5239743   -0.5089861  
H   -7.6135693    4.9241727    0.5898749  
C    3.3041272   -0.0001177    3.0120429  
C    2.5845372    0.0004780    1.8395852  
C    1.2040006    0.0000008    2.1983588  
C    1.1422373   -0.0006037    3.6154372  
N    2.4348639   -0.0026109    4.0777464  
C   -0.0655181   -0.0008797    4.3197917  
C   -1.2321768   -0.0002324    3.5801400  
O   -2.4392816   -0.0001146    4.2172520  
C   -1.1911209    0.0000007    2.1655264  
O   -2.4371527    0.0002320    1.5732860  
C    0.0000000    0.0000000    1.4700000  
H    3.0031534    0.0000661    0.8477417  
H    2.7054629    0.0071099    5.0445261  
H   -0.1193549   -0.0014844    5.3997470  
H   -3.1132988    0.0000648    3.5251786  
H   -2.3200282    0.0004071    0.6183591  
H    4.3686625   -0.0004071    3.1724291  
