62

C    1.0516721   -1.1354133   -9.5271336  
C    0.6025506   -0.0527793   -8.8069521  
C    0.6825319    1.0819348   -9.6675488  
C    1.1916582    0.6264571  -10.9106312  
N    1.4067849   -0.7240613  -10.7904754  
C    1.4022489    1.4780069  -11.9993485  
C    1.0929633    2.8136370  -11.8301937  
O    1.2789724    3.6888235  -12.8609516  
C    0.5843244    3.2872525  -10.5973958  
O    0.3256998    4.6423686  -10.5866205  
C    0.3765743    2.4477947   -9.5228361  
H    1.7559617   -1.3229825  -11.5166644  
H    1.7901441    1.1371096  -12.9493625  
H    1.0050387    4.5561789  -12.5354994  
H   -0.0144460    4.8801957   -9.7186679  
H   -0.0140609    2.8394665   -8.5909161  
H    1.1481427   -2.1682287   -9.2391325  
C    1.8836768   -2.1362880   -5.0810765  
C    1.8358578   -1.7275857   -6.3703609  
C    0.7030361   -0.8169587   -6.4333932  
C    0.1677634   -0.7920097   -5.0551900  
N    0.8558147   -1.5634005   -4.2579876  
C   -0.9736297    0.0040464   -4.6965763  
C   -1.5536727    0.7419469   -5.6704285  
O   -2.6247574    1.5303573   -5.4774855  
C   -1.0366298    0.7382179   -7.0707189  
O   -1.6142404    1.4340383   -7.9058360  
C    0.1355200   -0.0866894   -7.4135270  
H    2.4887436   -2.0092001   -7.1787606  
H   -2.8038822    1.9233565   -6.3507661  
H    2.5838919   -2.8188168   -4.6262943  
C    1.1188642    0.0008222   -0.8003808  
C    0.0000000    0.0000000    0.0000000  
C   -1.1323862    0.0008899   -0.8673528  
C   -0.6382663    0.0019679   -2.1969280  
N    0.7324016    0.0038481   -2.1202242  
C   -1.4770914    0.0027318   -3.3154808  
C   -2.8395473    0.0020945   -3.0876857  
O   -3.7039201    0.0024425   -4.1440349  
C   -3.3517868    0.0013931   -1.7684331  
O   -4.7300497    0.0012366   -1.7073121  
C   -2.5248543    0.0009123   -0.6644817  
H    1.3576314   -0.0056167   -2.9057046  
H   -4.5940032    0.0021826   -3.7685128  
H   -4.9934602    0.0007259   -0.7819913  
H   -2.9462577    0.0005603    0.3339659  
H    2.1619895    0.0009355   -0.5342068  
C    2.5528530    2.1414826    2.8079335  
C    2.0663498    1.7338582    4.0032312  
C    0.9804344    0.8229586    3.6752840  
C    0.9495562    0.7966882    2.1971295  
N    1.8690446    1.5676019    1.6831036  
C    0.0000000    0.0000000    1.4700000  
C   -0.8785127   -0.7372425    2.1869543  
O   -1.8187535   -1.5261249    1.6395491  
C   -0.8723269   -0.7321790    3.6796354  
O   -1.7010379   -1.4274584    4.2670412  
C    0.1115397    0.0933559    4.4024240  
H    2.4028853    2.0163452    4.9860947  
H   -2.2861435   -1.9184361    2.3990168  
H    0.0832434    0.0693689    5.4835595  
H    3.3664920    2.8238276    2.6198634  
