62

C    6.0785435   -2.3759501   -2.7420277  
C    5.9196297   -1.0724476   -3.1520212  
C    7.1933500   -0.4410719   -3.0353977  
C    8.0983804   -1.4170970   -2.5452743  
N    7.3884803   -2.5798841   -2.3762047  
C    9.4491159   -1.1447254   -2.3083827  
C    9.8944049    0.1361915   -2.5713411  
O   11.2040191    0.4562463   -2.3580622  
C    9.0066349    1.1238754   -3.0603821  
O    9.6018256    2.3503021   -3.2724393  
C    7.6739155    0.8559543   -3.2940565  
H    7.7687761   -3.4497434   -2.0495533  
H   10.1439868   -1.8841606   -1.9347627  
H   11.3009563    1.3861329   -2.6013286  
H    8.9341128    2.9594872   -3.6020712  
H    7.0178305    1.6329072   -3.6687215  
H    5.3608107   -3.1759512   -2.6802480  
C    3.4106845   -0.7032175   -3.0670122  
C    2.4521483    0.0014840   -3.7217481  
C    3.1158557    0.7444933   -4.7668628  
C    4.5499134    0.4124942   -4.6666320  
N    4.6621247   -0.4692175   -3.6164499  
C    5.5136820    0.9128420   -5.4805768  
C    5.1117778    1.8404164   -6.5249019  
O    5.9049340    2.3456315   -7.3084581  
C    3.5983551    2.2063420   -6.6492182  
O    3.2480947    2.9864551   -7.5244334  
C    2.6531312    1.6023762   -5.7134675  
H    6.5600546    0.6562475   -5.3901707  
H    1.6070339    1.8607778   -5.8063813  
H    3.3081788   -1.3736416   -2.2292093  
C    0.0000000    0.0000000    0.0000000  
C    1.0662923   -0.0000101   -0.8334270  
C    0.4961873    0.0000065   -2.1718887  
C   -0.9663854   -0.0000848   -1.9540250  
N   -1.2632773   -0.0000083   -0.6828660  
C   -1.8985359   -0.0000514   -3.0477261  
C   -1.3925770    0.0004566   -4.3020547  
O   -2.1456378    0.0005414   -5.4151314  
C    0.0786240    0.0009326   -4.5545000  
O    0.4683767    0.0012591   -5.7221100  
C    1.0143171    0.0008444   -3.4159031  
H    2.1107200    0.0000633   -0.5721865  
H   -2.9622181   -0.0003268   -2.8593381  
H   -1.5042265    0.0009697   -6.1484419  
C    1.1188642   -0.0008217    2.2703808  
C    0.0000000    0.0000000    1.4700000  
C   -1.1323862   -0.0008904    2.3373528  
C   -0.6382662   -0.0019682    3.6669281  
N    0.7324016   -0.0038477    3.5902241  
C   -1.4770914   -0.0027325    4.7854808  
C   -2.8395474   -0.0020958    4.5576857  
O   -3.7039201   -0.0024443    5.6140350  
C   -3.3517868   -0.0013946    3.2384331  
O   -4.7300496   -0.0012389    3.1773122  
C   -2.5248543   -0.0009135    2.1344818  
H    1.3576314    0.0056174    4.3757045  
H   -1.1067570   -0.0036993    5.8013813  
H   -4.5940033   -0.0021850    5.2385129  
H   -4.9934601   -0.0007286    2.2519915  
H   -2.9462578   -0.0005617    1.1360343  
H    2.1619896   -0.0009344    2.0042067  
