60

C   -6.7798109   -0.0017020   -5.5285796  
C   -5.7774143   -0.0023910   -6.4707402  
C   -6.4083864   -0.0027573   -7.7499885  
C   -7.8085996   -0.0019732   -7.5234336  
N   -7.9994989   -0.0032960   -6.1639586  
C   -8.7429915   -0.0017667   -8.5634831  
C   -8.2549845   -0.0020554   -9.8557784  
O   -9.1233951   -0.0015213  -10.9088106  
C   -6.8613792   -0.0032119  -10.1021112  
O   -6.5338063   -0.0037852  -11.4422744  
C   -5.9390030   -0.0036895   -9.0765640  
H   -4.7213387   -0.0037086   -6.2617048  
H   -8.8914177    0.0074271   -5.7031465  
H   -9.8114652   -0.0013143   -8.3974538  
H   -8.5821940   -0.0021440  -11.7090392  
H   -5.5749502   -0.0045324  -11.5210042  
H   -4.8777347   -0.0047598   -9.2960791  
C   -3.3460096   -0.0004265   -2.7913646  
C   -4.0050885   -0.0007132   -1.6040609  
C   -5.4169936   -0.0010568   -1.9063186  
C   -5.5272431   -0.0009752   -3.3775888  
N   -4.2366045   -0.0001893   -3.8541818  
C   -6.6998410   -0.0016247   -4.0607563  
C   -7.9358014   -0.0022337   -3.2959439  
O   -9.0426019   -0.0027795   -3.8187170  
C   -7.8427529   -0.0020786   -1.7367304  
O   -8.8766028   -0.0022805   -1.0821970  
C   -6.5211392   -0.0016360   -1.1144850  
H   -3.5536954   -0.0005046   -0.6279167  
H   -6.4653747   -0.0017366   -0.0343859  
H   -3.9810062   -0.0015043   -4.8246018  
C    0.0000000    0.0000000    0.0000000  
C    1.0662919   -0.0000103   -0.8334269  
C    0.4961869    0.0000064   -2.1718889  
C   -0.9663859   -0.0000850   -1.9540246  
N   -1.2632774   -0.0000084   -0.6828657  
C   -1.8985363   -0.0000518   -3.0477257  
C   -1.3925778    0.0004564   -4.3020545  
O   -2.1456384    0.0005409   -5.4151311  
C    0.0786230    0.0009323   -4.5544998  
O    0.4683758    0.0012588   -5.7221098  
C    1.0143164    0.0008442   -3.4159030  
H    2.1107195    0.0000633   -0.5721867  
H   -1.5042275    0.0009691   -6.1484418  
H    2.0724152    0.0013148   -3.6409744  
C    0.0000000    0.0000000    1.4700000  
C    1.0541688    0.0001722    2.3260392  
C    0.5103138    0.0000454    3.6635956  
C   -0.9576371   -0.0002459    3.5155732  
N   -1.2018458    0.0001392    2.1615969  
C   -1.8348311   -0.0008317    4.5510609  
C   -1.2972847   -0.0009736    5.9014604  
O   -2.0050672   -0.0014265    6.9001319  
C    0.2542623   -0.0004184    6.0817573  
O    0.7184670   -0.0002256    7.2139121  
C    1.0974552   -0.0000873    4.8889129  
H    2.0940752    0.0005483    2.0517982  
H   -2.9081052   -0.0011668    4.4207061  
H    2.1707277    0.0000911    5.0223670  
H   -2.1128194   -0.0014912    1.7406791  
