60

C    8.1081751   -2.1284726    2.5236481  
C    7.4160916   -1.6646066    1.4289719  
C    8.2878159   -0.7775837    0.7304829  
C    9.5084257   -0.7396807    1.4520094  
N    9.3647046   -1.5696089    2.5360676  
C   10.6004828    0.0355973    1.0505832  
C   10.4578471    0.7860526   -0.1003515  
O   11.4930501    1.5607177   -0.5376860  
C    9.2477274    0.7617382   -0.8337241  
O    9.2620230    1.5632884   -1.9565135  
C    8.1698811   -0.0026513   -0.4381470  
H    6.4066860   -1.9317451    1.1668066  
H   10.0719794   -1.7524992    3.2247569  
H   11.5334507    0.0689423    1.5961675  
H   11.1872511    1.9948506   -1.3447056  
H    8.4082773    1.4894006   -2.3938491  
H    7.8044147   -2.8126494    3.2973345  
C    5.6463485   -0.0007504   -0.7029965  
C    4.7161325   -0.0005435   -1.6923264  
C    5.4339816   -0.0003284   -2.9451344  
C    6.8689501   -0.0004570   -2.6021236  
N    6.9298893   -0.0003136   -1.2276507  
C    7.8767467   -0.0007183   -3.5109972  
C    7.5246255   -0.0006576   -4.9211555  
O    8.3596092   -0.0008157   -5.8161997  
C    6.0111289   -0.0002696   -5.3073303  
O    5.7025039    0.0000911   -6.4913959  
C    5.0159834   -0.0002905   -4.2379666  
H    8.9229464   -0.0009388   -3.2382781  
H    3.9701999   -0.0002262   -4.5137575  
H    5.5021930   -0.0009684    0.3652304  
C    3.2573665   -0.0002920   -1.5109385  
C    2.5379463   -0.0001709   -0.3591964  
C    1.1435038    0.0000331   -0.7338500  
C    1.1092599   -0.0000083   -2.2088477  
N    2.4227553    0.0001909   -2.6182613  
C   -0.0265539   -0.0002524   -2.9515660  
C   -1.3003040   -0.0002640   -2.2514977  
O   -2.3786790   -0.0004133   -2.8306421  
C   -1.2877727    0.0000311   -0.6895603  
O   -2.3539959    0.0003306   -0.0892030  
C    0.0000000    0.0000000    0.0000000  
H    2.9384091   -0.0000367    0.6389234  
H   -0.0296303   -0.0004086   -4.0327229  
H    2.7280482   -0.0013407   -3.5742119  
C    0.8175213    0.6860729    2.3021913  
C    0.0000000    0.0000000    1.4700000  
C   -0.8887526   -0.7456559    2.3478473  
C   -0.4549825   -0.3816753    3.7138435  
N    0.5448156    0.4573574    3.6934124  
C   -1.0945674   -0.9182058    4.8835240  
C   -2.1210866   -1.7789155    4.6970523  
O   -2.8083856   -2.3554314    5.6976972  
C   -2.5824069   -2.1655116    3.3310774  
O   -3.5227682   -2.9541547    3.2362962  
C   -1.9100805   -1.6015804    2.1470656  
H   -0.7567140   -0.6349833    5.8697035  
H   -3.4728268   -2.9124471    5.2533954  
H   -2.2742832   -1.9066565    1.1752040  
H    1.6189533    1.3585343    2.0405121  
