60

C    2.4521484    0.0014842   -3.7217481  
C    3.5379004    0.0014492   -2.8769939  
C    4.7042702    0.0016044   -3.6980792  
C    4.2640495    0.0020180   -5.0464607  
N    2.8914061   -0.0000175   -5.0249744  
C    5.1472048    0.0025712   -6.1303547  
C    6.4993920    0.0030164   -5.8479207  
O    7.4055692    0.0039157   -6.8686330  
C    6.9581309    0.0022390   -4.5091249  
O    8.3328180    0.0023940   -4.3925944  
C    6.0874477    0.0014198   -3.4393422  
H    3.4945812    0.0002216   -1.8013009  
H    2.2982886    0.0103119   -5.8349658  
H    4.8180484    0.0027443   -7.1603345  
H    8.2798218    0.0037914   -6.4575998  
H    8.5587830    0.0018623   -3.4574242  
H    6.4683334    0.0006542   -2.4247469  
C    0.0000000    0.0000000    0.0000000  
C    1.0662922   -0.0000101   -0.8334266  
C    0.4961875    0.0000066   -2.1718886  
C   -0.9663853   -0.0000848   -1.9540248  
N   -1.2632772   -0.0000083   -0.6828658  
C   -1.8985359   -0.0000514   -3.0477260  
C   -1.3925768    0.0004568   -4.3020543  
O   -2.1456378    0.0005413   -5.4151314  
C    0.0786238    0.0009327   -4.5544999  
O    0.4683768    0.0012594   -5.7221098  
C    1.0143171    0.0008446   -3.4159030  
H    2.1107199    0.0000634   -0.5721863  
H   -1.5042266    0.0009697   -6.1484425  
C   -3.9884048    0.7039235   -1.8242586  
C   -3.3460091   -0.0004261   -2.7913651  
C   -4.3537576   -0.7427563   -3.5112432  
C   -5.6451792   -0.4107425   -2.8797472  
N   -5.3546444    0.4703285   -1.8637782  
C   -6.8441767   -0.9105379   -3.2725762  
C   -6.8640248   -1.8374906   -4.3919062  
O   -7.8934836   -2.3421814   -4.8206293  
C   -5.5080958   -2.2034205   -5.0755424  
O   -5.5122764   -2.9830135   -6.0186633  
C   -4.2805263   -1.6000811   -4.5627984  
H   -7.7799852   -0.6539432   -2.7957833  
H   -3.3459148   -1.8584816   -5.0418131  
H   -3.5786578    1.3738263   -1.0858635  
H   -6.0311465    0.8819830   -1.2473912  
C    3.2573670    0.0002920    2.9809380  
C    2.5379467    0.0001709    1.8291961  
C    1.1435042   -0.0000331    2.2038498  
C    1.1092607    0.0000083    3.6788474  
N    2.4227561   -0.0001909    4.0882609  
C   -0.0265533    0.0002524    4.4215661  
C   -1.3003036    0.0002640    3.7214979  
O   -2.3786784    0.0004133    4.3006425  
C   -1.2877726   -0.0000311    2.1595606  
O   -2.3539958   -0.0003306    1.5592035  
C    0.0000000    0.0000000    1.4700000  
H    2.9384090    0.0000368    0.8310761  
H   -0.0296291    0.0004086    5.5027230  
H    4.3270393    0.0004765    3.1139444  
H    2.7280493    0.0013407    5.0442112  
