64

C    0.3964723    0.1029020   -8.7926645  
C    1.4414165   -0.5445327   -9.4102305  
C    1.4300437   -0.1422557  -10.7786768  
C    0.3467080    0.7592832  -10.9384831  
N   -0.2608680    0.8843975   -9.7138148  
C    0.0351458    1.3576995  -12.1630719  
C    0.8319007    1.0404692  -13.2459964  
O    0.5724042    1.5966770  -14.4651387  
C    1.9170979    0.1428458  -13.1065887  
O    2.6150071   -0.0715579  -14.2771871  
C    2.2248791   -0.4480884  -11.8988670  
H    2.1268010   -1.2241088   -8.9333476  
H   -1.0541105    1.4672816   -9.5163480  
H   -0.7892466    2.0455162  -12.2914768  
H    1.2371532    1.2462068  -15.0722172  
H    3.3303400   -0.6888965  -14.0960914  
H    3.0622024   -1.1318775  -11.8227079  
C    1.9074112   -2.1157062   -5.2171226  
C    1.7366763   -1.6153229   -6.4871355  
C    0.6103638   -0.7412449   -6.4423320  
C    0.1310751   -0.7480684   -5.1073552  
N    0.9400196   -1.5942801   -4.3903116  
C   -0.9736297    0.0040464   -4.6965763  
C   -1.6058300    0.7773677   -5.6507641  
O   -2.6892501    1.5315498   -5.3037409  
C   -1.1427633    0.7971178   -6.9879239  
O   -1.8787358    1.6162802   -7.8189843  
C   -0.0531715    0.0551811   -7.3939361  
H    2.3479778   -1.8521270   -7.3410843  
H    0.8493711   -1.7919000   -3.4101531  
H   -2.9736279    1.9867686   -6.1069653  
H   -1.5003158    1.5722389   -8.7024217  
H    2.6418354   -2.8044010   -4.8359680  
C    1.1188642    0.0008222   -0.8003808  
C    0.0000000    0.0000000    0.0000000  
C   -1.1323862    0.0008899   -0.8673528  
C   -0.6382663    0.0019679   -2.1969280  
N    0.7324016    0.0038481   -2.1202242  
C   -1.4770914    0.0027318   -3.3154808  
C   -2.8395473    0.0020945   -3.0876857  
O   -3.7039201    0.0024425   -4.1440349  
C   -3.3517868    0.0013931   -1.7684331  
O   -4.7300497    0.0012366   -1.7073121  
C   -2.5248543    0.0009123   -0.6644817  
H    1.3576314   -0.0056167   -2.9057046  
H   -4.5940032    0.0021826   -3.7685128  
H   -4.9934602    0.0007259   -0.7819913  
H   -2.9462577    0.0005603    0.3339659  
H    2.1619895    0.0009355   -0.5342068  
C    0.0000000    0.0000000    1.4700000  
C    1.0662921    0.0000102    2.3034270  
C    0.4961870   -0.0000064    3.6418889  
C   -0.9663858    0.0000850    3.4240247  
N   -1.2632773    0.0000084    2.1528658  
C   -1.8985362    0.0000517    4.5177257  
C   -1.3925775   -0.0004564    5.7720543  
O   -2.1456383   -0.0005410    6.8851312  
C    0.0786232   -0.0009323    6.0245000  
O    0.4683759   -0.0012588    7.1921102  
C    1.0143166   -0.0008442    4.8859032  
H    2.1107198   -0.0000632    2.0421868  
H   -2.9622183    0.0003270    4.3293377  
H   -1.5042274   -0.0009692    7.6184419  
H    2.0724152   -0.0013148    5.1109744  
