60

C    4.4220969   -0.9063403   -8.9970772  
C    4.7363376   -0.5062730  -10.2752267  
C    4.4884676    0.8966771  -10.3451636  
C    4.0206505    1.3008264   -9.0685519  
N    3.9905199    0.1813347   -8.2745452  
C    3.6767933    2.6233929   -8.7729702  
C    3.8078653    3.5549980   -9.7844589  
O    3.4863344    4.8606253   -9.5500049  
C    4.2725714    3.1711156  -11.0648878  
O    4.3477455    4.2142152  -11.9646866  
C    4.6117203    1.8665031  -11.3572756  
H    5.0985002   -1.1470229  -11.0608934  
H    3.3194943    2.9378177   -7.8020540  
H    3.6480799    5.3342786  -10.3762952  
H    4.6699181    3.8698768  -12.8032811  
H    4.9645878    1.6023523  -12.3473204  
H    4.4703110   -1.8817527   -8.5440823  
C    5.6703525   -2.0177346   -4.9085748  
C    4.8680133   -1.6338541   -3.8885421  
C    3.9117991   -0.7160921   -4.4884317  
C    4.2939630   -0.6601082   -5.9158072  
N    5.3241004   -1.4211364   -6.1680812  
C    3.5804909    0.1513597   -6.8632059  
C    2.5326218    0.8737501   -6.4055410  
O    1.7779987    1.6737360   -7.1779443  
C    2.1221162    0.8381010   -4.9708373  
O    1.1586084    1.5213824   -4.6244274  
C    2.8699641   -0.0020530   -4.0185824  
H    4.9187307   -1.9362135   -2.8565138  
H    1.1149868    2.0503428   -6.5715331  
H    6.5076563   -2.6965644   -4.8756220  
C    3.2573670   -0.0002921   -1.5109382  
C    2.5379468   -0.0001711   -0.3591962  
C    1.1435043    0.0000330   -0.7338498  
C    1.1092608   -0.0000085   -2.2088474  
N    2.4227562    0.0001906   -2.6182610  
C   -0.0265533   -0.0002525   -2.9515663  
C   -1.3003033   -0.0002641   -2.2514979  
O   -2.3786785   -0.0004132   -2.8306425  
C   -1.2877724    0.0000310   -0.6895608  
O   -2.3539956    0.0003306   -0.0892035  
C    0.0000000    0.0000000    0.0000000  
H    2.9384091   -0.0000370    0.6389240  
H   -0.0296290   -0.0004088   -4.0327231  
H    4.3270394   -0.0004767   -1.6439445  
C    2.3971438    2.0127888    3.1728260  
C    1.9431056    1.6308205    1.9564670  
C    0.8496017    0.7127664    2.2356185  
C    0.7794028    0.6545384    3.7115134  
N    1.6840587    1.4146091    4.2663826  
C   -0.1885723   -0.1578550    4.3957118  
C   -1.0476298   -0.8789867    3.6398520  
O   -2.0015663   -1.6796266    4.1448486  
C   -1.0022026   -0.8410666    2.1483229  
O   -1.8147390   -1.5232959    1.5241687  
C    0.0000000    0.0000000    1.4700000  
H    2.3054237    1.9346118    0.9892483  
H   -0.2170646   -0.1815267    5.4753125  
H   -2.4487139   -2.0549881    3.3649027  
H    3.2048689    2.6911772    3.3971983  
