62

C    4.0847204    0.6318183   -7.3732395  
C    5.1367429   -0.2110137   -7.0987397  
C    6.0033206   -0.1777711   -8.2312316  
C    5.4235528    0.7103915   -9.1730186  
N    4.2586757    1.1828348   -8.6212249  
C    6.0094337    0.9868318  -10.4120153  
C    7.2024715    0.3554045  -10.7055072  
O    7.8177402    0.5896586  -11.9011592  
C    7.7963413   -0.5343834   -9.7790013  
O    8.9830594   -1.0839167  -10.2183830  
C    7.2187774   -0.8077772   -8.5566252  
H    5.2633650   -0.7806598   -6.1940501  
H    3.6360175    1.8403324   -9.0547858  
H    5.5725452    1.6626425  -11.1342426  
H    8.6237294    0.0570752  -11.9024488  
H    9.3175647   -1.6720135   -9.5343858  
H    7.6970057   -1.4939883   -7.8675028  
C    2.8187457   -0.6703163   -3.3751030  
C    1.6628945    0.0339172   -3.2649299  
C    1.5111628    0.7878480   -4.4869779  
C    2.6817417    0.4627679   -5.3241507  
N    3.4355966   -0.4257741   -4.5926555  
C    2.9084918    0.9739988   -6.5606508  
C    1.9347551    1.9068211   -7.1030667  
O    2.0491236    2.4217970   -8.2076126  
C    0.6876143    2.2655757   -6.2337339  
O   -0.1388147    3.0500153   -6.6797491  
C    0.5525686    1.6499643   -4.9159186  
H   -0.3139090    1.9034590   -4.3203675  
H    3.2719311   -1.3472108   -2.6691807  
H    4.2996453   -0.8352540   -4.8972748  
C    1.1243410    0.0100105   -0.7919003  
C    0.7474072    0.0234665   -2.1148542  
C   -0.6787384    0.0234379   -2.1414698  
C   -1.1201748    0.0098411   -0.7935547  
N    0.0000000    0.0000000    0.0000000  
C   -2.4730818    0.0063307   -0.4408240  
C   -3.3971962    0.0170429   -1.4675058  
O   -4.7313520    0.0145490   -1.1793468  
C   -2.9763654    0.0303020   -2.8186325  
O   -4.0166484    0.0394464   -3.7247625  
C   -1.6418567    0.0334992   -3.1673480  
H   -2.8160166   -0.0041569    0.5845966  
H   -5.1938823    0.0230023   -2.0274386  
H   -3.6464680    0.0481700   -4.6127343  
H   -1.3497475    0.0435647   -4.2109234  
H    2.1062466    0.0053162   -0.3505405  
C    2.5528530    2.1414826    2.8079335  
C    2.0663498    1.7338582    4.0032312  
C    0.9804344    0.8229586    3.6752840  
C    0.9495562    0.7966882    2.1971295  
N    1.8690446    1.5676019    1.6831036  
C    0.0000000    0.0000000    1.4700000  
C   -0.8785127   -0.7372425    2.1869543  
O   -1.8187535   -1.5261249    1.6395491  
C   -0.8723269   -0.7321790    3.6796354  
O   -1.7010379   -1.4274584    4.2670412  
C    0.1115397    0.0933559    4.4024240  
H    2.4028853    2.0163452    4.9860947  
H   -2.2861435   -1.9184361    2.3990168  
H    0.0832434    0.0693689    5.4835595  
H    3.3664920    2.8238276    2.6198634  
