62

C    6.5317074   -0.0085016   -1.8456822  
C    5.8581384   -0.0072234   -0.6461945  
C    6.8438278   -0.0082408    0.3848322  
C    8.1115760   -0.0098630   -0.2513596  
N    7.8858276   -0.0119304   -1.6054826  
C    9.3149463   -0.0108885    0.4604595  
C    9.2371170   -0.0099581    1.8396329  
O   10.3814428   -0.0105419    2.5836297  
C    7.9816065   -0.0087132    2.4927088  
O    8.0711803   -0.0083199    3.8694148  
C    6.7940461   -0.0079742    1.7911203  
H    4.7879962   -0.0068454   -0.5287713  
H    8.5984294   -0.0028393   -2.3126579  
H   10.2843930   -0.0122701   -0.0184722  
H   10.1052443   -0.0100111    3.5093614  
H    7.1801111   -0.0074433    4.2321809  
H    5.8475196   -0.0072057    2.3189122  
C    2.4861703   -0.0045381   -3.7159920  
C    3.4691532   -0.0057439   -2.7857649  
C    4.7077412   -0.0077542   -3.5489135  
C    4.2744123   -0.0075882   -4.9627062  
N    2.9732092   -0.0056259   -5.0669052  
C    5.2170328   -0.0092329   -6.0473951  
C    6.5327408   -0.0105757   -5.7339546  
O    7.5212015   -0.0121898   -6.6444391  
C    7.0015518   -0.0104085   -4.3167825  
O    8.2141971   -0.0118085   -4.1053319  
C    6.0150640   -0.0087513   -3.2219018  
H    3.3664293   -0.0052312   -1.7140731  
H    4.8722774   -0.0092764   -7.0711399  
H    8.3418878   -0.0128275   -6.1194360  
C    0.0000000    0.0000000    0.0000000  
C    1.0521669   -0.0011901   -0.8862341  
C    0.4917220   -0.0011956   -2.1979132  
C   -0.9187428    0.0003148   -2.0478684  
N   -1.1833170   -0.0009411   -0.7007915  
C   -1.7951699    0.0010351   -3.1372091  
C   -1.2375836    0.0005225   -4.4010425  
O   -2.0474210    0.0015361   -5.4997584  
C    0.1673583   -0.0013566   -4.5711960  
O    0.5673528   -0.0020686   -5.8915549  
C    1.0325772   -0.0023411   -3.4969890  
H    2.0953059   -0.0030648   -0.6200562  
H   -2.0989777    0.0102372   -0.2891825  
H   -2.8710931    0.0020419   -3.0295515  
H   -1.4634882    0.0006497   -6.2693594  
H    1.5290713   -0.0033151   -5.9180046  
C    0.0000000    0.0000000    1.4700000  
C    1.0541688    0.0001722    2.3260392  
C    0.5103138    0.0000454    3.6635956  
C   -0.9576371   -0.0002459    3.5155732  
N   -1.2018458    0.0001392    2.1615969  
C   -1.8348311   -0.0008317    4.5510609  
C   -1.2972847   -0.0009736    5.9014604  
O   -2.0050672   -0.0014265    6.9001319  
C    0.2542623   -0.0004184    6.0817573  
O    0.7184670   -0.0002256    7.2139121  
C    1.0974552   -0.0000873    4.8889129  
H    2.0940752    0.0005483    2.0517982  
H   -2.9081052   -0.0011668    4.4207061  
H    2.1707277    0.0000911    5.0223670  
H   -2.1128194   -0.0014912    1.7406791  
