62

C    6.4673530   -1.8500150   -7.0115388  
C    7.5607948   -2.6696001   -7.1700681  
C    7.9488402   -2.5857479   -8.5401015  
C    7.0479513   -1.6920917   -9.1739019  
N    6.1601576   -1.2652032   -8.2177624  
C    7.1316880   -1.3704745  -10.5319666  
C    8.1434808   -1.9615348  -11.2634730  
O    8.2712163   -1.6822807  -12.5934033  
C    9.0518801   -2.8560654  -10.6491091  
O   10.0026842   -3.3620306  -11.5112668  
C    8.9697037   -3.1740168   -9.3094525  
H    8.0213329   -3.2566317   -6.3939938  
H    5.4104602   -0.6151962   -8.3708175  
H    6.4480889   -0.6902338  -11.0210143  
H    9.0290995   -2.1921540  -12.9078989  
H   10.5755316   -3.9565531  -11.0173104  
H    9.6797224   -3.8627280   -8.8667023  
C    5.8883843   -2.0954747   -4.5533056  
C    4.9762278   -1.6321311   -3.6603566  
C    4.1010834   -0.7362692   -4.3789590  
C    4.5815871   -0.7155463   -5.7737626  
N    5.6672534   -1.5597492   -5.8130031  
C    4.0183667    0.0134743   -6.7702645  
C    2.8618715    0.8325282   -6.4474558  
O    2.2840247    1.5248514   -7.2751531  
C    2.3361186    0.8260249   -4.9766243  
O    1.3633192    1.5118827   -4.6928615  
C    3.0267438   -0.0008951   -3.9901699  
H    4.9226751   -1.8885071   -2.6172757  
H    4.3863454    0.0144156   -7.7868766  
H    6.7036720   -2.7830649   -4.3970503  
C    3.3003547    0.0005277   -1.4738986  
C    2.5232816    0.0003497   -2.6090746  
C    1.1623203   -0.0001319   -2.1820102  
C    1.1711884    0.0000584   -0.7636141  
N    2.4852301   -0.0014919   -0.3662359  
C    0.0000000    0.0000000    0.0000000  
C   -1.2020383    0.0000520   -0.6806479  
O   -2.3759248    0.0003493    0.0157745  
C   -1.2314655   -0.0005115   -2.0955511  
O   -2.5054388   -0.0008040   -2.6250184  
C   -0.0764513   -0.0007274   -2.8495195  
H    2.8036266    0.0088183    0.5858662  
H   -3.0835639    0.0000346   -0.6418822  
H   -2.4360043   -0.0011529   -3.5845924  
H   -0.1304091   -0.0013423   -3.9319089  
H    4.3715553    0.0004897   -1.3667133  
C    0.8175213    0.6860729    2.3021913  
C    0.0000000    0.0000000    1.4700000  
C   -0.8887526   -0.7456559    2.3478473  
C   -0.4549825   -0.3816753    3.7138435  
N    0.5448156    0.4573574    3.6934124  
C   -1.0945674   -0.9182058    4.8835240  
C   -2.1210866   -1.7789155    4.6970523  
O   -2.8083856   -2.3554314    5.6976972  
C   -2.5824069   -2.1655116    3.3310774  
O   -3.5227682   -2.9541547    3.2362962  
C   -1.9100805   -1.6015804    2.1470656  
H   -0.7567140   -0.6349833    5.8697035  
H   -3.4728268   -2.9124471    5.2533954  
H   -2.2742832   -1.9066565    1.1752040  
H    1.6189533    1.3585343    2.0405121  
