62

C   -0.1387076    0.0017018   -4.3179686  
C    0.8680296    0.0011951   -5.2554906  
C    0.2429724    0.0018229   -6.5376383  
C   -1.1582723    0.0029974   -6.3175529  
N   -1.3554486    0.0009410   -4.9589754  
C   -2.0878498    0.0041701   -7.3619061  
C   -1.5938800    0.0044639   -8.6519332  
O   -2.4574174    0.0059472   -9.7089646  
C   -0.1991523    0.0029311   -8.8918277  
O    0.1346067    0.0030288  -10.2304648  
C    0.7184772    0.0015004   -7.8620321  
H    1.9231280   -0.0006420   -5.0415805  
H   -2.2494816    0.0117256   -4.5022806  
H   -3.1570786    0.0049246   -7.2008123  
H   -1.9125260    0.0055956  -10.5066853  
H    1.0938159    0.0019687  -10.3047652  
H    1.7807477    0.0001625   -8.0766449  
C    3.3041273    0.0001177   -1.5420426  
C    2.5845371   -0.0004780   -0.3695849  
C    1.2040008   -0.0000008   -0.7283588  
C    1.1422377    0.0006037   -2.1454371  
N    2.4348643    0.0026111   -2.6077461  
C   -0.0655176    0.0008798   -2.8497919  
C   -1.2321767    0.0002324   -2.1101405  
O   -2.4392813    0.0001147   -2.7472523  
C   -1.1911212   -0.0000007   -0.6955267  
O   -2.4371528   -0.0002320   -0.1032865  
C    0.0000000    0.0000000    0.0000000  
H    3.0031533   -0.0000661    0.6222586  
H    2.7054634   -0.0071098   -3.5745257  
H   -3.1132980   -0.0000650   -2.0551791  
H   -2.3200288   -0.0004072    0.8516407  
C    6.6801371   -0.0033358    1.2661393  
C    7.7093289   -0.0019928    0.3802288  
C    7.1273477   -0.0004469   -0.9411838  
C    5.6642443   -0.0009741   -0.7511347  
N    5.4589564   -0.0031397    0.6092850  
C    4.7577221    0.0005130   -1.7610455  
C    5.2563298    0.0025581   -3.1263005  
O    4.5202052    0.0039399   -4.1042674  
C    6.8020695    0.0028974   -3.3510076  
O    7.2336232    0.0043062   -4.4960056  
C    7.6791168    0.0014558   -2.1828300  
H    8.7566706   -0.0022580    0.6245415  
H    8.7481218    0.0019070   -2.3470009  
H    6.7110420   -0.0046692    2.3436052  
H    4.5604250   -0.0024243    1.0561497  
C    2.5128556    2.1077716    2.9199648  
C    1.9592212    1.6432552    4.0696553  
C    0.8915788    0.7479214    3.6910360  
C    0.8684491    0.7287414    2.2159470  
N    1.8754542    1.5738793    1.8102719  
C    0.0000000    0.0000000    1.4700000  
C   -0.9772830   -0.8200135    2.1664417  
O   -1.8021297   -1.5120829    1.5842315  
C   -0.9711318   -0.8147624    3.7284083  
O   -1.7894187   -1.5009653    4.3257297  
C    0.0140216    0.0115358    4.4216297  
H    2.2638494    1.8988021    5.0689105  
H    0.0117648    0.0094386    5.5031631  
H    3.3327358    2.7953732    2.7900019  
H    2.1123206    1.7707734    0.8551938  
