64

C    1.1188644    0.0008226   -0.8003805  
C    0.0000000    0.0000000    0.0000000  
C   -1.1323860    0.0008892   -0.8673527  
C   -0.6382656    0.0019674   -2.1969283  
N    0.7324019    0.0038482   -2.1202239  
C   -1.4770908    0.0027309   -3.3154809  
C   -2.8395472    0.0020928   -3.0876856  
O   -3.7039192    0.0024401   -4.1440350  
C   -3.3517869    0.0013914   -1.7684331  
O   -4.7300491    0.0012343   -1.7073130  
C   -2.5248543    0.0009112   -0.6644819  
H   -1.1067561    0.0036980   -4.3313812  
H   -4.5940030    0.0021805   -3.7685135  
H   -4.9934602    0.0007241   -0.7819917  
H   -2.9462580    0.0005591    0.3339653  
H    2.1619895    0.0009363   -0.5342066  
C    4.5154634   -2.1146742   -2.8156716  
C    4.7985787   -1.6646921   -4.0652463  
C    3.7280662   -0.7729166   -4.4441598  
C    2.7913715   -0.7399853   -3.3047264  
N    3.3260556   -1.5745760   -2.3505458  
C    1.6478439   -0.0100095   -3.2702997  
C    1.3174724    0.7969142   -4.4331687  
O    0.3100018    1.4889656   -4.4992704  
C    2.2949959    0.7769792   -5.6513051  
O    2.0272068    1.4520882   -6.6360779  
C    3.4969331   -0.0492770   -5.5706860  
H    4.1686930   -0.0573906   -6.4182686  
H    5.0755455   -2.7955770   -2.1955351  
H    2.9164744   -1.7608854   -1.4535623  
C    6.9654581   -5.5276883   -4.6747967  
C    6.0799781   -4.5602344   -4.2595553  
C    6.4688730   -3.3414763   -4.8904200  
C    7.6075563   -3.6293567   -5.6856876  
N    7.8835431   -4.9651437   -5.5303751  
C    8.2601129   -2.6586293   -6.4516160  
C    7.7537731   -1.3739496   -6.4142805  
O    8.3522479   -0.3874814   -7.1434730  
C    6.6188059   -1.0669981   -5.6265953  
O    6.2364926    0.2568394   -5.6946821  
C    5.9747002   -2.0240842   -4.8705258  
H    5.2558706   -4.7137844   -3.5840838  
H    8.6313524   -5.4596255   -5.9823159  
H    9.1284877   -2.8715892   -7.0597090  
H    7.8480098    0.4194895   -6.9767182  
H    5.4637517    0.3794345   -5.1348208  
H    7.0156389   -6.5741857   -4.4272396  
C    2.5285572    2.1210227    2.9438989  
C    1.9331703    1.6216660    4.0790748  
C    0.8903039    0.7472258    3.6520102  
C    0.8972198    0.7527806    2.2336141  
N    1.9028376    1.5986179    1.8362361  
C    0.0000000    0.0000000    1.4700000  
C   -0.9207814   -0.7726952    2.1506477  
O   -1.8198395   -1.5274828    1.4542253  
C   -0.9436862   -0.7911793    3.5655508  
O   -1.9197945   -1.6098497    4.0950179  
C   -0.0590329   -0.0485852    4.3195194  
H    2.2150357    1.8593692    5.0905303  
H    2.1533708    1.7953814    0.8841339  
H   -2.3621246   -1.9821033    2.1118817  
H   -1.8668290   -1.5649508    5.0545920  
H   -0.1007624   -0.0827977    5.4019087  
H    3.3491200    2.8096064    2.8367138  
