60

C    5.1330070   -3.7139482    0.5103631  
C    4.6515939   -4.5170541    1.5181970  
C    3.2332863   -4.3658106    1.5295535  
C    2.9040603   -3.4503589    0.4973303  
N    4.0808106   -3.0726362   -0.1003334  
C    1.5891608   -3.0650137    0.2192348  
C    0.5883555   -3.6140418    0.9971389  
O   -0.7131827   -3.2725483    0.7682433  
C    0.8968920   -4.5288392    2.0319179  
O   -0.2094796   -4.9866867    2.7172361  
C    2.1938703   -4.9092361    2.3070034  
H    5.2492564   -5.1349489    2.1662700  
H    1.3316517   -2.3676392   -0.5659784  
H   -1.2411323   -3.7612231    1.4130164  
H    0.0862450   -5.5989377    3.3978972  
H    2.3994915   -5.6117871    3.1061410  
H    6.1438029   -3.5467554    0.1797622  
C    4.1985335   -2.1423497   -1.2324147  
C    5.3247420   -1.7348284   -1.8626215  
C    4.8654771   -0.8236651   -2.8996159  
C    3.3948139   -0.7971454   -2.7478598  
N    2.9980300   -1.5681518   -1.7721032  
C    2.5562217   -0.0001543   -3.6003001  
C    3.1594329    0.7371398   -4.5604401  
O    2.5003396    1.5262941   -5.4258146  
C    4.6414690    0.7318293   -4.7384888  
O    5.1222590    1.4271719   -5.6332291  
C    5.4799815   -0.0940140   -3.8514695  
H    6.3415678   -2.0175420   -1.6499845  
H    3.1964043    1.9185703   -5.9832783  
H    6.5493676   -0.0702000   -4.0129497  
C    0.0000000    0.0000000    0.0000000  
C    1.0541688   -0.0001719   -0.8560391  
C    0.5103141   -0.0000449   -2.1935955  
C   -0.9576367    0.0002461   -2.0455733  
N   -1.2018459   -0.0001392   -0.6915970  
C   -1.8348306    0.0008319   -3.0810611  
C   -1.2972842    0.0009739   -4.4314605  
O   -2.0050664    0.0014267   -5.4301321  
C    0.2542628    0.0004190   -4.6117571  
O    0.7184677    0.0002263   -5.7439119  
C    1.0974556    0.0000880   -3.4189127  
H    2.0940752   -0.0005479   -0.5817978  
H   -2.9081050    0.0011669   -2.9507065  
H   -2.1128195    0.0014911   -0.2706793  
C    3.1301144    0.0010313    3.1728260  
C    2.5367765    0.0002768    1.9564670  
C    1.1089900   -0.0001027    2.2356185  
C    1.0177864    0.0004150    3.7115134  
N    2.1993570    0.0011613    4.2663826  
C   -0.2459220    0.0002880    4.3957118  
C   -1.3675327    0.0000606    3.6398520  
O   -2.6129319   -0.0000866    4.1448486  
C   -1.3083589   -0.0000910    2.1483229  
O   -2.3693264   -0.0004206    1.5241687  
C    0.0000000    0.0000000    1.4700000  
H    3.0096015    0.0001008    0.9892483  
H   -0.2829642    0.0004689    5.4753125  
H   -3.1967446   -0.0002093    3.3649027  
H    4.1849273    0.0015113    3.3971983  
