62

C    8.8929592   -0.0031757   -2.8314838  
C   10.0070394   -0.0032651   -2.0244573  
C   11.1445678   -0.0043640   -2.8850553  
C   10.6583692   -0.0046241   -4.2175482  
N    9.2872690   -0.0058373   -4.1490046  
C   11.5038372   -0.0053403   -5.3310887  
C   12.8649145   -0.0054952   -5.0951885  
O   13.7355580   -0.0058351   -6.1463741  
C   13.3692916   -0.0056164   -3.7729100  
O   14.7471660   -0.0061896   -3.7035869  
C   12.5358044   -0.0051834   -2.6739003  
H   10.0006314   -0.0037231   -0.9479110  
H    8.6667309    0.0042809   -4.9381884  
H   11.1395560   -0.0056860   -6.3491759  
H   14.6233910   -0.0061895   -5.7655614  
H   15.0050656   -0.0062074   -2.7767150  
H   12.9512565   -0.0054713   -1.6729619  
C    6.5698745   -0.0006427    0.9721610  
C    7.6069601   -0.0018567    0.1026612  
C    6.9912940   -0.0024304   -1.2154643  
C    5.5370524   -0.0015106   -0.9475764  
N    5.2839240   -0.0003802    0.3330154  
C    4.5679461   -0.0016854   -2.0086701  
C    5.0305960   -0.0023424   -3.2796107  
O    4.2398095   -0.0025848   -4.3662099  
C    6.4922749   -0.0029068   -3.5823560  
O    6.8417602   -0.0036170   -4.7626442  
C    7.4664609   -0.0027578   -2.4765143  
H    8.6597324   -0.0022169    0.3279336  
H    4.8556978   -0.0030410   -5.1210839  
H    6.6068538    0.0001032    2.0499390  
C    3.1301149   -0.0010311   -1.7028252  
C    2.5367768   -0.0002767   -0.4864665  
C    1.1089904    0.0001028   -0.7656183  
C    1.0177872   -0.0004148   -2.2415132  
N    2.1993578   -0.0011611   -2.7963820  
C   -0.2459209   -0.0002877   -2.9257118  
C   -1.3675319   -0.0000605   -2.1698524  
O   -2.6129313    0.0000867   -2.6748490  
C   -1.3083584    0.0000910   -0.6783232  
O   -2.3693261    0.0004206   -0.0541692  
C    0.0000000    0.0000000    0.0000000  
H    3.0096017   -0.0001007    0.4807525  
H   -0.2829630   -0.0004687   -4.0053125  
H   -3.1967441    0.0002094   -1.8949034  
C    2.5285572    2.1210227    2.9438989  
C    1.9331703    1.6216660    4.0790748  
C    0.8903039    0.7472258    3.6520102  
C    0.8972198    0.7527806    2.2336141  
N    1.9028376    1.5986179    1.8362361  
C    0.0000000    0.0000000    1.4700000  
C   -0.9207814   -0.7726952    2.1506477  
O   -1.8198395   -1.5274828    1.4542253  
C   -0.9436862   -0.7911793    3.5655508  
O   -1.9197945   -1.6098497    4.0950179  
C   -0.0590329   -0.0485852    4.3195194  
H    2.2150357    1.8593692    5.0905303  
H    2.1533708    1.7953814    0.8841339  
H   -2.3621246   -1.9821033    2.1118817  
H   -1.8668290   -1.5649508    5.0545920  
H   -0.1007624   -0.0827977    5.4019087  
H    3.3491200    2.8096064    2.8367138  
