62

C    1.3818833   -0.0017554   -7.7891201  
C    0.2668244   -0.0011602   -6.9834458  
C   -0.8696590   -0.0018147   -7.8454230  
C   -0.3818455   -0.0030962   -9.1773247  
N    0.9891703   -0.0010750   -9.1071206  
C   -1.2259621   -0.0043218  -10.2918900  
C   -2.5873235   -0.0045594  -10.0576392  
O   -3.4566929   -0.0060904  -11.1098794  
C   -3.0933047   -0.0029198   -8.7359751  
O   -4.4712631   -0.0029725   -8.6683232  
C   -2.2611505   -0.0014370   -7.6359556  
H    0.2719264    0.0007517   -5.9068941  
H    1.6106710   -0.0119325   -9.8955369  
H   -0.8604462   -0.0051577  -11.3095341  
H   -4.3449863   -0.0056865  -10.7301434  
H   -4.7302857   -0.0018406   -7.7417652  
H   -2.6778177   -0.0000174   -6.6355236  
C    3.2973507   -0.0000930   -3.8752373  
C    4.6109359    0.0001678   -4.2009256  
C    4.6367192   -0.0000875   -5.6555166  
C    3.2125791   -0.0006167   -6.0535225  
N    2.4227565   -0.0005416   -5.0142106  
C    2.8079496   -0.0009504   -7.4324213  
C    3.7817669   -0.0003747   -8.3710449  
O    3.5485409   -0.0006029   -9.6945421  
C    5.2278966    0.0005392   -8.0010877  
O    6.0602351    0.0009033   -8.9079689  
C    5.6174383    0.0008222   -6.5797568  
H    5.4578080    0.0005837   -3.5361827  
H    4.4333804   -0.0000282  -10.1022325  
H    6.6752631    0.0016047   -6.3534027  
C    3.3321175    0.0004715   -1.3379331  
C    2.6974186    0.0000117   -2.5332308  
C    1.2800441   -0.0002117   -2.2052838  
C    1.2395036    0.0000644   -0.7271292  
N    2.4394065    0.0005460   -0.2131033  
C    0.0000000    0.0000000    0.0000000  
C   -1.1468701    0.0000635   -0.7169542  
O   -2.3742199    0.0000073   -0.1695491  
C   -1.1388766    0.0001607   -2.2096354  
O   -2.2206227    0.0000905   -2.7970412  
C    0.1454526    0.0001817   -2.9324239  
H   -2.9844344    0.0001026   -0.9290168  
H    0.1083579    0.0003683   -4.0135594  
H    4.3940038    0.0007619   -1.1498630  
C    0.0000000    0.0000000    1.4700000  
C    1.0521667    0.0011902    2.3562342  
C    0.4917218    0.0011957    3.6679131  
C   -0.9187428   -0.0003148    3.5178682  
N   -1.1833171    0.0009411    2.1707914  
C   -1.7951701   -0.0010350    4.6072090  
C   -1.2375837   -0.0005224    5.8710424  
O   -2.0474215   -0.0015360    6.9697579  
C    0.1673580    0.0013566    6.0411963  
O    0.5673524    0.0020687    7.3615553  
C    1.0325770    0.0023412    4.9669890  
H    2.0953057    0.0030649    2.0900562  
H   -2.0989778   -0.0102372    1.7591824  
H   -2.8710934   -0.0020419    4.4995513  
H   -1.4634884   -0.0006497    7.7393593  
H    1.5290710    0.0033153    7.3880045  
H    2.1042148    0.0039609    5.1284455  
