60

C    5.2213250   -3.2664245   -9.4591702  
C    5.4347941   -2.5008544  -10.5820240  
C    5.0785431   -1.1610676  -10.2463804  
C    4.6515101   -1.1703529   -8.8937972  
N    4.7488621   -2.4646368   -8.4466175  
C    4.2255539   -0.0174879   -8.2272746  
C    4.2310686    1.1663692   -8.9390542  
O    3.8253046    2.3219805   -8.3366169  
C    4.6532710    1.1958307  -10.2894962  
O    4.6007863    2.4503943  -10.8610357  
C    5.0733602    0.0588395  -10.9477535  
H    5.8010611   -2.8636441  -11.5271309  
H    4.5238223   -2.7767333   -7.5192919  
H    3.9058890    3.0189621   -9.0006851  
H    4.9020431    2.3823627  -11.7722004  
H    5.3909301    0.1123083  -11.9825330  
H    5.3673475   -4.3212144   -9.3008855  
C    5.7035978   -2.1123453   -4.6323633  
C    5.5262381   -1.6495157   -5.8966447  
C    4.3945378   -0.7534734   -5.8620417  
C    3.9237597   -0.7320394   -4.4639367  
N    4.7591254   -1.5766811   -3.7699389  
C    2.8699641   -0.0020530   -4.0185824  
C    2.1513543    0.8170173   -4.9804860  
O    1.1888858    1.5100764   -4.6777910  
C    2.6323971    0.8093816   -6.4665363  
O    2.0350149    1.4947731   -7.2854586  
C    3.7812680   -0.0180953   -6.8260217  
H    6.1202750   -1.9066250   -6.7554977  
H    6.4446788   -2.7998490   -4.2581598  
H    4.6940936   -1.7721471   -2.7877924  
C    3.2573670   -0.0002921   -1.5109382  
C    2.5379468   -0.0001711   -0.3591962  
C    1.1435043    0.0000330   -0.7338498  
C    1.1092608   -0.0000085   -2.2088474  
N    2.4227562    0.0001906   -2.6182610  
C   -0.0265533   -0.0002525   -2.9515663  
C   -1.3003033   -0.0002641   -2.2514979  
O   -2.3786785   -0.0004132   -2.8306425  
C   -1.2877724    0.0000310   -0.6895608  
O   -2.3539956    0.0003306   -0.0892035  
C    0.0000000    0.0000000    0.0000000  
H    2.9384091   -0.0000370    0.6389240  
H   -0.0296290   -0.0004088   -4.0327231  
H    4.3270394   -0.0004767   -1.6439445  
C    0.8400945    0.7047457    2.2710304  
C    0.0000000    0.0000000    1.4700000  
C   -0.8844236   -0.7423113    2.3369512  
C   -0.4878984   -0.4098547    3.7186280  
N    0.5629682    0.4714286    3.6095011  
C   -1.0836927   -0.9095027    4.8308716  
C   -2.1891196   -1.8367527    4.6554461  
O   -2.7906899   -2.3413415    5.5944904  
C   -2.6257283   -2.2031529    3.2011665  
O   -3.5549479   -2.9829990    3.0410059  
C   -1.9068976   -1.5999348    2.0816745  
H   -0.7774656   -0.6525820    5.8354244  
H   -2.2155208   -1.8586617    1.0779135  
H    1.6384792    1.3747609    1.9961646  
H    1.0518368    0.8833920    4.3830260  
