62

C   10.1524211   -2.1247851   -0.3017439  
C    9.1571271   -1.6625262   -1.1313065  
C    9.7711888   -0.7749711   -2.0639237  
C   11.1542882   -0.7351021   -1.7518804  
N   11.3513564   -1.5644221   -0.6757715  
C   12.0693758    0.0411828   -2.4693658  
C   11.5793544    0.7906423   -3.5212056  
O   12.4293118    1.5662209   -4.2554151  
C   10.2025848    0.7643658   -3.8477471  
O    9.8704882    1.5651264   -4.9209843  
C    9.2992109   -0.0010180   -3.1401940  
H    8.1163392   -1.9310502   -1.0709128  
H   12.2361194   -1.7459788   -0.2373514  
H   13.1247222    0.0760262   -2.2364847  
H   11.8899885    1.9994115   -4.9297596  
H    8.9238198    1.4899117   -5.0751443  
H   10.1017157   -2.8087663    0.5280497  
C    5.6463485   -0.0007503   -0.7029966  
C    4.7161325   -0.0005435   -1.6923264  
C    5.4339821   -0.0003284   -2.9451344  
C    6.8689502   -0.0004569   -2.6021234  
N    6.9298893   -0.0003136   -1.2276504  
C    7.8767468   -0.0007182   -3.5109967  
C    7.5246265   -0.0006576   -4.9211552  
O    8.3596092   -0.0008157   -5.8161993  
C    6.0111289   -0.0002696   -5.3073303  
O    5.7025043    0.0000911   -6.4913959  
C    5.0159839   -0.0002906   -4.2379667  
H    3.9702004   -0.0002260   -4.5137576  
H    5.5021930   -0.0009683    0.3652304  
H    7.7763881   -0.0019094   -0.6886838  
C    3.2573665   -0.0002920   -1.5109385  
C    2.5379463   -0.0001709   -0.3591964  
C    1.1435038    0.0000331   -0.7338500  
C    1.1092599   -0.0000083   -2.2088477  
N    2.4227553    0.0001909   -2.6182613  
C   -0.0265539   -0.0002524   -2.9515660  
C   -1.3003040   -0.0002640   -2.2514977  
O   -2.3786790   -0.0004133   -2.8306421  
C   -1.2877727    0.0000311   -0.6895603  
O   -2.3539959    0.0003306   -0.0892030  
C    0.0000000    0.0000000    0.0000000  
H    2.9384091   -0.0000367    0.6389234  
H   -0.0296303   -0.0004086   -4.0327229  
H    2.7280482   -0.0013407   -3.5742119  
C    2.5285572    2.1210227    2.9438989  
C    1.9331703    1.6216660    4.0790748  
C    0.8903039    0.7472258    3.6520102  
C    0.8972198    0.7527806    2.2336141  
N    1.9028376    1.5986179    1.8362361  
C    0.0000000    0.0000000    1.4700000  
C   -0.9207814   -0.7726952    2.1506477  
O   -1.8198395   -1.5274828    1.4542253  
C   -0.9436862   -0.7911793    3.5655508  
O   -1.9197945   -1.6098497    4.0950179  
C   -0.0590329   -0.0485852    4.3195194  
H    2.2150357    1.8593692    5.0905303  
H    2.1533708    1.7953814    0.8841339  
H   -2.3621246   -1.9821033    2.1118817  
H   -1.8668290   -1.5649508    5.0545920  
H   -0.1007624   -0.0827977    5.4019087  
H    3.3491200    2.8096064    2.8367138  
