60

C    4.9133809   -0.0003963   -7.2651735  
C    3.6468438    0.0006571   -7.8021558  
C    3.7960491    0.0006710   -9.2207250  
C    5.1881316   -0.0006936   -9.4928098  
N    5.8377679    0.0006373   -8.2834352  
C    5.7047921   -0.0013659  -10.7919830  
C    4.7996642   -0.0009545  -11.8354967  
O    5.2499280   -0.0019271  -13.1240143  
C    3.4069366    0.0007786  -11.5842549  
O    2.6357578    0.0014032  -12.7282087  
C    2.8965286    0.0017158  -10.3028461  
H    2.7283936    0.0024376   -7.2405162  
H    6.8340487   -0.0104350   -8.1598096  
H    6.7646912   -0.0022618  -11.0060307  
H    4.4652058   -0.0011268  -13.6874635  
H    1.7089180    0.0025530  -12.4701963  
H    1.8248784    0.0032230  -10.1414732  
C    2.5562217   -0.0001551   -3.6003001  
C    3.5148522   -0.0005087   -2.6449957  
C    4.7727386   -0.0006027   -3.3759006  
C    4.3760680   -0.0003759   -4.8004136  
N    3.0779895   -0.0000323   -4.9381840  
C    5.3463906   -0.0003432   -5.8603952  
C    6.6535653   -0.0001396   -5.5130783  
O    7.6652130   -0.0000934   -6.3977298  
C    7.0856170    0.0000107   -4.0842703  
O    8.2923969    0.0000694   -3.8415706  
C    6.0711795   -0.0000701   -3.0152331  
H    3.3844832   -0.0005935   -1.5763148  
H    8.4720653    0.0000901   -5.8517054  
H    6.4250923    0.0001591   -1.9929925  
C    0.0000000    0.0000000    0.0000000  
C    1.0541688   -0.0001722   -0.8560390  
C    0.5103141   -0.0000453   -2.1935955  
C   -0.9576367    0.0002460   -2.0455731  
N   -1.2018459   -0.0001392   -0.6915969  
C   -1.8348307    0.0008318   -3.0810611  
C   -1.2972843    0.0009738   -4.4314606  
O   -2.0050665    0.0014267   -5.4301321  
C    0.2542628    0.0004186   -4.6117570  
O    0.7184676    0.0002258   -5.7439117  
C    1.0974555    0.0000874   -3.4189127  
H    2.0940752   -0.0005483   -0.5817978  
H   -2.9081051    0.0011670   -2.9507061  
H   -2.1128194    0.0014912   -0.2706792  
C    3.2798086   -0.0005857    2.9199648  
C    2.5571146   -0.0005566    4.0696553  
C    1.1637436   -0.0001548    3.6910360  
C    1.1336965    0.0000200    2.2159470  
N    2.4483514    0.0001428    1.8102719  
C    0.0000000    0.0000000    1.4700000  
C   -1.2757367    0.0000186    2.1664417  
O   -2.3524596    0.0000640    1.5842315  
C   -1.2676493    0.0000873    3.7284083  
O   -2.3355761    0.0004100    4.3257297  
C    0.0181563   -0.0001760    4.4216297  
H    2.9547357   -0.0006076    5.0689105  
H    0.0150794   -0.0003319    5.5031631  
H    4.3498549   -0.0008612    2.7900019  
H    2.7563627   -0.0012824    0.8551938  
