60

C    5.8167891   -2.1226507   -1.4914122  
C    7.0948690   -1.6250534   -1.3847529  
C    7.2960463   -0.7526763   -2.4951967  
C    6.0958608   -0.7576178   -3.2511445  
N    5.2192884   -1.6011246   -2.6149569  
C    5.9347405   -0.0064451   -4.4192921  
C    7.0045855    0.7639822   -4.8316633  
O    6.9011339    1.5171293   -5.9652776  
C    8.2104311    0.7818202   -4.0910994  
O    9.1825350    1.5981676   -4.6314101  
C    8.3701801    0.0408110   -2.9387485  
H    7.7963219   -1.8625771   -0.6033824  
H    4.2813072   -1.7969475   -2.9146658  
H    7.7478227    1.9703063   -6.0702194  
H    9.9634521    1.5529779   -4.0712936  
H    9.3056740    0.0744772   -2.3926754  
H    5.2846303   -2.8094236   -0.8557177  
C    1.6707638   -0.0012342   -3.2725973  
C    3.0286798   -0.0026497   -3.2608754  
C    3.4615715   -0.0042631   -4.6383503  
C    2.2357551   -0.0036379   -5.4594252  
N    1.1849520   -0.0021879   -4.5713376  
C    2.2192692   -0.0043573   -6.8164192  
C    3.4939025   -0.0060727   -7.5148770  
O    3.5845469   -0.0068913   -8.7355670  
C    4.8047158   -0.0070127   -6.6654228  
O    5.8837814   -0.0087640   -7.2423773  
C    4.6947481   -0.0058250   -5.2087974  
H    3.6555461   -0.0027549   -2.3870034  
H    1.3089303   -0.0037484   -7.3996804  
H    0.2146124    0.0000900   -4.8272345  
C    1.0965515    0.0001359   -0.8010305  
C    0.0000000    0.0000000    0.0000000  
C   -1.1546564    0.0001470   -0.8669509  
C   -0.6372018    0.0003521   -2.2486279  
N    0.7342868    0.0007339   -2.1395011  
C   -1.4147743    0.0001355   -3.3608714  
C   -2.8576049   -0.0001046   -3.1854455  
O   -3.6427782   -0.0002491   -4.1244898  
C   -3.4275842   -0.0000725   -1.7311664  
O   -4.6406831    0.0000334   -1.5710053  
C   -2.4891868   -0.0001091   -0.6116742  
H   -1.0150456    0.0001619   -4.3654242  
H   -2.8919123   -0.0002920    0.3920869  
H    2.1388270    0.0000663   -0.5261648  
C    0.8681109    0.7263879    2.2709268  
C    0.6127770    0.5096195    3.5869401  
C   -0.4920590   -0.4175482    3.6542670  
C   -0.8620974   -0.7254003    2.2596025  
N    0.0000000    0.0000000    1.4700000  
C   -1.8641242   -1.5660088    1.8976294  
C   -2.6293522   -2.2103885    2.9520183  
O   -3.5512764   -2.9839180    2.7283916  
C   -2.2549728   -1.8987399    4.4361073  
O   -2.8923672   -2.4351063    5.3323774  
C   -1.1543735   -0.9755647    4.7012123  
H    1.1382914    0.9492124    4.4159191  
H   -2.1192137   -1.7782617    0.8686553  
H   -0.9013378   -0.7652422    5.7314848  
H    1.6172880    1.3558399    1.8188057  
