64

C    0.1177593   -0.7041729   -5.1422752  
C    0.3059621   -0.4523686   -6.4815442  
C   -0.7176648    0.4566396   -6.8821590  
C   -1.5071132    0.7263226   -5.7350021  
N   -0.9736290    0.0040453   -4.6965765  
C   -2.6097123    1.5856274   -5.7606864  
C   -2.9208562    2.1838179   -6.9663129  
O   -3.9871529    3.0320119   -7.0475024  
C   -2.1454315    1.9270114   -8.1219873  
O   -2.5829240    2.5979303   -9.2452908  
C   -1.0577180    1.0791885   -8.0974451  
H    1.0845206   -0.8730629   -7.0946165  
H   -3.2155191    1.7952110   -4.8898970  
H   -4.0265647    3.3340946   -7.9642674  
H   -2.0055182    2.3694982   -9.9801553  
H    0.6748221   -1.3340384   -4.4700332  
C    1.1188645    0.0008220   -0.8003804  
C    0.0000000    0.0000000    0.0000000  
C   -1.1323860    0.0008895   -0.8673535  
C   -0.6382657    0.0019672   -2.1969285  
N    0.7324021    0.0038478   -2.1202242  
C   -1.4770910    0.0027308   -3.3154809  
C   -2.8395468    0.0020930   -3.0876863  
O   -3.7039195    0.0024408   -4.1440354  
C   -3.3517864    0.0013917   -1.7684338  
O   -4.7300494    0.0012352   -1.7073128  
C   -2.5248542    0.0009113   -0.6644820  
H    1.3576321   -0.0056170   -2.9057044  
H   -4.5940027    0.0021808   -3.7685137  
H   -4.9934599    0.0007245   -0.7819923  
H   -2.9462577    0.0005594    0.3339655  
H    2.1619897    0.0009359   -0.5342067  
C    0.2364984   -0.3746771   -9.7153956  
C   -0.2778197    0.8384275   -9.3200211  
C    0.0930362    1.7917967  -10.3140797  
C    0.8386424    1.0963269  -11.3001425  
N    0.9085488   -0.2164674  -10.9047933  
C    1.3660128    1.7245945  -12.4323747  
C    1.1362579    3.0795596  -12.5718742  
O    1.6282441    3.7426438  -13.6587428  
C    0.3950054    3.7909372  -11.5985796  
O    0.2528277    5.1339852  -11.8802716  
C   -0.1253248    3.1718355  -10.4812182  
H    1.3670197   -0.9516810  -11.4119885  
H    1.9352622    1.2002041  -13.1874724  
H    1.3580023    4.6649944  -13.5612523  
H   -0.2594758    5.5402109  -11.1744887  
H   -0.6888573    3.7428811   -9.7526468  
H    0.1783413   -1.3399808   -9.2423570  
C    0.0000000    0.0000000    1.4700000  
C    1.0662921    0.0000102    2.3034270  
C    0.4961870   -0.0000064    3.6418889  
C   -0.9663858    0.0000850    3.4240247  
N   -1.2632773    0.0000084    2.1528658  
C   -1.8985362    0.0000517    4.5177257  
C   -1.3925775   -0.0004564    5.7720543  
O   -2.1456383   -0.0005410    6.8851312  
C    0.0786232   -0.0009323    6.0245000  
O    0.4683759   -0.0012588    7.1921102  
C    1.0143166   -0.0008442    4.8859032  
H    2.1107198   -0.0000632    2.0421868  
H   -2.9622183    0.0003270    4.3293377  
H   -1.5042274   -0.0009692    7.6184419  
H    2.0724152   -0.0013148    5.1109744  
