60

C    9.4704717   -0.7106292    2.1680561  
C   10.8181437   -0.4605573    2.2851643  
C   11.1652679    0.4478449    1.2416559  
C    9.9783358    0.7189609    0.5139100  
N    8.9686256   -0.0019180    1.1016476  
C    9.9468166    1.5781427   -0.5886336  
C   11.1350862    2.1747349   -0.9631617  
O   11.1608986    3.0227361   -2.0323857  
C   12.3297996    1.9164830   -0.2498717  
O   13.4292766    2.5859007   -0.7462308  
C   12.3616876    1.0687805    0.8377450  
H   11.4709655   -0.8819884    3.0302895  
H    9.0454941    1.7888137   -1.1475946  
H   12.0746895    3.3236195   -2.1202481  
H   14.1933379    2.3565565   -0.2084433  
H   13.2919124    0.8901540    1.3642908  
H    8.8277991   -1.3395724    2.7599689  
C    6.4550012   -0.0009257    1.4492347  
C    7.5628472   -0.0014711    0.6718947  
C    7.0625116   -0.0013727   -0.6941817  
C    5.5906513   -0.0008360   -0.5520181  
N    5.2286132   -0.0004914    0.7021423  
C    4.7161325   -0.0005435   -1.6923264  
C    5.2860919   -0.0003878   -2.9188993  
O    4.5914235   -0.0001202   -4.0693237  
C    6.7683520   -0.0005475   -3.0951535  
O    7.2177891   -0.0005157   -4.2411146  
C    7.6440945   -0.0008911   -1.9098263  
H    5.2697909   -0.0000405   -4.7685876  
H    8.7123899   -0.0008824   -2.0800423  
H    6.3993982   -0.0008021    2.5262129  
C    3.2573665   -0.0002920   -1.5109385  
C    2.5379463   -0.0001709   -0.3591964  
C    1.1435038    0.0000331   -0.7338500  
C    1.1092599   -0.0000083   -2.2088477  
N    2.4227553    0.0001909   -2.6182613  
C   -0.0265539   -0.0002524   -2.9515660  
C   -1.3003040   -0.0002640   -2.2514977  
O   -2.3786790   -0.0004133   -2.8306421  
C   -1.2877727    0.0000311   -0.6895603  
O   -2.3539959    0.0003306   -0.0892030  
C    0.0000000    0.0000000    0.0000000  
H    2.9384091   -0.0000367    0.6389234  
H   -0.0296303   -0.0004086   -4.0327229  
H    2.7280482   -0.0013407   -3.5742119  
C    0.8175213    0.6860729    2.3021913  
C    0.0000000    0.0000000    1.4700000  
C   -0.8887526   -0.7456559    2.3478473  
C   -0.4549825   -0.3816753    3.7138435  
N    0.5448156    0.4573574    3.6934124  
C   -1.0945674   -0.9182058    4.8835240  
C   -2.1210866   -1.7789155    4.6970523  
O   -2.8083856   -2.3554314    5.6976972  
C   -2.5824069   -2.1655116    3.3310774  
O   -3.5227682   -2.9541547    3.2362962  
C   -1.9100805   -1.6015804    2.1470656  
H   -0.7567140   -0.6349833    5.8697035  
H   -3.4728268   -2.9124471    5.2533954  
H   -2.2742832   -1.9066565    1.1752040  
H    1.6189533    1.3585343    2.0405121  
