64

C   -7.6598464   -0.0128205   -2.5743482  
C   -8.4640379    0.6635908   -1.6865354  
C   -9.8109929    0.3023948   -1.9862830  
C   -9.7660083   -0.6051004   -3.0754822  
N   -8.4449959   -0.7731210   -3.4091133  
C  -10.9150337   -1.1697490   -3.6373553  
C  -12.1316136   -0.8120006   -3.0895155  
O  -13.2850191   -1.3340871   -3.5995107  
C  -12.1970439    0.0922121   -2.0028070  
O  -13.4815615    0.3487907   -1.5697683  
C  -11.0639267    0.6498485   -1.4481773  
H   -8.1219966    1.3356223   -0.9181769  
H   -8.1024392   -1.3698267   -4.1402616  
H  -10.8874953   -1.8618942   -4.4676441  
H  -14.0077852   -0.9587350   -3.0799088  
H  -13.4367503    0.9677873   -0.8346228  
H  -11.1453646    1.3396668   -0.6163138  
C   -4.5109061    2.0977187   -0.3577878  
C   -3.4201849    1.6341429   -1.0207351  
C   -3.9001610    0.7380705   -2.0461681  
C   -5.3704639    0.7174770   -1.9254394  
N   -5.6768567    1.5619484   -0.8833829  
C   -6.1968217   -0.0116750   -2.7173828  
C   -5.5981518   -0.8310167   -3.7579633  
O   -6.2573276   -1.5234766   -4.5223513  
C   -4.0429941   -0.8246549   -3.9037354  
O   -3.5275665   -1.5107550   -4.7760092  
C   -3.2578655    0.0024282   -2.9908505  
H   -2.3962310    1.8904974   -0.8147871  
H   -4.5610337    2.7855090    0.4706575  
H   -6.6046839    1.7602438   -0.5564856  
C    0.0000000    0.0000000    0.0000000  
C    1.0521666   -0.0011982   -0.8862343  
C    0.4917215   -0.0011996   -2.1979132  
C   -0.9187429    0.0003215   -2.0478682  
N   -1.1833171   -0.0009323   -0.7007913  
C   -1.7951703    0.0010483   -3.1372089  
C   -1.2375841    0.0005313   -4.4010422  
O   -2.0474218    0.0015510   -5.4997578  
C    0.1673576   -0.0013585   -4.5711963  
O    0.5673520   -0.0020735   -5.8915554  
C    1.0325768   -0.0023493   -3.4969892  
H    2.0953056   -0.0030808   -0.6200564  
H   -2.0989778    0.0102529   -0.2891822  
H   -1.4634888    0.0006601   -6.2693595  
H    1.5290707   -0.0033271   -5.9180047  
H    2.1042146   -0.0039770   -3.6584456  
C    0.0000000    0.0000000    1.4700000  
C    1.0521667    0.0011902    2.3562342  
C    0.4917218    0.0011957    3.6679131  
C   -0.9187428   -0.0003148    3.5178682  
N   -1.1833171    0.0009411    2.1707914  
C   -1.7951701   -0.0010350    4.6072090  
C   -1.2375837   -0.0005224    5.8710424  
O   -2.0474215   -0.0015360    6.9697579  
C    0.1673580    0.0013566    6.0411963  
O    0.5673524    0.0020687    7.3615553  
C    1.0325770    0.0023412    4.9669890  
H    2.0953057    0.0030649    2.0900562  
H   -2.0989778   -0.0102372    1.7591824  
H   -2.8710934   -0.0020419    4.4995513  
H   -1.4634884   -0.0006497    7.7393593  
H    1.5290710    0.0033153    7.3880045  
H    2.1042148    0.0039609    5.1284455  
