60

C    5.6484568    0.0004439   -0.6807742  
C    4.7161324   -0.0005436   -1.6923263  
C    5.4371285   -0.0001080   -2.9230842  
C    6.8175142    0.0008760   -2.5968006  
N    6.9105273    0.0031395   -1.2271436  
C    7.8240137    0.0012220   -3.5672374  
C    7.4298413    0.0002555   -4.8911726  
O    8.3714604    0.0001894   -5.8792857  
C    6.0574641   -0.0003586   -5.2367109  
O    5.8267423   -0.0008767   -6.5968982  
C    5.0639869   -0.0004269   -4.2798782  
H    7.7671531   -0.0062908   -0.7036119  
H    8.8778481    0.0021150   -3.3250882  
H    7.8889788   -0.0002466   -6.7162298  
H    4.8759898   -0.0013000   -6.7441177  
H    4.0211717   -0.0007220   -4.5748589  
H    5.5130312    0.0008845    0.3872233  
C    3.2573666   -0.0002920   -1.5109384  
C    2.5379463   -0.0001710   -0.3591964  
C    1.1435039    0.0000331   -0.7338498  
C    1.1092600   -0.0000083   -2.2088476  
N    2.4227554    0.0001909   -2.6182613  
C   -0.0265538   -0.0002524   -2.9515660  
C   -1.3003040   -0.0002640   -2.2514976  
O   -2.3786789   -0.0004133   -2.8306420  
C   -1.2877727    0.0000311   -0.6895603  
O   -2.3539960    0.0003306   -0.0892032  
C    0.0000000    0.0000000    0.0000000  
H    2.9384090   -0.0000368    0.6389236  
H    2.7280484   -0.0013407   -3.5742118  
C    2.5185197   -2.1418787   -5.7664439  
C    2.0285751   -1.7344767   -6.9604107  
C    0.9435035   -0.8236412   -6.6295062  
C    0.9168287   -0.7971605   -5.1512735  
N    1.8378554   -1.5679056   -4.6397551  
C   -0.0307367   -0.0004647   -4.4215603  
C   -0.9113618    0.7365841   -5.1361181  
O   -1.8501224    1.5254491   -4.5861534  
C   -0.9094229    0.7313056   -6.6288095  
O   -1.7398736    1.4264151   -7.2139554  
C    0.0724681   -0.0942327   -7.3542759  
H    2.3623416   -2.0170713   -7.9441870  
H   -2.3197121    1.9176026   -5.3443445  
H    0.0410931   -0.0704048   -8.4353302  
H    3.3327608   -2.8241129   -5.5805912  
C    2.5528530    2.1414826    2.8079335  
C    2.0663498    1.7338582    4.0032312  
C    0.9804344    0.8229586    3.6752840  
C    0.9495562    0.7966882    2.1971295  
N    1.8690446    1.5676019    1.6831036  
C    0.0000000    0.0000000    1.4700000  
C   -0.8785127   -0.7372425    2.1869543  
O   -1.8187535   -1.5261249    1.6395491  
C   -0.8723269   -0.7321790    3.6796354  
O   -1.7010379   -1.4274584    4.2670412  
C    0.1115397    0.0933559    4.4024240  
H    2.4028853    2.0163452    4.9860947  
H   -2.2861435   -1.9184361    2.3990168  
H    0.0832434    0.0693689    5.4835595  
H    3.3664920    2.8238276    2.6198634  
