64

C    1.4282659   -3.0971827  -10.1191561  
C    1.6386569   -2.2956105  -11.2171934  
C    1.2682110   -0.9701764  -10.8422331  
C    0.8360892   -1.0249166   -9.4923445  
N    0.9442006   -2.3312935   -9.0845343  
C    0.3964725    0.1029018   -8.7926644  
C    0.3933053    1.3079855   -9.4678991  
O   -0.0259008    2.4407027   -8.8321055  
C    0.8203938    1.3827801  -10.8150508  
O    0.7580087    2.6536902  -11.3481907  
C    1.2539581    0.2705187  -11.5060074  
H    2.0120375   -2.6258025  -12.1714225  
H    0.7186173   -2.6737521   -8.1681195  
H    0.0505106    3.1584160   -9.4742228  
H    1.0634090    2.6164471  -12.2597535  
H    1.5749746    0.3586516  -12.5373461  
H    1.5838457   -4.1548838   -9.9925814  
C    1.9074111   -2.1157064   -5.2171226  
C    1.7366764   -1.6153232   -6.4871355  
C    0.6103638   -0.7412450   -6.4423320  
C    0.1310751   -0.7480684   -5.1073552  
N    0.9400195   -1.5942802   -4.3903116  
C   -0.9736297    0.0040464   -4.6965763  
C   -1.6058300    0.7773677   -5.6507641  
O   -2.6892500    1.5315498   -5.3037413  
C   -1.1427634    0.7971177   -6.9879239  
O   -1.8787359    1.6162801   -7.8189843  
C   -0.0531715    0.0551811   -7.3939361  
H    2.3479777   -1.8521270   -7.3410843  
H    0.8493709   -1.7918998   -3.4101531  
H   -2.9736280    1.9867685   -6.1069653  
H   -1.5003155    1.5722385   -8.7024216  
H    2.6418355   -2.8044014   -4.8359674  
C    1.1188642    0.0008222   -0.8003808  
C    0.0000000    0.0000000    0.0000000  
C   -1.1323862    0.0008899   -0.8673528  
C   -0.6382663    0.0019679   -2.1969280  
N    0.7324016    0.0038481   -2.1202242  
C   -1.4770914    0.0027318   -3.3154808  
C   -2.8395473    0.0020945   -3.0876857  
O   -3.7039201    0.0024425   -4.1440349  
C   -3.3517868    0.0013931   -1.7684331  
O   -4.7300497    0.0012366   -1.7073121  
C   -2.5248543    0.0009123   -0.6644817  
H    1.3576314   -0.0056167   -2.9057046  
H   -4.5940032    0.0021826   -3.7685128  
H   -4.9934602    0.0007259   -0.7819913  
H   -2.9462577    0.0005603    0.3339659  
H    2.1619895    0.0009355   -0.5342068  
C    0.8400945    0.7047457    2.2710304  
C    0.0000000    0.0000000    1.4700000  
C   -0.8844236   -0.7423113    2.3369512  
C   -0.4878984   -0.4098547    3.7186280  
N    0.5629682    0.4714286    3.6095011  
C   -1.0836927   -0.9095027    4.8308716  
C   -2.1891196   -1.8367527    4.6554461  
O   -2.7906899   -2.3413415    5.5944904  
C   -2.6257283   -2.2031529    3.2011665  
O   -3.5549479   -2.9829990    3.0410059  
C   -1.9068976   -1.5999348    2.0816745  
H   -0.7774656   -0.6525820    5.8354244  
H   -2.2155208   -1.8586617    1.0779135  
H    1.6384792    1.3747609    1.9961646  
H    1.0518368    0.8833920    4.3830260  
