66

C    1.9780880   -1.9418910   -8.4197065  
C    2.9425052   -2.7728564   -8.9411130  
C    2.8114476   -2.7235507  -10.3606164  
C    1.7414664   -1.8382696  -10.6493090  
N    1.2565321   -1.3829263   -9.4484259  
C    1.3304248   -1.5487788  -11.9539265  
C    2.0121349   -2.1639497  -12.9859218  
O    1.6523337   -1.9164787  -14.2791008  
C    3.0821310   -3.0506095  -12.7180399  
O    3.6597943   -3.5832900  -13.8520156  
C    3.4879987   -3.3368725  -11.4312420  
H    3.6523543   -3.3451080   -8.3687183  
H    0.5009774   -0.7311989   -9.3372079  
H    0.5155936   -0.8750814  -12.1806095  
H    2.2470709   -2.4389915  -14.8327568  
H    4.3729264   -4.1703750  -13.5829853  
H    4.3108340   -4.0203015  -11.2570414  
C    2.3136488   -2.1180444   -5.9171369  
C    1.6624057   -1.6181594   -7.0209780  
C    0.6419643   -0.7441447   -6.5420234  
C    0.7194929   -0.7504913   -5.1257342  
N    1.7437761   -1.5963711   -4.7793978  
C   -0.1387079    0.0017019   -4.3179684  
C   -1.0923525    0.7746132   -4.9514888  
O   -1.9557351    1.5288505   -4.2107386  
C   -1.1856781    0.7938843   -6.3634860  
O   -2.1870610    1.6126762   -6.8432329  
C   -0.3395497    0.0518700   -7.1609864  
H    2.0414325   -1.7936220   -3.8410621  
H   -2.5301601    1.9837417   -4.8403217  
H   -2.1819306    1.5683232   -7.8042790  
H   -0.4351236    0.0866802   -8.2399366  
H    3.1386344   -2.8065415   -5.8513302  
C    3.3041273    0.0001178   -1.5420428  
C    2.5845373   -0.0004780   -0.3695851  
C    1.2040007   -0.0000007   -0.7283589  
C    1.1422374    0.0006038   -2.1454372  
N    2.4348641    0.0026111   -2.6077464  
C   -0.0655179    0.0008799   -2.8497918  
C   -1.2321766    0.0002325   -2.1101402  
O   -2.4392814    0.0001148   -2.7472522  
C   -1.1911209   -0.0000007   -0.6955266  
O   -2.4371528   -0.0002320   -0.1032862  
C    0.0000000    0.0000000    0.0000000  
H    3.0031533   -0.0000660    0.6222584  
H    2.7054631   -0.0071097   -3.5745261  
H   -3.1132988   -0.0000648   -2.0551787  
H   -2.3200282   -0.0004072    0.8516409  
H    4.3686625    0.0004073   -1.7024290  
C    2.5285572    2.1210227    2.9438989  
C    1.9331703    1.6216660    4.0790748  
C    0.8903039    0.7472258    3.6520102  
C    0.8972198    0.7527806    2.2336141  
N    1.9028376    1.5986179    1.8362361  
C    0.0000000    0.0000000    1.4700000  
C   -0.9207814   -0.7726952    2.1506477  
O   -1.8198395   -1.5274828    1.4542253  
C   -0.9436862   -0.7911793    3.5655508  
O   -1.9197945   -1.6098497    4.0950179  
C   -0.0590329   -0.0485852    4.3195194  
H    2.2150357    1.8593692    5.0905303  
H    2.1533708    1.7953814    0.8841339  
H   -2.3621246   -1.9821033    2.1118817  
H   -1.8668290   -1.5649508    5.0545920  
H   -0.1007624   -0.0827977    5.4019087  
H    3.3491200    2.8096064    2.8367138  
