64

C    5.9055105   -1.0762179   -2.9610486  
C    6.0986232   -1.9621221   -1.9264725  
C    7.4997472   -2.2196708   -1.8549125  
C    8.1160941   -1.4563332   -2.8792947  
N    7.1194121   -0.7753303   -3.5331126  
C    9.4962056   -1.4654531   -3.1028974  
C   10.2682142   -2.2593902   -2.2771587  
O   11.6211978   -2.3052045   -2.4513682  
C    9.6716914   -3.0284831   -1.2497965  
O   10.5743233   -3.7673646   -0.5131471  
C    8.3102144   -3.0201811   -1.0288066  
H    5.3246975   -2.3731198   -1.3010829  
H    7.2557081   -0.1435701   -4.3014118  
H    9.9720810   -0.8860572   -3.8820286  
H   11.9625553   -2.9105466   -1.7803228  
H   10.0900831   -4.2570086    0.1586894  
H    7.8818924   -3.6199014   -0.2342289  
C    3.4043356   -0.7242389   -2.9869841  
C    2.4861704   -0.0045255   -3.7159919  
C    3.2157604    0.7227065   -4.7026185  
C    4.5865270    0.4039559   -4.5256371  
N    4.6659996   -0.4754876   -3.4745040  
C    5.5977279    0.9420306   -5.3273462  
C    5.2182041    1.8176016   -6.3261032  
O    6.1649636    2.3718711   -7.1381655  
C    3.8556310    2.1482716   -6.5181120  
O    3.6391791    3.0341224   -7.5533706  
C    2.8575500    1.6180360   -5.7274084  
H    6.6442992    0.7032256   -5.1974919  
H    5.6928644    2.9443333   -7.7567723  
H    2.6943224    3.2044170   -7.6154168  
H    1.8225157    1.8901111   -5.8981659  
H    3.2592089   -1.3942253   -2.1569147  
C    0.0000000    0.0000000    0.0000000  
C    1.0521669   -0.0011848   -0.8862341  
C    0.4917221   -0.0011931   -2.1979130  
C   -0.9187427    0.0003100   -2.0478683  
N   -1.1833170   -0.0009472   -0.7007915  
C   -1.7951698    0.0010259   -3.1372090  
C   -1.2375835    0.0005161   -4.4010425  
O   -2.0474208    0.0015256   -5.4997580  
C    0.1673584   -0.0013557   -4.5711962  
O    0.5673529   -0.0020659   -5.8915551  
C    1.0325773   -0.0023359   -3.4969890  
H    2.0953059   -0.0030542   -0.6200560  
H   -2.0989777    0.0102265   -0.2891825  
H   -2.8710930    0.0020274   -3.0295514  
H   -1.4634881    0.0006427   -6.2693593  
H    1.5290715   -0.0033076   -5.9180042  
C    1.1319247   -0.0015655    2.2709268  
C    0.7969915   -0.0034943    3.5869401  
C   -0.6453339   -0.0035710    3.6542670  
C   -1.1266833   -0.0015433    2.2596025  
N    0.0000000    0.0000000    1.4700000  
C   -2.4346130   -0.0013964    1.8976294  
C   -3.4350110   -0.0031408    2.9520183  
O   -4.6384611   -0.0030974    2.7283916  
C   -2.9478959   -0.0050506    4.4361073  
O   -3.7809380   -0.0062218    5.3323774  
C   -1.5113823   -0.0053090    4.7012123  
H    1.4821238   -0.0045407    4.4159191  
H   -2.7664565   -0.0000232    0.8686553  
H   -1.1823530   -0.0068408    5.7314848  
H    2.1104316   -0.0009391    1.8188057  
