60

C    7.3206373   -4.2765606   -0.7837352  
C    6.6395012   -3.4719779   -1.6675722  
C    7.2949351   -3.5907686   -2.9288793  
C    8.3781297   -4.4892955   -2.7520610  
N    8.3661449   -4.8853531   -1.4376744  
C    9.2450786   -4.8424015   -3.7905727  
C    9.0141605   -4.2784054   -5.0302348  
O    9.8301282   -4.5889731   -6.0794060  
C    7.9388215   -3.3795208   -5.2263714  
O    7.8411572   -2.9029277   -6.5173643  
C    7.0833207   -3.0305128   -4.2022438  
H    5.7770633   -2.8722665   -1.4319034  
H    9.0117876   -5.5309689   -1.0201778  
H   10.0725556   -5.5265206   -3.6622611  
H    9.4977510   -4.0941100   -6.8396039  
H    7.0902871   -2.3032584   -6.5642079  
H    7.1442600   -4.4632258    0.2617342  
C    5.9779324   -2.0928588   -4.4468283  
C    5.0400348   -1.6304881   -3.5804347  
C    4.1859901   -0.7341815   -4.3234535  
C    4.7069268   -0.7121366   -5.7036458  
N    5.7934739   -1.5560768   -5.7119686  
C    4.1728098    0.0176376   -6.7155012  
C    3.0072073    0.8361658   -6.4258168  
O    2.4535601    1.5290921   -7.2693975  
C    2.4388220    0.8282646   -4.9709350  
O    1.4580059    1.5136694   -4.7150422  
C    3.1006054    0.0006263   -3.9654951  
H    4.9561724   -1.8877887   -2.5395805  
H    4.5702538    0.0195463   -7.7209583  
H    6.3633292   -1.7534002   -6.5140761  
C    3.2798083    0.0005857   -1.4499652  
C    2.5571142    0.0005565   -2.5996556  
C    1.1637432    0.0001548   -2.2210361  
C    1.1336964   -0.0000200   -0.7459473  
N    2.4483512   -0.0001428   -0.3402723  
C    0.0000000    0.0000000    0.0000000  
C   -1.2757368   -0.0000186   -0.6964415  
O   -2.3524598   -0.0000639   -0.1142311  
C   -1.2676497   -0.0000872   -2.2584083  
O   -2.3355766   -0.0004101   -2.8557295  
C    0.0181558    0.0001758   -2.9516296  
H    0.0150788    0.0003319   -4.0331631  
H    4.3498547    0.0008612   -1.3200026  
H    2.7563626    0.0012823    0.6148059  
C    2.5128556    2.1077716    2.9199648  
C    1.9592212    1.6432552    4.0696553  
C    0.8915788    0.7479214    3.6910360  
C    0.8684491    0.7287414    2.2159470  
N    1.8754542    1.5738793    1.8102719  
C    0.0000000    0.0000000    1.4700000  
C   -0.9772830   -0.8200135    2.1664417  
O   -1.8021297   -1.5120829    1.5842315  
C   -0.9711318   -0.8147624    3.7284083  
O   -1.7894187   -1.5009653    4.3257297  
C    0.0140216    0.0115358    4.4216297  
H    2.2638494    1.8988021    5.0689105  
H    0.0117648    0.0094386    5.5031631  
H    3.3327358    2.7953732    2.7900019  
H    2.1123206    1.7707734    0.8551938  
