60

C    5.9750158   -2.4088209   -6.3788789  
C    7.0139744   -2.6176552   -7.2560450  
C    7.2315689   -1.3873372   -7.9442095  
C    6.2876549   -0.4560990   -7.4404753  
N    5.5391904   -1.1094507   -6.4930844  
C    6.2124211    0.8645297   -7.8933201  
C    7.1065478    1.2522256   -8.8723033  
O    7.0771053    2.5304284   -9.3501561  
C    8.0554725    0.3375156   -9.3877299  
O    8.8755919    0.8751441  -10.3581445  
C    8.1300860   -0.9655462   -8.9416476  
H    7.5484669   -3.5432363   -7.3849306  
H    5.4952354    1.5791172   -7.5135697  
H    7.7736842    2.5887535  -10.0169702  
H    9.4862474    0.1925237  -10.6526493  
H    8.8674659   -1.6434334   -9.3554328  
H    5.5094362   -3.0843336   -5.6818305  
C    4.2034632   -0.7255611   -4.3886927  
C    4.4527392   -0.5087782   -5.7058645  
C    3.4509038    0.4181860   -6.1769258  
C    2.5913884    0.7259028   -5.0179026  
N    3.1006054    0.0006263   -3.9654951  
C    1.5263726    1.5663063   -5.0520706  
C    1.2050739    2.2105929   -6.3146855  
O    0.2656473    2.9839394   -6.4477796  
C    2.1016856    1.8990847   -7.5551920  
O    1.8407233    2.4353745   -8.6236264  
C    3.2224910    0.9761281   -7.3945737  
H    0.9088831    1.7784629   -4.1903242  
H    3.8385514    0.7659019   -8.2582846  
H    4.7325171   -1.3548943   -3.6916046  
C    3.2798083    0.0005857   -1.4499652  
C    2.5571142    0.0005565   -2.5996556  
C    1.1637432    0.0001548   -2.2210361  
C    1.1336964   -0.0000200   -0.7459473  
N    2.4483512   -0.0001428   -0.3402723  
C    0.0000000    0.0000000    0.0000000  
C   -1.2757368   -0.0000186   -0.6964415  
O   -2.3524598   -0.0000639   -0.1142311  
C   -1.2676497   -0.0000872   -2.2584083  
O   -2.3355766   -0.0004101   -2.8557295  
C    0.0181558    0.0001758   -2.9516296  
H    0.0150788    0.0003319   -4.0331631  
H    4.3498547    0.0008612   -1.3200026  
H    2.7563626    0.0012823    0.6148059  
C    0.8400945    0.7047457    2.2710304  
C    0.0000000    0.0000000    1.4700000  
C   -0.8844236   -0.7423113    2.3369512  
C   -0.4878984   -0.4098547    3.7186280  
N    0.5629682    0.4714286    3.6095011  
C   -1.0836927   -0.9095027    4.8308716  
C   -2.1891196   -1.8367527    4.6554461  
O   -2.7906899   -2.3413415    5.5944904  
C   -2.6257283   -2.2031529    3.2011665  
O   -3.5549479   -2.9829990    3.0410059  
C   -1.9068976   -1.5999348    2.0816745  
H   -0.7774656   -0.6525820    5.8354244  
H   -2.2155208   -1.8586617    1.0779135  
H    1.6384792    1.3747609    1.9961646  
H    1.0518368    0.8833920    4.3830260  
