62

C    1.6748845   -1.0738457   -7.2212415  
C    2.6411137   -1.9595030   -6.8035342  
C    3.4807243   -2.2200153   -7.9268271  
C    2.9737045   -1.4586570   -9.0108894  
N    1.8760344   -0.7759315   -8.5486963  
C    3.5566310   -1.4708845  -10.2816513  
C    4.6718841   -2.2659515  -10.4612520  
O    5.2807012   -2.3147837  -11.6818953  
C    5.1924164   -3.0331058   -9.3919823  
O    6.3064635   -3.7734549   -9.7298071  
C    4.6176973   -3.0217378   -8.1381496  
H    2.7292226   -2.3684381   -5.8115656  
H    1.3142546   -0.1449557   -9.0911482  
H    3.1749467   -0.8930094  -11.1120611  
H    6.0277505   -2.9204298  -11.5903774  
H    6.5944357   -4.2616290   -8.9524000  
H    5.0386824   -3.6200302   -7.3385905  
C    0.2653132   -0.7042848   -5.1440086  
C   -0.8287665    0.0000939   -4.7555305  
C   -1.2825959    0.7423471   -5.9078912  
C   -0.3566076    0.4102563   -7.0074599  
N    0.5584965   -0.4707814   -6.4790213  
C   -0.4467552    0.9099661   -8.2659782  
C   -1.5278136    1.8369017   -8.5569043  
O   -1.6939218    2.3415180   -9.6596606  
C   -2.5200361    2.2029121   -7.4074103  
O   -3.4339548    2.9824918   -7.6403694  
C   -2.3204911    1.5996618   -6.0920689  
H    0.2428631    0.6533158   -9.0581061  
H   -3.0119746    1.8581180   -5.3016419  
H    0.8822124   -1.3741499   -4.5672891  
C    1.0672569   -0.0000698   -0.8321910  
C    0.0000000    0.0000000    0.0000000  
C   -1.1601223   -0.0000736   -0.8778472  
C   -0.5938729   -0.0000768   -2.2438435  
N    0.7113367   -0.0001553   -2.2234123  
C   -1.4286985   -0.0001877   -3.4135239  
C   -2.7683113   -0.0006798   -3.2270524  
O   -3.6653902   -0.0008302   -4.2276970  
C   -3.3702024   -0.0010610   -1.8610774  
O   -4.5974910   -0.0013779   -1.7662963  
C   -2.4926825   -0.0008943   -0.6770658  
H   -4.5324245   -0.0012258   -3.7833954  
H   -2.9677772   -0.0012974    0.2947961  
H    2.1134391   -0.0000547   -0.5705119  
C    2.5311839    2.1237619    3.0120429  
C    1.9795631    1.6616747    1.8395852  
C    0.9223175    0.7739173    2.1983588  
C    0.8753926    0.7337535    3.6154372  
N    1.8668922    1.5631002    4.0777464  
C   -0.0496243   -0.0427881    4.3197917  
C   -0.9437528   -0.7922060    3.5801400  
O   -1.8685244   -1.5680278    4.2172520  
C   -0.9124520   -0.7656372    2.1655264  
O   -1.8671164   -1.5663939    1.5732860  
C    0.0000000    0.0000000    1.4700000  
H    2.3005065    1.9304404    0.8477417  
H    2.0679347    1.7444845    5.0445261  
H   -0.0904770   -0.0778569    5.3997470  
H   -2.3849669   -2.0011402    3.5251786  
H   -1.7775064   -1.4909735    0.6183591  
H    3.3468514    2.8078103    3.1724291  
