60

C    8.2934100    0.0026300   -2.1560088  
C    8.5459398    0.0045662   -3.5083006  
C    9.9634606    0.0066928   -3.6671443  
C   10.5280843    0.0056478   -2.3659428  
N    9.4863905    0.0051288   -1.4718009  
C   11.9078876    0.0068864   -2.1402663  
C   12.7327332    0.0089157   -3.2483298  
O   14.0878724    0.0098422   -3.0852133  
C   12.1883258    0.0103603   -4.5546366  
O   13.1400254    0.0127445   -5.5534386  
C   10.8272145    0.0094128   -4.7780200  
H    7.8002029    0.0055643   -4.2847460  
H    9.5795680   -0.0061910   -0.4722156  
H   12.3445082    0.0062441   -1.1510414  
H   14.4696988    0.0115347   -3.9726091  
H   12.6890350    0.0135667   -6.4032682  
H   10.4395172    0.0107459   -5.7900314  
C    5.7595788    0.0007157   -2.0216249  
C    4.7795901    0.0008674   -1.0815733  
C    5.4318892    0.0011976    0.2065811  
C    6.8826348    0.0012554   -0.0619861  
N    7.0143611    0.0005546   -1.4314889  
C    7.8422287    0.0019356    0.8976404  
C    7.4178682    0.0024330    2.2877673  
O    8.2055924    0.0029961    3.2246733  
C    5.8864730    0.0021296    2.5953925  
O    5.5172077    0.0022368    3.7619704  
C    4.9477883    0.0016667    1.4761414  
H    8.9010987    0.0020953    0.6792263  
H    3.8891760    0.0016643    1.6976444  
H    5.6706931    0.0004912   -3.0958635  
C    3.3321168    0.0004716   -1.3379341  
C    2.6974177    0.0000118   -2.5332316  
C    1.2800432   -0.0002116   -2.2052842  
C    1.2395033    0.0000644   -0.7271298  
N    2.4394059    0.0005460   -0.2131041  
C    0.0000000    0.0000000    0.0000000  
C   -1.1468704    0.0000635   -0.7169542  
O   -2.3742206    0.0000074   -0.1695488  
C   -1.1388774    0.0001608   -2.2096352  
O   -2.2206238    0.0000906   -2.7970409  
C    0.1454514    0.0001818   -2.9324241  
H    3.1367978   -0.0000649   -3.5160956  
H   -2.9844350    0.0001027   -0.9290164  
H    0.1083567    0.0003684   -4.0135594  
C    0.8175213    0.6860729    2.3021913  
C    0.0000000    0.0000000    1.4700000  
C   -0.8887526   -0.7456559    2.3478473  
C   -0.4549825   -0.3816753    3.7138435  
N    0.5448156    0.4573574    3.6934124  
C   -1.0945674   -0.9182058    4.8835240  
C   -2.1210866   -1.7789155    4.6970523  
O   -2.8083856   -2.3554314    5.6976972  
C   -2.5824069   -2.1655116    3.3310774  
O   -3.5227682   -2.9541547    3.2362962  
C   -1.9100805   -1.6015804    2.1470656  
H   -0.7567140   -0.6349833    5.8697035  
H   -3.4728268   -2.9124471    5.2533954  
H   -2.2742832   -1.9066565    1.1752040  
H    1.6189533    1.3585343    2.0405121  
