62

C    7.1743021   -3.6316483   -3.4715559  
C    8.2576131   -4.4428512   -3.7182430  
C    8.5237764   -4.3679475   -5.1175806  
C    7.5624059   -3.4881344   -5.6775999  
N    6.7573605   -3.0605423   -4.6511094  
C    7.5241800   -3.1780896   -7.0403919  
C    8.4739392   -3.7667010   -7.8525948  
O    8.4824074   -3.4983693   -9.1908532  
C    9.4411024   -4.6474970   -7.3125859  
O   10.3178823   -5.1527470   -8.2503093  
C    9.4792408   -4.9540291   -5.9682984  
H    8.7897844   -5.0187033   -2.9805562  
H    6.7939588   -2.5084272   -7.4734399  
H    9.2148478   -4.0042901   -9.5661419  
H   10.9373790   -5.7376414   -7.8034024  
H   10.2318212   -5.6323452   -5.5836055  
H    6.6651657   -3.4163703   -2.5477625  
C    5.6351514   -2.1207163   -4.7862945  
C    4.7953959   -1.6469393   -3.8300404  
C    3.8703594   -0.7538889   -4.4870061  
C    4.2426837   -0.7461856   -5.9146289  
N    5.3197297   -1.5944759   -6.0298054  
C    3.6068913   -0.0233210   -6.8711523  
C    2.4808708    0.8023738   -6.4676170  
O    1.8433179    1.4899660   -7.2544102  
C    2.0692938    0.8096662   -4.9608468  
O    1.1230561    1.5012096   -4.6091894  
C    2.8310662   -0.0116220   -4.0232752  
H    4.8211529   -1.8946398   -2.7838119  
H    3.8959297   -0.0319308   -7.9129258  
H    5.8010901   -1.8011849   -6.8857326  
C    3.3041270    0.0001177   -1.5420434  
C    2.5845372   -0.0004781   -0.3695856  
C    1.2040006   -0.0000008   -0.7283592  
C    1.1422371    0.0006037   -2.1454375  
N    2.4348636    0.0026109   -2.6077467  
C   -0.0655183    0.0008798   -2.8497920  
C   -1.2321770    0.0002326   -2.1101400  
O   -2.4392818    0.0001147   -2.7472520  
C   -1.1911210   -0.0000007   -0.6955263  
O   -2.4371527   -0.0002320   -0.1032859  
C    0.0000000    0.0000000    0.0000000  
H    3.0031533   -0.0000660    0.6222577  
H   -0.1193553    0.0014844   -3.9297472  
H   -3.1132989   -0.0000648   -2.0551784  
H   -2.3200282   -0.0004069    0.8516410  
H    4.3686624    0.0004070   -1.7024294  
C    2.5128556    2.1077716    2.9199648  
C    1.9592212    1.6432552    4.0696553  
C    0.8915788    0.7479214    3.6910360  
C    0.8684491    0.7287414    2.2159470  
N    1.8754542    1.5738793    1.8102719  
C    0.0000000    0.0000000    1.4700000  
C   -0.9772830   -0.8200135    2.1664417  
O   -1.8021297   -1.5120829    1.5842315  
C   -0.9711318   -0.8147624    3.7284083  
O   -1.7894187   -1.5009653    4.3257297  
C    0.0140216    0.0115358    4.4216297  
H    2.2638494    1.8988021    5.0689105  
H    0.0117648    0.0094386    5.5031631  
H    3.3327358    2.7953732    2.7900019  
H    2.1123206    1.7707734    0.8551938  
