64

C    1.3050758   -2.3046765   -7.3623514  
C    0.8680465   -1.0008110   -7.3998672  
C    1.5623089   -0.3595596   -8.4682286  
C    2.4164903   -1.3302101   -9.0514405  
N    2.2369603   -2.4994459   -8.3548248  
C    3.2530550   -1.0478221  -10.1355112  
C    3.2266258    0.2377725  -10.6402145  
O    4.0231891    0.5676048  -11.6983779  
C    2.3814108    1.2202176  -10.0716819  
O    2.4696306    2.4523342  -10.6860503  
C    1.5560554    0.9424136   -9.0020373  
H    2.7028481   -3.3675318   -8.5481041  
H    3.9065006   -1.7831201  -10.5844518  
H    3.8525977    1.4992600  -11.8885926  
H    1.8677631    3.0574251  -10.2419505  
H    0.9196773    1.7155483   -8.5875933  
H    1.0268407   -3.1107569   -6.7052528  
C   -0.2208272   -0.6524176   -5.1346212  
C   -1.2456329    0.0471727   -4.5828766  
C   -1.8635343    0.7999336   -5.6488900  
C   -1.1093182    0.4792271   -6.8757132  
N   -0.1268911   -0.4059223   -6.4959277  
C   -1.3831929    0.9908180   -8.1024863  
C   -2.4948521    1.9194408   -8.2225243  
O   -2.8209724    2.4343803   -9.2840247  
C   -3.3072325    2.2735258   -6.9362635  
O   -4.2451139    3.0544077   -7.0249352  
C   -2.9168444    1.6579633   -5.6703520  
H   -0.8175713    0.7423918   -8.9897665  
H   -3.4845597    1.9082094   -4.7844623  
H    0.4738209   -1.3271520   -4.6612429  
C    1.1243410    0.0099923   -0.7919003  
C    0.7474076    0.0234544   -2.1148543  
C   -0.6787381    0.0234490   -2.1414700  
C   -1.1201745    0.0098592   -0.7935546  
N    0.0000000    0.0000000    0.0000000  
C   -2.4730816    0.0063709   -0.4408240  
C   -3.3971958    0.0170982   -1.4675058  
O   -4.7313517    0.0146259   -1.1793471  
C   -2.9763648    0.0303504   -2.8186324  
O   -4.0166480    0.0395118   -3.7247624  
C   -1.6418562    0.0335260   -3.1673481  
H    1.4178717    0.0310972   -2.9571209  
H   -2.8160166   -0.0041111    0.5845966  
H   -5.1938818    0.0230867   -2.0274384  
H   -3.6464675    0.0482293   -4.6127343  
H    2.1062467    0.0052819   -0.3505407  
C    0.8676693    0.7151171    2.2619005  
C    0.5875920    0.4624972    3.5848544  
C   -0.5048400   -0.4542819    3.6114698  
C   -0.8517165   -0.7276451    2.2635546  
N    0.0000000    0.0000000    1.4700000  
C   -1.8902865   -1.5946756    1.9108239  
C   -2.5912627   -2.1969500    2.9375057  
O   -3.6148162   -3.0527051    2.6493466  
C   -2.2603868   -1.9365747    4.2886322  
O   -3.0513550   -2.6123276    5.1947621  
C   -1.2361111   -1.0811317    4.6373480  
H    1.1060808    0.8876438    4.4271209  
H   -2.1597133   -1.8070987    0.8854031  
H   -3.9636755   -3.3565188    3.4974381  
H   -2.7621927   -2.3810384    6.0827341  
H   -1.0058879   -0.9010589    5.6809233  
H    1.6167816    1.3499334    1.8205408  
