62

C   -6.3936522    2.3804730   -0.9441275  
C   -7.5234485    2.5931687   -0.1886222  
C   -8.2477511    1.3645317   -0.1677296  
C   -7.5047532    0.4302925   -0.9339390  
N   -6.3858402    1.0803171   -1.3923268  
C   -7.9221411   -0.8897227   -1.1292236  
C   -9.1110894   -1.2737081   -0.5400435  
O   -9.5650757   -2.5511509   -0.6983110  
C   -9.8667474   -0.3559656    0.2277760  
O  -11.0273382   -0.8900651    0.7484599  
C   -9.4557271    0.9464928    0.4206241  
H   -7.7930074    3.5201788    0.2878066  
H   -7.3604957   -1.6065852   -1.7122035  
H  -10.3986501   -2.6067512   -0.2132052  
H  -11.4776736   -0.2055576    1.2526931  
H  -10.0557464    1.6267594    1.0136608  
H   -5.5934970    3.0537296   -1.1999323  
C   -3.9706102    0.7078764   -2.0752017  
C   -3.2578655    0.0024282   -2.9908505  
C   -4.2092624   -0.7390177   -3.7845365  
C   -5.5442816   -0.4052874   -3.2524289  
N   -5.3302405    0.4758319   -2.2176802  
C   -6.7107872   -0.9038563   -3.7345062  
C   -6.6471652   -1.8312063   -4.8518739  
O   -7.6419115   -2.3348780   -5.3569422  
C   -5.2439265   -2.1989459   -5.4310929  
O   -5.1778108   -2.9788878   -6.3716141  
C   -4.0578612   -1.5968208   -4.8273160  
H   -7.6796177   -0.6460107   -3.3297931  
H   -3.0900589   -1.8564714   -5.2343345  
H   -3.6169908    1.3775867   -1.3081744  
C    0.0000000    0.0000000    0.0000000  
C    1.0521666   -0.0011982   -0.8862343  
C    0.4917215   -0.0011996   -2.1979132  
C   -0.9187429    0.0003215   -2.0478682  
N   -1.1833171   -0.0009323   -0.7007913  
C   -1.7951703    0.0010483   -3.1372089  
C   -1.2375841    0.0005313   -4.4010422  
O   -2.0474218    0.0015510   -5.4997578  
C    0.1673576   -0.0013585   -4.5711963  
O    0.5673520   -0.0020735   -5.8915554  
C    1.0325768   -0.0023493   -3.4969892  
H    2.0953056   -0.0030808   -0.6200564  
H   -2.0989778    0.0102529   -0.2891822  
H   -1.4634888    0.0006601   -6.2693595  
H    1.5290707   -0.0033271   -5.9180047  
H    2.1042146   -0.0039770   -3.6584456  
C    0.0000000    0.0000000    1.4700000  
C    1.0662921    0.0000102    2.3034270  
C    0.4961870   -0.0000064    3.6418889  
C   -0.9663858    0.0000850    3.4240247  
N   -1.2632773    0.0000084    2.1528658  
C   -1.8985362    0.0000517    4.5177257  
C   -1.3925775   -0.0004564    5.7720543  
O   -2.1456383   -0.0005410    6.8851312  
C    0.0786232   -0.0009323    6.0245000  
O    0.4683759   -0.0012588    7.1921102  
C    1.0143166   -0.0008442    4.8859032  
H    2.1107198   -0.0000632    2.0421868  
H   -2.9622183    0.0003270    4.3293377  
H   -1.5042274   -0.0009692    7.6184419  
H    2.0724152   -0.0013148    5.1109744  
