60

C    3.5354428    0.7232316   -8.0260270  
C    4.6070604    0.0052291   -7.5479313  
C    5.1463135   -0.7217351   -8.6503511  
C    4.3559061   -0.4045917   -9.7846356  
N    3.3856227    0.4736768   -9.3701338  
C    4.6008332   -0.9428836  -11.0515387  
C    5.6632088   -1.8170224  -11.1757112  
O    5.9470985   -2.3714314  -12.3902282  
C    6.4631777   -2.1460780  -10.0556272  
O    7.4826424   -3.0306281  -10.3412951  
C    6.2219659   -1.6156278   -8.8054413  
H    2.6830787    0.8827210   -9.9592825  
H    4.0020435   -0.7052996  -11.9199888  
H    6.7146047   -2.9427603  -12.2568778  
H    7.9742220   -3.1998773   -9.5317849  
H    6.8517552   -1.8864505   -7.9660973  
H    2.8652487    1.3925061   -7.5142935  
C    2.4521485    0.0014838   -3.7217479  
C    3.5087829    0.0013018   -2.8687536  
C    4.7039153    0.0022077   -3.6789965  
C    4.2537130    0.0029670   -5.0840257  
N    2.8785571    0.0020815   -5.0411852  
C    5.0840330    0.0043213   -6.1574650  
C    6.5167217    0.0048560   -5.9126433  
O    7.3462788    0.0060000   -6.8127180  
C    7.0158850    0.0038165   -4.4325618  
O    8.2198463    0.0039481   -4.2140696  
C    6.0245775    0.0026607   -3.3596402  
H    3.4569042    0.0004294   -1.7945464  
H    6.3784142    0.0021512   -2.3376213  
H    2.2773147    0.0038590   -5.8446475  
C    0.0000000    0.0000000    0.0000000  
C    1.0662924   -0.0000102   -0.8334267  
C    0.4961874    0.0000064   -2.1718888  
C   -0.9663853   -0.0000849   -1.9540250  
N   -1.2632772   -0.0000084   -0.6828660  
C   -1.8985357   -0.0000515   -3.0477261  
C   -1.3925767    0.0004566   -4.3020548  
O   -2.1456375    0.0005411   -5.4151316  
C    0.0786242    0.0009324   -4.5545000  
O    0.4683770    0.0012590   -5.7221099  
C    1.0143173    0.0008443   -3.4159029  
H    2.1107200    0.0000632   -0.5721862  
H   -2.9622180   -0.0003269   -2.8593382  
H   -1.5042262    0.0009694   -6.1484423  
C    3.2798086   -0.0005857    2.9199648  
C    2.5571146   -0.0005566    4.0696553  
C    1.1637436   -0.0001548    3.6910360  
C    1.1336965    0.0000200    2.2159470  
N    2.4483514    0.0001428    1.8102719  
C    0.0000000    0.0000000    1.4700000  
C   -1.2757367    0.0000186    2.1664417  
O   -2.3524596    0.0000640    1.5842315  
C   -1.2676493    0.0000873    3.7284083  
O   -2.3355761    0.0004100    4.3257297  
C    0.0181563   -0.0001760    4.4216297  
H    2.9547357   -0.0006076    5.0689105  
H    0.0150794   -0.0003319    5.5031631  
H    4.3498549   -0.0008612    2.7900019  
H    2.7563627   -0.0012824    0.8551938  
