64

C    3.4159842   -3.5843795   -4.2502026  
C    3.0017688   -2.9317340   -5.3881600  
C    3.8838052   -3.3247869   -6.4379798  
C    4.8237796   -4.2263282   -5.8761998  
N    4.5122598   -4.3603141   -4.5459291  
C    5.8462256   -4.8167911   -6.6250317  
C    5.9209504   -4.4914569   -7.9654604  
O    6.8996481   -5.0396958   -8.7430208  
C    4.9925526   -3.5936913   -8.5441748  
O    5.1996838   -3.3706908   -9.8898007  
C    3.9837933   -3.0106011   -7.8059758  
H    4.9998982   -4.9453224   -3.8917458  
H    6.5658587   -5.5045639   -6.2027766  
H    6.7728338   -4.6844650   -9.6323996  
H    4.5307858   -2.7538608  -10.2023700  
H    3.2874934   -2.3264903   -8.2767599  
H    3.0170380   -3.5566731   -3.2506863  
C    1.8623200   -2.0072652   -5.4771196  
C    1.0190394   -1.6263762   -4.4895061  
C    0.0870120   -0.7080517   -5.1255130  
C    0.5265230   -0.6485027   -6.5361399  
N    1.5667227   -1.4080943   -6.7482576  
C   -0.1488120    0.1645209   -7.5097932  
C   -1.2149977    0.8849929   -7.0932566  
O   -1.9385152    1.6861028   -7.8937484  
C   -1.6831425    0.8457383   -5.6764081  
O   -2.6605014    1.5274250   -5.3677112  
C   -0.9736297    0.0040464   -4.6965763  
H    1.0282686   -1.9310392   -3.4569505  
H    0.1941654    0.1891585   -8.5338384  
H   -2.6258523    2.0607754   -7.3137993  
C    1.1188642    0.0008222   -0.8003808  
C    0.0000000    0.0000000    0.0000000  
C   -1.1323862    0.0008899   -0.8673528  
C   -0.6382663    0.0019679   -2.1969280  
N    0.7324016    0.0038481   -2.1202242  
C   -1.4770914    0.0027318   -3.3154808  
C   -2.8395473    0.0020945   -3.0876857  
O   -3.7039201    0.0024425   -4.1440349  
C   -3.3517868    0.0013931   -1.7684331  
O   -4.7300497    0.0012366   -1.7073121  
C   -2.5248543    0.0009123   -0.6644817  
H    1.3576314   -0.0056167   -2.9057046  
H   -4.5940032    0.0021826   -3.7685128  
H   -4.9934602    0.0007259   -0.7819913  
H   -2.9462577    0.0005603    0.3339659  
H    2.1619895    0.0009355   -0.5342068  
C    0.8576279    0.7185626    2.2703808  
C    0.0000000    0.0000000    1.4700000  
C   -0.8668858   -0.7285659    2.3373528  
C   -0.4876752   -0.4117774    3.6669281  
N    0.5635254    0.4678311    3.5902241  
C   -1.1297612   -0.9515493    4.7854808  
C   -2.1738724   -1.8268314    4.5576857  
O   -2.8357962   -2.3827064    5.6140350  
C   -2.5667212   -2.1555554    3.2384331  
O   -3.6226318   -3.0413663    3.1773122  
C   -1.9335634   -1.6236449    2.1344818  
H    1.0363952    0.8769718    4.3757045  
H   -0.8454472   -0.7142436    5.8013813  
H   -3.5178062   -2.9546422    5.2385129  
H   -3.8247440   -3.2102924    2.2519915  
H   -2.2566033   -1.8942483    1.1360343  
H    1.6567807    1.3889844    2.0042067  
