62

C    3.4043863   -0.7238254   -2.9866275  
C    2.4861703   -0.0045376   -3.7159919  
C    3.2157089    0.7222556   -4.7029796  
C    4.5864978    0.4036881   -4.5258407  
N    4.6660327   -0.4752282   -3.4742718  
C    5.5976607    0.9414357   -5.3278175  
C    5.2180751    1.8164846   -6.3270086  
O    6.1647960    2.3704173   -7.1393469  
C    3.8554790    2.1469644   -6.5191806  
O    3.6389645    3.0322865   -7.5548781  
C    2.8574355    1.6170517   -5.7282136  
H    5.5126242   -0.8852828   -3.1233887  
H    6.6442485    0.7027676   -5.1978454  
H    5.6926566    2.9425396   -7.7582368  
H    2.6940964    3.2024847   -7.6170084  
H    1.8223829    1.8889696   -5.8991050  
H    3.2593067   -1.3934100   -2.1562257  
C    0.0000000    0.0000000    0.0000000  
C    1.0521669   -0.0011899   -0.8862338  
C    0.4917222   -0.0011953   -2.1979129  
C   -0.9187426    0.0003152   -2.0478681  
N   -1.1833169   -0.0009409   -0.7007913  
C   -1.7951697    0.0010354   -3.1372090  
C   -1.2375835    0.0005230   -4.4010425  
O   -2.0474206    0.0015366   -5.4997579  
C    0.1673585   -0.0013561   -4.5711965  
O    0.5673529   -0.0020681   -5.8915554  
C    1.0325774   -0.0023407   -3.4969889  
H    2.0953060   -0.0030646   -0.6200560  
H   -2.0989776    0.0102374   -0.2891826  
H   -1.4634880    0.0006503   -6.2693594  
H    1.5290717   -0.0033145   -5.9180047  
C   -4.4484711    2.1113803   -0.3461920  
C   -5.6480035    1.6479665   -0.7825918  
C   -5.3783981    0.7523421   -1.8825943  
C   -3.9129598    0.7317898   -2.0524736  
N   -3.4082520    1.5764914   -1.0908922  
C   -3.2578649    0.0024042   -2.9908508  
C   -4.0489120   -0.8169040   -3.8939090  
O   -3.5523648   -1.5094677   -4.7725992  
C   -5.6024998   -0.8101988   -3.7322738  
O   -6.2789643   -1.4957980   -4.4869992  
C   -6.1934209    0.0166877   -2.6830247  
H   -6.6117250    1.9044261   -0.3799969  
H   -7.2698066    0.0155978   -2.5775891  
H   -4.2368828    2.7988132    0.4566506  
H   -2.4341530    1.7724825   -0.9503005  
C    0.0000000    0.0000000    1.4700000  
C    1.0541688    0.0001722    2.3260392  
C    0.5103138    0.0000454    3.6635956  
C   -0.9576371   -0.0002459    3.5155732  
N   -1.2018458    0.0001392    2.1615969  
C   -1.8348311   -0.0008317    4.5510609  
C   -1.2972847   -0.0009736    5.9014604  
O   -2.0050672   -0.0014265    6.9001319  
C    0.2542623   -0.0004184    6.0817573  
O    0.7184670   -0.0002256    7.2139121  
C    1.0974552   -0.0000873    4.8889129  
H    2.0940752    0.0005483    2.0517982  
H   -2.9081052   -0.0011668    4.4207061  
H    2.1707277    0.0000911    5.0223670  
H   -2.1128194   -0.0014912    1.7406791  
