64

C    4.4916363   -0.3878110   -7.5790593  
C    5.5311216   -0.2424192   -8.4683285  
C    5.5631617    1.1314949   -8.8503406  
C    4.5107196    1.7812138   -8.1559643  
N    3.8789536    0.8295292   -7.3945278  
C    4.2452117    3.1471884   -8.2916417  
C    5.0571149    3.8705106   -9.1435778  
O    4.8422725    5.2077469   -9.3128583  
C    6.1120036    3.2401038   -9.8454415  
O    6.8301706    4.0955860  -10.6552125  
C    6.3743420    1.8925230   -9.7122843  
H    6.1850781   -1.0299777   -8.8016226  
H    3.4445374    3.6483066   -7.7653312  
H    5.5102964    5.5144127   -9.9397262  
H    7.5227125    3.5908073  -11.0924646  
H    7.1892631    1.4374056  -10.2629655  
H    4.1378877   -1.2638330   -7.0629140  
C    2.8434396   -0.7174319   -3.3295212  
C    3.4705723   -0.4665766   -4.5279551  
C    2.6462645    0.4501927   -5.2453468  
C    1.5204238    0.7253686   -4.4276141  
N    1.6707636   -0.0012343   -3.2725974  
C    0.4959244    1.5928957   -4.8182368  
C    0.6101835    2.1938123   -6.0567931  
O   -0.3616143    3.0499771   -6.4876105  
C    1.7257479    1.9316205   -6.8872078  
O    1.6939058    2.6061784   -8.0902458  
C    2.7366814    1.0756865   -6.5026083  
H    4.4064340   -0.8928629   -4.8464453  
H   -0.3648220    1.8066981   -4.1996853  
H   -0.0899714    3.3526643   -7.3638847  
H    2.4822851    2.3736945   -8.5902582  
H    3.1391408   -1.3516748   -2.5114405  
C    1.0965514    0.0001358   -0.8010306  
C    0.0000000    0.0000000    0.0000000  
C   -1.1546565    0.0001470   -0.8669508  
C   -0.6372019    0.0003520   -2.2486278  
N    0.7342867    0.0007338   -2.1395012  
C   -1.4147744    0.0001354   -3.3608712  
C   -2.8576052   -0.0001047   -3.1854454  
O   -3.6427785   -0.0002490   -4.1244896  
C   -3.4275841   -0.0000727   -1.7311660  
O   -4.6406832    0.0000333   -1.5710049  
C   -2.4891868   -0.0001090   -0.6116739  
H   -1.0150456    0.0001617   -4.3654239  
H   -2.8919122   -0.0002919    0.3920871  
H    2.1388270    0.0000663   -0.5261650  
C    0.8576279    0.7185626    2.2703808  
C    0.0000000    0.0000000    1.4700000  
C   -0.8668858   -0.7285659    2.3373528  
C   -0.4876752   -0.4117774    3.6669281  
N    0.5635254    0.4678311    3.5902241  
C   -1.1297612   -0.9515493    4.7854808  
C   -2.1738724   -1.8268314    4.5576857  
O   -2.8357962   -2.3827064    5.6140350  
C   -2.5667212   -2.1555554    3.2384331  
O   -3.6226318   -3.0413663    3.1773122  
C   -1.9335634   -1.6236449    2.1344818  
H    1.0363952    0.8769718    4.3757045  
H   -0.8454472   -0.7142436    5.8013813  
H   -3.5178062   -2.9546422    5.2385129  
H   -3.8247440   -3.2102924    2.2519915  
H   -2.2566033   -1.8942483    1.1360343  
H    1.6567807    1.3889844    2.0042067  
