62

C    9.2370985    0.0033959   -3.2067365  
C    9.9750104    0.0056902   -4.3677477  
C   11.3497401    0.0081729   -3.9873348  
C   11.3892409    0.0069660   -2.5694620  
N   10.0895135    0.0060124   -2.1275094  
C   12.5857843    0.0084667   -1.8462255  
C   13.7639139    0.0109292   -2.5674629  
O   14.9608630    0.0121260   -1.9114708  
C   13.7450771    0.0125412   -3.9825459  
O   15.0002546    0.0153630   -4.5551424  
C   12.5650275    0.0113355   -4.6966937  
H    9.5720218    0.0066923   -5.3660422  
H    9.8037839   -0.0055087   -1.1651130  
H   12.6226540    0.0077031   -0.7655579  
H   15.6456649    0.0141024   -2.5928723  
H   14.8981408    0.0162722   -5.5117907  
H   12.5820477    0.0128060   -5.7802922  
C    6.8354432    0.0008785   -4.0255230  
C    5.5758875    0.0005992   -3.5179857  
C    5.7016160    0.0007904   -2.0795742  
C    7.1480384    0.0012361   -1.7886232  
N    7.7802450    0.0008699   -3.0105905  
C    7.6812949    0.0019200   -0.5406883  
C    6.7698186    0.0020120    0.5914541  
O    7.1520251    0.0025450    1.7543037  
C    5.2340027    0.0012938    0.3067210  
O    4.4569015    0.0010578    1.2519061  
C    4.7795901    0.0008674   -1.0815733  
H    4.6629015    0.0001117   -4.0863788  
H    8.7453472    0.0023679   -0.3491112  
H    7.1529568    0.0008728   -5.0556080  
C    3.3321168    0.0004716   -1.3379341  
C    2.6974177    0.0000118   -2.5332316  
C    1.2800432   -0.0002116   -2.2052842  
C    1.2395033    0.0000644   -0.7271298  
N    2.4394059    0.0005460   -0.2131041  
C    0.0000000    0.0000000    0.0000000  
C   -1.1468704    0.0000635   -0.7169542  
O   -2.3742206    0.0000074   -0.1695488  
C   -1.1388774    0.0001608   -2.2096352  
O   -2.2206238    0.0000906   -2.7970409  
C    0.1454514    0.0001818   -2.9324241  
H    3.1367978   -0.0000649   -3.5160956  
H   -2.9844350    0.0001027   -0.9290164  
H    0.1083567    0.0003684   -4.0135594  
C    2.5311839    2.1237619    3.0120429  
C    1.9795631    1.6616747    1.8395852  
C    0.9223175    0.7739173    2.1983588  
C    0.8753926    0.7337535    3.6154372  
N    1.8668922    1.5631002    4.0777464  
C   -0.0496243   -0.0427881    4.3197917  
C   -0.9437528   -0.7922060    3.5801400  
O   -1.8685244   -1.5680278    4.2172520  
C   -0.9124520   -0.7656372    2.1655264  
O   -1.8671164   -1.5663939    1.5732860  
C    0.0000000    0.0000000    1.4700000  
H    2.3005065    1.9304404    0.8477417  
H    2.0679347    1.7444845    5.0445261  
H   -0.0904770   -0.0778569    5.3997470  
H   -2.3849669   -2.0011402    3.5251786  
H   -1.7775064   -1.4909735    0.6183591  
H    3.3468514    2.8078103    3.1724291  
