62

C   -0.0456301   -0.0074895   -8.8209595  
C    0.7274565   -0.6820527   -9.7373496  
C    0.2503704   -0.3194644  -11.0317673  
C   -0.8237901    0.5869369  -10.8406071  
N   -0.9782910    0.7529937   -9.4866611  
C   -1.5344038    1.1524817  -11.9036107  
C   -1.1535266    0.7967709  -13.1829002  
O   -1.8132774    1.3198082  -14.2572253  
C   -0.0845652   -0.1063246  -13.3939843  
O    0.1733930   -0.3608903  -14.7251489  
C    0.6167414   -0.6648443  -12.3457724  
H    1.5351078   -1.3537783   -9.5018117  
H   -1.6576533    1.3485757   -9.0487908  
H   -2.3541300    1.8438012  -11.7645828  
H   -1.3944771    0.9458516  -15.0433725  
H    0.9084247   -0.9792421  -14.7796787  
H    1.4308342   -1.3537684  -12.5384245  
C    2.5563882   -2.1074461   -5.9371925  
C    1.9637245   -1.6426522   -7.0671445  
C    0.9098266   -0.7472310   -6.6519876  
C    0.9372953   -0.7283019   -5.1769697  
N    1.9574936   -1.5736540   -4.8062056  
C    0.0950446    0.0004351   -4.4015596  
C   -0.9054231    0.8207083   -5.0639425  
O   -1.7097172    1.5127953   -4.4536742  
C   -0.9528375    0.8157257   -6.6252025  
O   -1.7910234    1.5021485   -7.1939976  
C    0.0078424   -0.0105939   -7.3519361  
H    2.2338702   -1.8980703   -8.0763008  
H    3.3801406   -2.7951875   -5.8355355  
H    2.2269418   -1.7707467   -3.8598447  
C    3.3321173    0.0004713   -1.3379338  
C    2.6974181    0.0000116   -2.5332314  
C    1.2800438   -0.0002119   -2.2052841  
C    1.2395034    0.0000643   -0.7271299  
N    2.4394062    0.0005460   -0.2131038  
C    0.0000000    0.0000000    0.0000000  
C   -1.1468702    0.0000634   -0.7169543  
O   -2.3742203    0.0000074   -0.1695487  
C   -1.1388770    0.0001607   -2.2096355  
O   -2.2206234    0.0000905   -2.7970411  
C    0.1454522    0.0001815   -2.9324241  
H    3.1367984   -0.0000653   -3.5160950  
H   -2.9844346    0.0001026   -0.9290167  
H    4.3940038    0.0007618   -1.1498640  
C    0.8576279    0.7185626    2.2703808  
C    0.0000000    0.0000000    1.4700000  
C   -0.8668858   -0.7285659    2.3373528  
C   -0.4876752   -0.4117774    3.6669281  
N    0.5635254    0.4678311    3.5902241  
C   -1.1297612   -0.9515493    4.7854808  
C   -2.1738724   -1.8268314    4.5576857  
O   -2.8357962   -2.3827064    5.6140350  
C   -2.5667212   -2.1555554    3.2384331  
O   -3.6226318   -3.0413663    3.1773122  
C   -1.9335634   -1.6236449    2.1344818  
H    1.0363952    0.8769718    4.3757045  
H   -0.8454472   -0.7142436    5.8013813  
H   -3.5178062   -2.9546422    5.2385129  
H   -3.8247440   -3.2102924    2.2519915  
H   -2.2566033   -1.8942483    1.1360343  
H    1.6567807    1.3889844    2.0042067  
