60

C    5.5019276   -3.6111286   -1.0149663  
C    6.5972079   -4.4173298   -0.8079209  
C    7.4077062   -4.3272206   -1.9782080  
C    6.7507217   -3.4437137   -2.8724749  
N    5.5958116   -3.0286412   -2.2572396  
C    7.2667162   -3.1195266   -4.1308239  
C    8.4679646   -3.6975314   -4.4928904  
O    9.0169455   -3.4152090   -5.7102341  
C    9.1383683   -4.5817995   -3.6145704  
O   10.3233159   -5.0752959   -4.1202444  
C    8.6297787   -4.9022810   -2.3731383  
H    6.7879329   -4.9996921    0.0772192  
H    6.7708013   -2.4469784   -4.8170809  
H    9.8417984   -3.9155714   -5.7604381  
H   10.7118778   -5.6634688   -3.4655110  
H    9.1658006   -5.5829280   -1.7220787  
H    4.6604651   -3.4066354   -0.3753716  
C    4.6190968   -2.0899184   -2.8279655  
C    3.4606682   -1.6280054   -2.2906065  
C    2.8761398   -0.7301691   -3.2586208  
C    3.7955627   -0.7067279   -4.4122682  
N    4.8319959   -1.5514027   -4.0878919  
C    3.5979907    0.0246981   -5.5381832  
C    2.3999524    0.8436574   -5.6190798  
O    2.1321338    1.5380351   -6.5908892  
C    1.4124494    0.8342976   -4.4088910  
O    0.4006151    1.5200499   -4.4654206  
C    1.7334695    0.0049281   -3.2500363  
H    3.0613138   -1.8865706   -1.3260995  
H    4.2848589    0.0276115   -6.3731168  
H    5.6204858   -1.7480977   -4.6766556  
C    1.1319246    0.0015678   -0.8009268  
C    0.7969914    0.0034958   -2.1169401  
C   -0.6453340    0.0035696   -2.1842669  
C   -1.1266832    0.0015410   -0.7896025  
N    0.0000000    0.0000000    0.0000000  
C   -2.4346129    0.0013913   -0.4276292  
C   -3.4350111    0.0031335   -1.4820181  
O   -4.6384614    0.0030875   -1.2583914  
C   -2.9478961    0.0050442   -2.9661074  
O   -3.7809382    0.0062135   -3.8623773  
C   -1.5113825    0.0053055   -3.2312122  
H   -2.7664565    0.0000174    0.6013448  
H   -1.1823533    0.0068381   -4.2614848  
H    2.1104316    0.0009435   -0.3488059  
C    0.8681109    0.7263879    2.2709268  
C    0.6127770    0.5096195    3.5869401  
C   -0.4920590   -0.4175482    3.6542670  
C   -0.8620974   -0.7254003    2.2596025  
N    0.0000000    0.0000000    1.4700000  
C   -1.8641242   -1.5660088    1.8976294  
C   -2.6293522   -2.2103885    2.9520183  
O   -3.5512764   -2.9839180    2.7283916  
C   -2.2549728   -1.8987399    4.4361073  
O   -2.8923672   -2.4351063    5.3323774  
C   -1.1543735   -0.9755647    4.7012123  
H    1.1382914    0.9492124    4.4159191  
H   -2.1192137   -1.7782617    0.8686553  
H   -0.9013378   -0.7652422    5.7314848  
H    1.6172880    1.3558399    1.8188057  
