62

C    9.8810103    0.7107566   -0.4143744  
C   11.2336914    0.4604730   -0.4054632  
C   11.4819853   -0.4479534    0.6658495  
C   10.2323945   -0.7188652    1.2798992  
N    9.2819200    0.0021532    0.6006729  
C   10.0981999   -1.5780109    2.3747275  
C   11.2463328   -2.1747762    2.8582979  
O   11.1723247   -3.0227516    3.9252910  
C   12.5023217   -1.9167294    2.2593664  
O   13.5506901   -2.5863033    2.8559707  
C   12.6354926   -1.0690626    1.1794347  
H   11.9531360    0.8817820   -1.0865598  
H    9.1487059   -1.7885267    2.8473235  
H   12.0739154   -3.3237737    4.0978759  
H   14.3615510   -2.3570923    2.3916731  
H   13.6107393   -0.8905948    0.7418054  
H    9.2963524    1.3397824   -1.0635748  
C    5.7595788    0.0007157   -2.0216249  
C    4.7795901    0.0008674   -1.0815733  
C    5.4318897    0.0011976    0.2065809  
C    6.8826349    0.0012556   -0.0619866  
N    7.0143612    0.0005548   -1.4314891  
C    7.8422292    0.0019359    0.8976400  
C    7.4178692    0.0024333    2.2877672  
O    8.2055926    0.0029965    3.2246726  
C    5.8864735    0.0021297    2.5953924  
O    5.5172086    0.0022369    3.7619706  
C    4.9477888    0.0016668    1.4761415  
H    3.8891764    0.0016642    1.6976445  
H    5.6706931    0.0004912   -3.0958635  
H    7.8875232    0.0019717   -1.9260937  
C    3.3321168    0.0004716   -1.3379341  
C    2.6974177    0.0000118   -2.5332316  
C    1.2800432   -0.0002116   -2.2052842  
C    1.2395033    0.0000644   -0.7271298  
N    2.4394059    0.0005460   -0.2131041  
C    0.0000000    0.0000000    0.0000000  
C   -1.1468704    0.0000635   -0.7169542  
O   -2.3742206    0.0000074   -0.1695488  
C   -1.1388774    0.0001608   -2.2096352  
O   -2.2206238    0.0000906   -2.7970409  
C    0.1454514    0.0001818   -2.9324241  
H    3.1367978   -0.0000649   -3.5160956  
H   -2.9844350    0.0001027   -0.9290164  
H    0.1083567    0.0003684   -4.0135594  
C    0.8676693    0.7151171    2.2619005  
C    0.5875920    0.4624972    3.5848544  
C   -0.5048400   -0.4542819    3.6114698  
C   -0.8517165   -0.7276451    2.2635546  
N    0.0000000    0.0000000    1.4700000  
C   -1.8902865   -1.5946756    1.9108239  
C   -2.5912627   -2.1969500    2.9375057  
O   -3.6148162   -3.0527051    2.6493466  
C   -2.2603868   -1.9365747    4.2886322  
O   -3.0513550   -2.6123276    5.1947621  
C   -1.2361111   -1.0811317    4.6373480  
H    1.1060808    0.8876438    4.4271209  
H   -2.1597133   -1.8070987    0.8854031  
H   -3.9636755   -3.3565188    3.4974381  
H   -2.7621927   -2.3810384    6.0827341  
H   -1.0058879   -0.9010589    5.6809233  
H    1.6167816    1.3499334    1.8205408  
