62

C    5.0231094   -1.1162016   -8.8132951  
C    5.4214227   -0.7416685  -10.0756510  
C    5.1859223    0.6606874  -10.1876209  
C    4.6386562    1.0908063   -8.9517313  
N    4.5514026   -0.0133213   -8.1406172  
C    4.2833171    2.4200989   -8.7037303  
C    4.4843804    3.3318529   -9.7217948  
O    4.1551851    4.6429622   -9.5330227  
C    5.0288952    2.9219375  -10.9620734  
O    5.1675390    3.9475036  -11.8743993  
C    5.3794225    1.6106748  -11.2075257  
H    5.8302768   -1.3986247  -10.8241422  
H    3.8656338    2.7542791   -7.7640144  
H    4.3724910    5.1002338  -10.3557899  
H    5.5414575    3.5860616  -12.6838103  
H    5.7941830    1.3264148  -12.1675510  
H    5.0368380   -2.0830474   -8.3400314  
C    5.8841830   -2.1091710   -4.4899266  
C    5.7577999   -1.6457874   -5.7601149  
C    4.6250714   -0.7504404   -5.7708525  
C    4.0981360   -0.7300181   -4.3929152  
N    4.9052813   -1.5745223   -3.6661288  
C    3.0267438   -0.0008951   -3.9901699  
C    2.3471070    0.8182472   -4.9799347  
O    1.3727581    1.5105721   -4.7160578  
C    2.8878460    0.8116753   -6.4453235  
O    2.3236393    1.4971367   -7.2873889  
C    4.0508243   -0.0149263   -6.7584743  
H    6.3862355   -1.9020926   -6.5943749  
H    6.6099530   -2.7964262   -4.0864073  
H    4.8007128   -1.7705398   -2.6875124  
C    3.3003547    0.0005277   -1.4738986  
C    2.5232816    0.0003497   -2.6090746  
C    1.1623203   -0.0001319   -2.1820102  
C    1.1711884    0.0000584   -0.7636141  
N    2.4852301   -0.0014919   -0.3662359  
C    0.0000000    0.0000000    0.0000000  
C   -1.2020383    0.0000520   -0.6806479  
O   -2.3759248    0.0003493    0.0157745  
C   -1.2314655   -0.0005115   -2.0955511  
O   -2.5054388   -0.0008040   -2.6250184  
C   -0.0764513   -0.0007274   -2.8495195  
H    2.8036266    0.0088183    0.5858662  
H   -3.0835639    0.0000346   -0.6418822  
H   -2.4360043   -0.0011529   -3.5845924  
H   -0.1304091   -0.0013423   -3.9319089  
H    4.3715553    0.0004897   -1.3667133  
C    2.5528530    2.1414826    2.8079335  
C    2.0663498    1.7338582    4.0032312  
C    0.9804344    0.8229586    3.6752840  
C    0.9495562    0.7966882    2.1971295  
N    1.8690446    1.5676019    1.6831036  
C    0.0000000    0.0000000    1.4700000  
C   -0.8785127   -0.7372425    2.1869543  
O   -1.8187535   -1.5261249    1.6395491  
C   -0.8723269   -0.7321790    3.6796354  
O   -1.7010379   -1.4274584    4.2670412  
C    0.1115397    0.0933559    4.4024240  
H    2.4028853    2.0163452    4.9860947  
H   -2.2861435   -1.9184361    2.3990168  
H    0.0832434    0.0693689    5.4835595  
H    3.3664920    2.8238276    2.6198634  
