60

C    3.8283648   -5.3069187   -7.7684438  
C    4.4807230   -4.7830198   -8.8604250  
C    4.1723260   -3.3909645   -8.9013267  
C    3.3207913   -3.1207682   -7.7995974  
N    3.1305537   -4.3061295   -7.1337547  
C    2.8177467   -1.8449276   -7.5276313  
C    3.1811827   -0.8231772   -8.3832698  
O    2.7186817    0.4421238   -8.1639080  
C    4.0295438   -1.0729969   -9.4881184  
O    4.2991704    0.0475391  -10.2464350  
C    4.5259635   -2.3314474   -9.7571820  
H    5.1015171   -5.3363555   -9.5441123  
H    2.5789081   -4.4231312   -6.3031048  
H    3.0867144    0.9930738   -8.8669516  
H    4.8779288   -0.2078085  -10.9713079  
H    5.1736165   -2.4923646  -10.6110733  
H    3.8044665   -6.3155692   -7.3929301  
C    2.0663728   -2.0930016   -5.1167678  
C    1.0931325   -1.6308353   -4.2901601  
C    0.2706809   -0.7345480   -5.0680274  
C    0.8486731   -0.7122923   -6.4253114  
N    1.9347262   -1.5561043   -6.3884398  
C    0.3570941    0.0175291   -7.4584694  
C   -0.8196664    0.8358894   -7.2175211  
O   -1.3377660    1.5288420   -8.0833671  
C   -1.4481802    0.8277638   -5.7875877  
O   -2.4388904    1.5130257   -5.5727154  
C   -0.8287665    0.0000939   -4.7555305  
H    0.9660024   -1.8882582   -3.2537308  
H    0.7960888    0.0195932   -8.4464916  
H    2.8688295   -2.7804818   -4.9038726  
C    1.0672569   -0.0000698   -0.8321910  
C    0.0000000    0.0000000    0.0000000  
C   -1.1601223   -0.0000736   -0.8778472  
C   -0.5938729   -0.0000768   -2.2438435  
N    0.7113367   -0.0001553   -2.2234123  
C   -1.4286985   -0.0001877   -3.4135239  
C   -2.7683113   -0.0006798   -3.2270524  
O   -3.6653902   -0.0008302   -4.2276970  
C   -3.3702024   -0.0010610   -1.8610774  
O   -4.5974910   -0.0013779   -1.7662963  
C   -2.4926825   -0.0008943   -0.6770658  
H   -4.5324245   -0.0012258   -3.7833954  
H   -2.9677772   -0.0012974    0.2947961  
H    2.1134391   -0.0000547   -0.5705119  
C    0.8400945    0.7047457    2.2710304  
C    0.0000000    0.0000000    1.4700000  
C   -0.8844236   -0.7423113    2.3369512  
C   -0.4878984   -0.4098547    3.7186280  
N    0.5629682    0.4714286    3.6095011  
C   -1.0836927   -0.9095027    4.8308716  
C   -2.1891196   -1.8367527    4.6554461  
O   -2.7906899   -2.3413415    5.5944904  
C   -2.6257283   -2.2031529    3.2011665  
O   -3.5549479   -2.9829990    3.0410059  
C   -1.9068976   -1.5999348    2.0816745  
H   -0.7774656   -0.6525820    5.8354244  
H   -2.2155208   -1.8586617    1.0779135  
H    1.6384792    1.3747609    1.9961646  
H    1.0518368    0.8833920    4.3830260  
