64

C   -7.6564181    0.0152637   -2.5397183  
C   -8.4605251    0.6906529   -1.6510514  
C   -9.8074934    0.3296075   -1.9509241  
C   -9.7626031   -0.5767471   -3.0410765  
N   -8.4416324   -0.7442611   -3.3751285  
C  -10.9116655   -1.1409484   -3.6033238  
C  -12.1281862   -0.7839169   -3.0548847  
O  -13.2816242   -1.3056102   -3.5652083  
C  -12.1935202    0.1191550   -1.9672227  
O  -13.4779896    0.3751281   -1.5336774  
C  -11.0603683    0.6763499   -1.4122232  
H   -8.1184218    1.3619248   -0.8820568  
H   -8.0991396   -1.3401633   -4.1069620  
H  -10.8841989   -1.8322248   -4.4343385  
H  -14.0043373   -0.9308866   -3.0450810  
H  -13.4331154    0.9933638   -0.7978956  
H  -11.1417337    1.3652911   -0.5796263  
C   -4.4484552    2.1114137   -0.3461918  
C   -5.6479912    1.6480088   -0.7825916  
C   -5.3783931    0.7523823   -1.8825938  
C   -3.9129551    0.7318189   -2.0524732  
N   -3.4082402    1.5765170   -1.0908920  
C   -3.2578655    0.0024282   -2.9908505  
C   -4.0489186   -0.8168742   -3.8939081  
O   -3.5523770   -1.5094417   -4.7725987  
C   -5.6025063   -0.8101571   -3.7322729  
O   -6.2789756   -1.4957509   -4.4869978  
C   -6.1934212    0.0167341   -2.6830243  
H   -6.6117108    1.9044760   -0.3799968  
H   -4.2368617    2.7988452    0.4566509  
H   -2.4341398    1.7725006   -0.9503004  
C    0.0000000    0.0000000    0.0000000  
C    1.0521666   -0.0011982   -0.8862343  
C    0.4917215   -0.0011996   -2.1979132  
C   -0.9187429    0.0003215   -2.0478682  
N   -1.1833171   -0.0009323   -0.7007913  
C   -1.7951703    0.0010483   -3.1372089  
C   -1.2375841    0.0005313   -4.4010422  
O   -2.0474218    0.0015510   -5.4997578  
C    0.1673576   -0.0013585   -4.5711963  
O    0.5673520   -0.0020735   -5.8915554  
C    1.0325768   -0.0023493   -3.4969892  
H    2.0953056   -0.0030808   -0.6200564  
H   -2.0989778    0.0102529   -0.2891822  
H   -1.4634888    0.0006601   -6.2693595  
H    1.5290707   -0.0033271   -5.9180047  
H    2.1042146   -0.0039770   -3.6584456  
C    1.1243417   -0.0099156    2.2619005  
C    0.7474090   -0.0234034    3.5848544  
C   -0.6787367   -0.0234952    3.6114698  
C   -1.1201739   -0.0099357    2.2635546  
N    0.0000000    0.0000000    1.4700000  
C   -2.4730812   -0.0065396    1.9108239  
C   -3.3971947   -0.0173298    2.9375057  
O   -4.7313508   -0.0149487    2.6493466  
C   -2.9763630   -0.0305536    4.2886322  
O   -4.0166453   -0.0397858    5.1947621  
C   -1.6418541   -0.0336380    4.6373480  
H    1.4178735   -0.0310004    4.4271209  
H   -2.8160170    0.0039190    0.8854031  
H   -5.1938803   -0.0234410    3.4974381  
H   -3.6464643   -0.0484781    6.0827341  
H   -1.3497443   -0.0436789    5.6809233  
H    2.1062470   -0.0051382    1.8205408  
