60

C    4.1424332    0.0037509   -7.9796017  
C    5.1712536    0.0045640   -8.8928357  
C    6.3883048    0.0048459   -8.1489355  
C    6.0362498    0.0038849   -6.7748977  
N    4.6650904    0.0051881   -6.7075271  
C    6.9876832    0.0035562   -5.7504159  
C    8.3187625    0.0039026   -6.1197464  
O    9.2890843    0.0032547   -5.1598033  
C    8.6899188    0.0052353   -7.4854171  
O   10.0541862    0.0058456   -7.6906472  
C    7.7518432    0.0058334   -8.4966234  
H    5.0584260    0.0060164   -9.9634720  
H    4.1256283   -0.0056469   -5.8608604  
H   10.1349089    0.0039434   -5.6265403  
H   10.2191699    0.0067143   -8.6384783  
H    8.0662856    0.0070376   -9.5337369  
H    3.0771571    0.0037053   -8.1349874  
C    6.6317369    0.0027576   -4.3241610  
C    5.4016569    0.0020952   -3.7488537  
C    5.6054514    0.0015083   -2.3194121  
C    7.0655604    0.0019149   -2.1075790  
N    7.6303537    0.0022712   -3.3621301  
C    7.6659162    0.0019589   -0.8905025  
C    6.8173807    0.0013544    0.2895491  
O    7.2622814    0.0012815    1.4298840  
C    5.2683488    0.0006644    0.0887880  
O    4.5438178   -0.0001546    1.0748484  
C    4.7390840    0.0009613   -1.2727298  
H    4.4591020    0.0018433   -4.2667371  
H    8.7388158    0.0023904   -0.7570945  
H    8.6161390    0.0041519   -3.5499372  
C    3.2798077    0.0005856   -1.4499661  
C    2.5571132    0.0005565   -2.5996564  
C    1.1637425    0.0001547   -2.2210366  
C    1.1336959   -0.0000200   -0.7459475  
N    2.4483509   -0.0001429   -0.3402730  
C    0.0000000    0.0000000    0.0000000  
C   -1.2757370   -0.0000187   -0.6964411  
O   -2.3524597   -0.0000640   -0.1142306  
C   -1.2676502   -0.0000874   -2.2584078  
O   -2.3355774   -0.0004102   -2.8557287  
C    0.0181551    0.0001758   -2.9516297  
H    2.9547342    0.0006074   -3.5989118  
H    0.0150776    0.0003317   -4.0331632  
H    2.7563626    0.0012823    0.6148051  
C    2.3971438    2.0127888    3.1728260  
C    1.9431056    1.6308205    1.9564670  
C    0.8496017    0.7127664    2.2356185  
C    0.7794028    0.6545384    3.7115134  
N    1.6840587    1.4146091    4.2663826  
C   -0.1885723   -0.1578550    4.3957118  
C   -1.0476298   -0.8789867    3.6398520  
O   -2.0015663   -1.6796266    4.1448486  
C   -1.0022026   -0.8410666    2.1483229  
O   -1.8147390   -1.5232959    1.5241687  
C    0.0000000    0.0000000    1.4700000  
H    2.3054237    1.9346118    0.9892483  
H   -0.2170646   -0.1815267    5.4753125  
H   -2.4487139   -2.0549881    3.3649027  
H    3.2048689    2.6911772    3.3971983  
