60

C    0.4961370   -3.2775511  -10.4493658  
C    0.4417997   -2.5955219   -9.2559042  
C    0.1815901   -1.2284712   -9.5690552  
C    0.0858869   -1.1358964  -10.9812161  
N    0.2837182   -2.3976264  -11.4847209  
C   -0.1654840    0.0687634  -11.6448389  
C   -0.3234162    1.2005343  -10.8687396  
O   -0.5709996    2.4029821  -11.4652602  
C   -0.2310819    1.1284632   -9.4583863  
O   -0.4112514    2.3417329   -8.8268344  
C    0.0171479   -0.0595767   -8.8030473  
H    0.5745943   -3.0296878   -8.2797589  
H    0.2626072   -2.6440850  -12.4577534  
H   -0.2394496    0.1460009  -12.7208334  
H   -0.6460574    3.0509600  -10.7526905  
H   -0.3334600    2.2050672   -7.8776900  
H    0.6710303   -4.3218045  -10.6440598  
C    2.6001989   -2.1411816   -5.8266046  
C    2.0730546   -1.7332818   -7.0044479  
C    0.9991589   -0.8222833   -6.6393046  
C    1.0189899   -0.7962635   -5.1609565  
N    1.9554493   -1.5673975   -4.6788913  
C    0.0950446    0.0004351   -4.4015596  
C   -0.8074266    0.7379268   -5.0878442  
O   -1.7282259    1.5268492   -4.5083866  
C   -0.8524305    0.7331199   -6.5798603  
O   -1.7006931    1.4286189   -7.1383869  
C    0.1059497   -0.0924311   -7.3360995  
H    2.3756471   -2.0156472   -7.9983212  
H   -2.2213255    1.9193581   -5.2513151  
H    3.4197068   -2.8236756   -5.6666595  
C    3.3321173    0.0004713   -1.3379338  
C    2.6974181    0.0000116   -2.5332314  
C    1.2800438   -0.0002119   -2.2052841  
C    1.2395034    0.0000643   -0.7271299  
N    2.4394062    0.0005460   -0.2131038  
C    0.0000000    0.0000000    0.0000000  
C   -1.1468702    0.0000634   -0.7169543  
O   -2.3742203    0.0000074   -0.1695487  
C   -1.1388770    0.0001607   -2.2096355  
O   -2.2206234    0.0000905   -2.7970411  
C    0.1454522    0.0001815   -2.9324241  
H    3.1367984   -0.0000653   -3.5160950  
H   -2.9844346    0.0001026   -0.9290167  
H    4.3940038    0.0007618   -1.1498640  
C    2.3971438    2.0127888    3.1728260  
C    1.9431056    1.6308205    1.9564670  
C    0.8496017    0.7127664    2.2356185  
C    0.7794028    0.6545384    3.7115134  
N    1.6840587    1.4146091    4.2663826  
C   -0.1885723   -0.1578550    4.3957118  
C   -1.0476298   -0.8789867    3.6398520  
O   -2.0015663   -1.6796266    4.1448486  
C   -1.0022026   -0.8410666    2.1483229  
O   -1.8147390   -1.5232959    1.5241687  
C    0.0000000    0.0000000    1.4700000  
H    2.3054237    1.9346118    0.9892483  
H   -0.2170646   -0.1815267    5.4753125  
H   -2.4487139   -2.0549881    3.3649027  
H    3.2048689    2.6911772    3.3971983  
