60

C    6.6781265   -0.0007178   -5.5992983  
C    7.7302941   -0.0019101   -6.4855317  
C    7.1698490   -0.0028495   -7.7972100  
C    5.7593841   -0.0018801   -7.6471657  
N    5.4948101   -0.0025462   -6.3000891  
C    4.8829566   -0.0021161   -8.7365074  
C    5.4405433   -0.0030460  -10.0003394  
O    4.6307053   -0.0029643  -11.0990554  
C    6.8454856   -0.0043968  -10.1704928  
O    7.2454806   -0.0056252  -11.4908515  
C    7.7107049   -0.0044382   -9.0962847  
H    8.7734335   -0.0031869   -6.2193528  
H    4.5791446    0.0084454   -5.8884858  
H    3.8070328   -0.0015256   -8.6288497  
H    5.2146389   -0.0039973  -11.8686575  
H    8.2071997   -0.0064630  -11.5173012  
H    8.7823432   -0.0056715   -9.2577411  
C    6.6781264    0.0000526   -4.1292983  
C    7.7444181    0.0009683   -3.2958718  
C    7.1743131    0.0014026   -1.9574099  
C    5.7117407    0.0007371   -2.1752742  
N    5.4148494   -0.0001362   -3.4464326  
C    4.7795901    0.0008674   -1.0815733  
C    5.2855489    0.0012391    0.1727555  
O    4.5324883    0.0014069    1.2858327  
C    6.7567496    0.0015421    0.4252013  
O    7.1465024    0.0019988    1.5928113  
C    7.6924429    0.0014446   -0.7133951  
H    8.7888465    0.0012169   -3.5571121  
H    5.1738991    0.0016450    2.0191435  
H    8.7505410    0.0015569   -0.4883243  
C    3.3321168    0.0004716   -1.3379341  
C    2.6974177    0.0000118   -2.5332316  
C    1.2800432   -0.0002116   -2.2052842  
C    1.2395033    0.0000644   -0.7271298  
N    2.4394059    0.0005460   -0.2131041  
C    0.0000000    0.0000000    0.0000000  
C   -1.1468704    0.0000635   -0.7169542  
O   -2.3742206    0.0000074   -0.1695488  
C   -1.1388774    0.0001608   -2.2096352  
O   -2.2206238    0.0000906   -2.7970409  
C    0.1454514    0.0001818   -2.9324241  
H    3.1367978   -0.0000649   -3.5160956  
H   -2.9844350    0.0001027   -0.9290164  
H    0.1083567    0.0003684   -4.0135594  
C    0.0000000    0.0000000    1.4700000  
C    1.0541688    0.0001722    2.3260392  
C    0.5103138    0.0000454    3.6635956  
C   -0.9576371   -0.0002459    3.5155732  
N   -1.2018458    0.0001392    2.1615969  
C   -1.8348311   -0.0008317    4.5510609  
C   -1.2972847   -0.0009736    5.9014604  
O   -2.0050672   -0.0014265    6.9001319  
C    0.2542623   -0.0004184    6.0817573  
O    0.7184670   -0.0002256    7.2139121  
C    1.0974552   -0.0000873    4.8889129  
H    2.0940752    0.0005483    2.0517982  
H   -2.9081052   -0.0011668    4.4207061  
H    2.1707277    0.0000911    5.0223670  
H   -2.1128194   -0.0014912    1.7406791  
