60

C    0.2029129   -1.1453281   -9.6531171  
C    0.0298374   -0.0618533   -8.8233015  
C   -0.1922841    1.0719650   -9.6597928  
C   -0.1434556    0.6150998  -11.0017376  
N    0.1000921   -0.7353476  -10.9618166  
C   -0.3216978    1.4654903  -12.0971163  
C   -0.5537563    2.8013663  -11.8329904  
O   -0.7350673    3.6754586  -12.8655125  
C   -0.6056795    3.2763588  -10.5008861  
O   -0.8448601    4.6315476  -10.4029126  
C   -0.4296596    2.4380453   -9.4197880  
H    0.1772310   -1.3350918  -11.7632756  
H   -0.2855080    1.1235328  -13.1222775  
H   -0.8799403    4.5432108  -12.4664109  
H   -0.8645466    4.8703399   -9.4711427  
H   -0.4746726    2.8307595   -8.4107156  
H    0.3929909   -2.1778729   -9.4150415  
C    2.5185220   -2.1418782   -5.7664424  
C    2.0285782   -1.7344766   -6.9604095  
C    0.9435063   -0.8236411   -6.6295061  
C    0.9168306   -0.7971604   -5.1512739  
N    1.8378571   -1.5679055   -4.6397540  
C   -0.0307352   -0.0004646   -4.4215603  
C   -0.9113598    0.7365842   -5.1361191  
O   -1.8501208    1.5254492   -4.5861545  
C   -0.9094201    0.7313057   -6.6288110  
O   -1.7398704    1.4264151   -7.2139569  
C    0.0724715   -0.0942327   -7.3542764  
H    2.3623455   -2.0170710   -7.9441861  
H   -2.3197100    1.9176027   -5.3443463  
H    3.3327631   -2.8241128   -5.5805892  
C    3.2573670   -0.0002920   -1.5109380  
C    2.5379468   -0.0001709   -0.3591961  
C    1.1435043    0.0000332   -0.7338500  
C    1.1092609   -0.0000082   -2.2088477  
N    2.4227562    0.0001909   -2.6182613  
C   -0.0265532   -0.0002522   -2.9515663  
C   -1.3003035   -0.0002639   -2.2514981  
O   -2.3786784   -0.0004131   -2.8306429  
C   -1.2877725    0.0000312   -0.6895608  
O   -2.3539958    0.0003307   -0.0892036  
C    0.0000000    0.0000000    0.0000000  
H    2.9384091   -0.0000369    0.6389239  
H    4.3270394   -0.0004765   -1.6439446  
H    2.7280494   -0.0013406   -3.5742113  
C    0.0000000    0.0000000    1.4700000  
C    1.0662921    0.0000102    2.3034270  
C    0.4961870   -0.0000064    3.6418889  
C   -0.9663858    0.0000850    3.4240247  
N   -1.2632773    0.0000084    2.1528658  
C   -1.8985362    0.0000517    4.5177257  
C   -1.3925775   -0.0004564    5.7720543  
O   -2.1456383   -0.0005410    6.8851312  
C    0.0786232   -0.0009323    6.0245000  
O    0.4683759   -0.0012588    7.1921102  
C    1.0143166   -0.0008442    4.8859032  
H    2.1107198   -0.0000632    2.0421868  
H   -2.9622183    0.0003270    4.3293377  
H   -1.5042274   -0.0009692    7.6184419  
H    2.0724152   -0.0013148    5.1109744  
