64

C    2.5562220   -0.0001552   -3.6003002  
C    3.5655135   -0.0006161   -2.6655282  
C    4.7980133   -0.0013042   -3.3835419  
C    4.4750733   -0.0009424   -4.7647138  
N    3.1056450   -0.0021963   -4.8610456  
C    5.4479449   -0.0011312   -5.7688602  
C    6.7709228   -0.0013882   -5.3714826  
O    7.7613134   -0.0012297   -6.3107058  
C    7.1131343   -0.0021264   -3.9982724  
O    8.4727600   -0.0027234   -3.7642570  
C    6.1538993   -0.0022140   -3.0071155  
H    3.4300852   -0.0015789   -1.5975155  
H    2.5841964    0.0082879   -5.7189281  
H    5.2083491   -0.0010017   -6.8232779  
H    8.5970863   -0.0017571   -5.8261980  
H    8.6176773   -0.0031743   -2.8131511  
H    6.4463537   -0.0029687   -1.9635889  
C    0.0000000    0.0000000    0.0000000  
C    1.0541690   -0.0001722   -0.8560392  
C    0.5103143   -0.0000454   -2.1935956  
C   -0.9576365    0.0002459   -2.0455735  
N   -1.2018458   -0.0001391   -0.6915971  
C   -1.8348304    0.0008316   -3.0810614  
C   -1.2972839    0.0009736   -4.4314607  
O   -2.0050661    0.0014265   -5.4301325  
C    0.2542633    0.0004184   -4.6117571  
O    0.7184680    0.0002257   -5.7439119  
C    1.0974559    0.0000874   -3.4189129  
H    2.0940753   -0.0005483   -0.5817981  
H   -2.1128193    0.0014911   -0.2706794  
C   -3.9849985    0.7198447   -1.9557686  
C   -3.2941067    0.0012872   -2.9038248  
C   -4.2599016   -0.7267540   -3.6599969  
C   -5.5339479   -0.4096654   -3.1231659  
N   -5.3307593    0.4696090   -2.0886572  
C   -6.7219416   -0.9489012   -3.6258426  
C   -6.6219962   -1.8239455   -4.6900258  
O   -7.7506376   -2.3792979   -5.2198998  
C   -5.3598455   -2.1529626   -5.2391540  
O   -5.4267846   -3.0384807   -6.2949574  
C   -4.1874262   -1.6215810   -4.7435817  
H   -6.0533553    0.8788535   -1.5244277  
H   -7.6960697   -0.7113646   -3.2210562  
H   -7.4602805   -2.9511488   -5.9423572  
H   -4.5326410   -3.2076338   -6.6072034  
H   -3.2353039   -1.8923984   -5.1847162  
H   -3.6241830    1.3899482   -1.1943666  
C    0.0000000    0.0000000    1.4700000  
C    1.0521667    0.0011902    2.3562342  
C    0.4917218    0.0011957    3.6679131  
C   -0.9187428   -0.0003148    3.5178682  
N   -1.1833171    0.0009411    2.1707914  
C   -1.7951701   -0.0010350    4.6072090  
C   -1.2375837   -0.0005224    5.8710424  
O   -2.0474215   -0.0015360    6.9697579  
C    0.1673580    0.0013566    6.0411963  
O    0.5673524    0.0020687    7.3615553  
C    1.0325770    0.0023412    4.9669890  
H    2.0953057    0.0030649    2.0900562  
H   -2.0989778   -0.0102372    1.7591824  
H   -2.8710934   -0.0020419    4.4995513  
H   -1.4634884   -0.0006497    7.7393593  
H    1.5290710    0.0033153    7.3880045  
H    2.1042148    0.0039609    5.1284455  
