62

C    7.5272805   -0.7428346   -4.7240385  
C    7.0948291    0.5211534   -5.0523488  
C    8.2487237    1.3587323   -5.0922121  
C    9.3658979    0.5434388   -4.7773402  
N    8.8923273   -0.7262215   -4.5575418  
C   10.6723951    1.0384501   -4.7242538  
C   10.8544636    2.3808870   -4.9942394  
O   12.1094475    2.9162524   -4.9566490  
C    9.7523351    3.2105959   -5.3100141  
O   10.0971316    4.5240896   -5.5533104  
C    8.4631365    2.7229914   -5.3623014  
H    9.4561192   -1.5237706   -4.3250855  
H   11.5280946    0.4223212   -4.4847449  
H   12.0132414    3.8530330   -5.1721711  
H    9.2960866    5.0157927   -5.7586359  
H    7.6388495    3.3827241   -5.6068052  
H    6.9698421   -1.6546056   -4.5940608  
C    3.4298634   -0.6917985   -3.0313909  
C    2.4861704   -0.0045255   -3.7159919  
C    3.2229048    0.7397797   -4.7258094  
C    4.6377454    0.3737856   -4.5002906  
N    4.7652643   -0.4651681   -3.5083810  
C    5.6998705    0.9085432   -5.3071427  
C    5.3638096    1.7694808   -6.2946565  
O    6.2517355    2.3444731   -7.1235179  
C    3.9449184    2.1580891   -6.5474272  
O    3.7122547    2.9468277   -7.4633852  
C    2.8734597    1.5959541   -5.7060568  
H    5.7142197    2.9021184   -7.7145004  
H    1.8586325    1.9024603   -5.9214876  
H    3.2895179   -1.3638312   -2.1997369  
C    0.0000000    0.0000000    0.0000000  
C    1.0521669   -0.0011848   -0.8862341  
C    0.4917221   -0.0011931   -2.1979130  
C   -0.9187427    0.0003100   -2.0478683  
N   -1.1833170   -0.0009472   -0.7007915  
C   -1.7951698    0.0010259   -3.1372090  
C   -1.2375835    0.0005161   -4.4010425  
O   -2.0474208    0.0015256   -5.4997580  
C    0.1673584   -0.0013557   -4.5711962  
O    0.5673529   -0.0020659   -5.8915551  
C    1.0325773   -0.0023359   -3.4969890  
H    2.0953059   -0.0030542   -0.6200560  
H   -2.0989777    0.0102265   -0.2891825  
H   -2.8710930    0.0020274   -3.0295514  
H   -1.4634881    0.0006427   -6.2693593  
H    1.5290715   -0.0033076   -5.9180042  
C    3.2798086   -0.0005857    2.9199648  
C    2.5571146   -0.0005566    4.0696553  
C    1.1637436   -0.0001548    3.6910360  
C    1.1336965    0.0000200    2.2159470  
N    2.4483514    0.0001428    1.8102719  
C    0.0000000    0.0000000    1.4700000  
C   -1.2757367    0.0000186    2.1664417  
O   -2.3524596    0.0000640    1.5842315  
C   -1.2676493    0.0000873    3.7284083  
O   -2.3355761    0.0004100    4.3257297  
C    0.0181563   -0.0001760    4.4216297  
H    2.9547357   -0.0006076    5.0689105  
H    0.0150794   -0.0003319    5.5031631  
H    4.3498549   -0.0008612    2.7900019  
H    2.7563627   -0.0012824    0.8551938  
