62

C    6.2180284   -0.6726153   -3.5212713  
C    7.5278046   -0.4254999   -3.1808475  
C    8.0425635    0.4915334   -4.1445236  
C    6.9922057    0.7707169   -5.0559684  
N    5.8992829    0.0461441   -4.6496041  
C    7.1432853    1.6395890   -6.1408767  
C    8.3770820    2.2377540   -6.3085690  
O    8.5791997    3.0950715   -7.3512425  
C    9.4375034    1.9715497   -5.4099807  
O   10.6038600    2.6437339   -5.7118504  
C    9.2892531    1.1142874   -4.3396311  
H    8.0485317   -0.8543847   -2.3418630  
H    6.3467198    1.8564417   -6.8392032  
H    9.4949325    3.3954136   -7.2842100  
H   11.2685511    2.4085898   -5.0572539  
H   10.1196802    0.9297212   -3.6682112  
H    5.4864026   -1.3058152   -3.0493181  
C    1.6628972    0.0337774   -3.2649299  
C    3.0162024    0.0329603   -3.2529403  
C    3.4037232    0.0459981   -4.6551376  
C    2.1237308    0.0535428   -5.3955064  
N    1.0997901    0.0465113   -4.5858853  
C    2.0755562    0.0671408   -6.8316750  
C    3.2525887    0.0733272   -7.4979267  
O    3.3566005    0.0859901   -8.8377260  
C    4.5608690    0.0663567   -6.7792364  
O    5.5929755    0.0724782   -7.4500116  
C    4.5838552    0.0523648   -5.3057373  
H    3.6706629    0.0246393   -2.3981374  
H    1.1260108    0.0722078   -7.3466974  
H    4.3151302    0.0875696   -9.0119996  
C    1.1243417    0.0099160   -0.7919004  
C    0.7474091    0.0234036   -2.1148543  
C   -0.6787366    0.0234950   -2.1414699  
C   -1.1201739    0.0099353   -0.7935547  
N    0.0000000    0.0000000    0.0000000  
C   -2.4730814    0.0065387   -0.4408241  
C   -3.3971947    0.0173286   -1.4675058  
O   -4.7313509    0.0149470   -1.1793468  
C   -2.9763629    0.0305525   -2.8186324  
O   -4.0166449    0.0397843   -3.7247623  
C   -1.6418539    0.0336374   -3.1673480  
H   -2.8160170   -0.0039200    0.5845965  
H   -5.1938800    0.0234391   -2.0274383  
H   -3.6464639    0.0484767   -4.6127342  
H   -1.3497441    0.0436783   -4.2109235  
H    2.1062470    0.0051389   -0.3505406  
C    2.4951002    2.0940188    2.9809380  
C    1.9440701    1.6314916    1.8291961  
C    0.8759964    0.7350050    2.2038498  
C    0.8497377    0.7130254    3.6788474  
N    1.8560616    1.5571714    4.0882609  
C   -0.0205033   -0.0168748    4.4215661  
C   -0.9962600   -0.8356168    3.7214979  
O   -1.8224391   -1.5286685    4.3006425  
C   -0.9864710   -0.8277881    2.1595606  
O   -1.8030528   -1.5133726    1.5592035  
C    0.0000000    0.0000000    1.4700000  
H    2.2509283    1.8888011    0.8310761  
H   -0.0229599   -0.0187323    5.5027230  
H    3.3143982    2.7817323    3.1139444  
H    2.0889452    1.7545833    5.0442112  
