66

C    3.8878169   -0.7221146   -4.5427241  
C    3.9719333   -0.4862744   -5.8954145  
C    2.9171610    0.4147690   -6.2273419  
C    2.2168608    0.6962708   -5.0263992  
N    2.8310663   -0.0116218   -4.0232754  
C    1.1122532    1.5520024   -4.9778755  
C    0.7074027    2.1344025   -6.1632375  
O   -0.3652176    2.9784457   -6.1726996  
C    1.3930192    1.8656308   -7.3717529  
O    0.8682187    2.5214018   -8.4662355  
C    2.4826536    1.0213232   -7.4204131  
H    0.5741178    1.7705382   -4.0658149  
H   -0.4758803    3.2691040   -7.0873238  
H    1.3885183    2.2856105   -9.2403767  
H    2.9875785    0.8344065   -8.3609397  
H    4.4971333   -1.3420427   -3.9076012  
C    3.3041273    0.0001179   -1.5420438  
C    2.5845372   -0.0004778   -0.3695858  
C    1.2040009   -0.0000008   -0.7283598  
C    1.1422372    0.0006037   -2.1454375  
N    2.4348637    0.0026111   -2.6077468  
C   -0.0655182    0.0008797   -2.8497921  
C   -1.2321770    0.0002322   -2.1101399  
O   -2.4392816    0.0001144   -2.7472523  
C   -1.1911211   -0.0000008   -0.6955263  
O   -2.4371524   -0.0002326   -0.1032861  
C    0.0000000    0.0000000    0.0000000  
H    3.0031535   -0.0000658    0.6222573  
H   -0.1193551    0.0014842   -3.9297475  
H   -3.1132989   -0.0000654   -2.0551787  
H   -2.3200281   -0.0004077    0.8516411  
H    4.3686625    0.0004074   -1.7024298  
C    4.9699744   -1.0678985   -6.8045495  
C    6.0033345   -1.9384560   -6.5461622  
C    6.6635690   -2.1810010   -7.7870741  
C    5.9829909   -1.4247464   -8.7754153  
N    4.9589164   -0.7622286   -8.1453674  
C    6.3628610   -1.4228989  -10.1209578  
C    7.4497532   -2.1983789  -10.4751756  
O    7.8635319   -2.2328591  -11.7754121  
C    8.1414910   -2.9601516   -9.5035697  
O    9.2018777   -3.6804188  -10.0136061  
C    7.7671291   -2.9626634   -8.1760256  
H    6.2501497   -2.3491242   -5.5820942  
H    4.3099720   -0.1390571   -8.5909119  
H    5.8482325   -0.8488185  -10.8791087  
H    8.6254706   -2.8260754  -11.8038325  
H    9.6142920   -4.1662211   -9.2928326  
H    8.3161495   -3.5563905   -7.4545386  
C    0.8576279    0.7185626    2.2703808  
C    0.0000000    0.0000000    1.4700000  
C   -0.8668858   -0.7285659    2.3373528  
C   -0.4876752   -0.4117774    3.6669281  
N    0.5635254    0.4678311    3.5902241  
C   -1.1297612   -0.9515493    4.7854808  
C   -2.1738724   -1.8268314    4.5576857  
O   -2.8357962   -2.3827064    5.6140350  
C   -2.5667212   -2.1555554    3.2384331  
O   -3.6226318   -3.0413663    3.1773122  
C   -1.9335634   -1.6236449    2.1344818  
H    1.0363952    0.8769718    4.3757045  
H   -0.8454472   -0.7142436    5.8013813  
H   -3.5178062   -2.9546422    5.2385129  
H   -3.8247440   -3.2102924    2.2519915  
H   -2.2566033   -1.8942483    1.1360343  
H    1.6567807    1.3889844    2.0042067  
