60

C    5.8493660   -3.2373101   -7.4707467  
C    6.4660191   -2.4716435   -8.4330158  
C    6.0114962   -1.1316062   -8.2532682  
C    5.1117160   -1.1408451   -7.1568032  
N    5.0346164   -2.4353414   -6.7063011  
C    4.4691981    0.0122484   -6.6960052  
C    4.7401690    1.1962905   -7.3538783  
O    4.1402471    2.3521284   -6.9450447  
C    5.6346847    1.2257097   -8.4501417  
O    5.7996832    2.4804764   -8.9993950  
C    6.2686931    0.0884934   -8.9054422  
H    7.1574452   -2.8345303   -9.1741200  
H    4.4803551   -2.7474713   -5.9295443  
H    4.4627525    3.0492104   -7.5309889  
H    6.4183697    2.4124005   -9.7330131  
H    6.9486253    0.1419355   -9.7476497  
H    5.9251530   -4.2922817   -7.2701246  
C    4.5546440   -2.0975051   -2.8456837  
C    3.3966020   -1.6333854   -2.3093944  
C    2.8128209   -0.7373022   -3.2794820  
C    3.7322614   -0.7172951   -4.4331801  
N    4.7679905   -1.5620816   -4.1068518  
C    3.5352976    0.0116908   -5.5607836  
C    2.3379419    0.8314596   -5.6435733  
O    2.0707015    1.5238118   -6.6169859  
C    1.3504337    0.8257212   -4.4333667  
O    0.3391714    1.5121846   -4.4914818  
C    1.6707636   -0.0012343   -3.2725974  
H    2.9970334   -1.8893868   -1.3442924  
H    5.2702680   -2.7854719   -2.4255961  
H    5.5563150   -1.7607949   -4.6951584  
C    1.0965514    0.0001358   -0.8010306  
C    0.0000000    0.0000000    0.0000000  
C   -1.1546565    0.0001470   -0.8669508  
C   -0.6372019    0.0003520   -2.2486278  
N    0.7342867    0.0007338   -2.1395012  
C   -1.4147744    0.0001354   -3.3608712  
C   -2.8576052   -0.0001047   -3.1854454  
O   -3.6427785   -0.0002490   -4.1244896  
C   -3.4275841   -0.0000727   -1.7311660  
O   -4.6406832    0.0000333   -1.5710049  
C   -2.4891868   -0.0001090   -0.6116739  
H   -1.0150456    0.0001617   -4.3654239  
H   -2.8919122   -0.0002919    0.3920871  
H    2.1388270    0.0000663   -0.5261650  
C    2.5128556    2.1077716    2.9199648  
C    1.9592212    1.6432552    4.0696553  
C    0.8915788    0.7479214    3.6910360  
C    0.8684491    0.7287414    2.2159470  
N    1.8754542    1.5738793    1.8102719  
C    0.0000000    0.0000000    1.4700000  
C   -0.9772830   -0.8200135    2.1664417  
O   -1.8021297   -1.5120829    1.5842315  
C   -0.9711318   -0.8147624    3.7284083  
O   -1.7894187   -1.5009653    4.3257297  
C    0.0140216    0.0115358    4.4216297  
H    2.2638494    1.8988021    5.0689105  
H    0.0117648    0.0094386    5.5031631  
H    3.3327358    2.7953732    2.7900019  
H    2.1123206    1.7707734    0.8551938  
