62

C    9.0554111    0.0026475   -0.0233451  
C   10.1411620    0.0041755   -0.8680990  
C   11.3075322    0.0047927   -0.0470133  
C   10.8673123    0.0032903    1.3013675  
N    9.4946671    0.0039623    1.2798819  
C   11.7504674    0.0030999    2.3852613  
C   13.1026538    0.0041440    2.1028274  
O   14.0088324    0.0036610    3.1235395  
C   13.5613918    0.0060242    0.7640322  
O   14.9360794    0.0073012    0.6475022  
C   12.6907086    0.0064862   -0.3057499  
H   10.0978409    0.0058767   -1.9437910  
H    8.9015612   -0.0073502    2.0898683  
H   11.4213118    0.0021023    3.4152411  
H   14.8830847    0.0048579    2.7125066  
H   15.1620430    0.0085086   -0.2876679  
H   13.0715921    0.0081209   -1.3203448  
C    7.0021976    0.0016964   -3.8667564  
C    5.7010038    0.0007395   -3.4946381  
C    5.7268784    0.0007367   -2.0400486  
C    7.1642508    0.0016711   -1.6928540  
N    7.9166770    0.0023174   -2.7595516  
C    7.6175796    0.0019951   -0.3291901  
C    6.6776993    0.0018010    0.6434146  
O    6.9577654    0.0020528    1.9577979  
C    5.2193467    0.0012353    0.3250321  
O    4.4197297    0.0009616    1.2608917  
C    4.7795901    0.0008674   -1.0815733  
H    4.8310657    0.0002033   -4.1288951  
H    6.0879580    0.0018433    2.3966452  
H    7.4070859    0.0020141   -4.8662757  
C    3.3321168    0.0004716   -1.3379341  
C    2.6974177    0.0000118   -2.5332316  
C    1.2800432   -0.0002116   -2.2052842  
C    1.2395033    0.0000644   -0.7271298  
N    2.4394059    0.0005460   -0.2131041  
C    0.0000000    0.0000000    0.0000000  
C   -1.1468704    0.0000635   -0.7169542  
O   -2.3742206    0.0000074   -0.1695488  
C   -1.1388774    0.0001608   -2.2096352  
O   -2.2206238    0.0000906   -2.7970409  
C    0.1454514    0.0001818   -2.9324241  
H    3.1367978   -0.0000649   -3.5160956  
H   -2.9844350    0.0001027   -0.9290164  
H    0.1083567    0.0003684   -4.0135594  
C    2.5311839    2.1237619    3.0120429  
C    1.9795631    1.6616747    1.8395852  
C    0.9223175    0.7739173    2.1983588  
C    0.8753926    0.7337535    3.6154372  
N    1.8668922    1.5631002    4.0777464  
C   -0.0496243   -0.0427881    4.3197917  
C   -0.9437528   -0.7922060    3.5801400  
O   -1.8685244   -1.5680278    4.2172520  
C   -0.9124520   -0.7656372    2.1655264  
O   -1.8671164   -1.5663939    1.5732860  
C    0.0000000    0.0000000    1.4700000  
H    2.3005065    1.9304404    0.8477417  
H    2.0679347    1.7444845    5.0445261  
H   -0.0904770   -0.0778569    5.3997470  
H   -2.3849669   -2.0011402    3.5251786  
H   -1.7775064   -1.4909735    0.6183591  
H    3.3468514    2.8078103    3.1724291  
