60

C    8.1059680   -5.6137860   -6.3127924  
C    8.8644955   -5.1798460   -7.3752423  
C    8.6035916   -3.7862405   -7.5314238  
C    7.6702662   -3.4224285   -6.5271975  
N    7.3878457   -4.5559788   -5.8061429  
C    7.1853688   -2.1191540   -6.3818050  
C    7.6513738   -1.1657136   -7.2660947  
O    7.2109986    0.1225483   -7.1688127  
C    8.5824296   -1.5093269   -8.2749976  
O    8.9497768   -0.4485522   -9.0769670  
C    9.0610163   -2.7948965   -8.4191865  
H    9.5238210   -5.7926296   -7.9658172  
H    6.7643136   -4.6038646   -5.0207157  
H    7.6541599    0.6163507   -7.8709745  
H    9.5798895   -0.7657638   -9.7311365  
H    9.7735999   -3.0281820   -9.2016696  
H    8.0192929   -6.5944595   -5.8772175  
C    6.1745029   -2.1408800   -4.0544034  
C    6.2180775   -1.7334918   -5.3442539  
C    5.0926412   -0.8229053   -5.4882169  
C    4.4611847   -0.7965391   -4.1513727  
N    5.0910257   -1.5671311   -3.3066964  
C    3.2973506   -0.0000934   -3.8752374  
C    2.7877444    0.7368257   -4.8884434  
O    1.7057652    1.5254555   -4.7725803  
C    3.4025815    0.7316574   -6.2486306  
O    2.8855805    1.4266378   -7.1232349  
C    4.5959743   -0.0936240   -6.5067945  
H    1.5889229    1.9175677   -5.6567458  
H    5.0113657   -0.0697227   -7.5053481  
H    6.8407164   -2.8229592   -3.5505179  
C    3.3321174    0.0004714   -1.3379332  
C    2.6974186    0.0000115   -2.5332308  
C    1.2800441   -0.0002119   -2.2052838  
C    1.2395035    0.0000643   -0.7271293  
N    2.4394063    0.0005458   -0.2131034  
C    0.0000000    0.0000000    0.0000000  
C   -1.1468701    0.0000634   -0.7169542  
O   -2.3742201    0.0000072   -0.1695492  
C   -1.1388767    0.0001606   -2.2096354  
O   -2.2206229    0.0000903   -2.7970413  
C    0.1454526    0.0001815   -2.9324239  
H   -2.9844344    0.0001023   -0.9290168  
H    0.1083580    0.0003680   -4.0135594  
H    4.3940040    0.0007617   -1.1498630  
C    2.3971438    2.0127888    3.1728260  
C    1.9431056    1.6308205    1.9564670  
C    0.8496017    0.7127664    2.2356185  
C    0.7794028    0.6545384    3.7115134  
N    1.6840587    1.4146091    4.2663826  
C   -0.1885723   -0.1578550    4.3957118  
C   -1.0476298   -0.8789867    3.6398520  
O   -2.0015663   -1.6796266    4.1448486  
C   -1.0022026   -0.8410666    2.1483229  
O   -1.8147390   -1.5232959    1.5241687  
C    0.0000000    0.0000000    1.4700000  
H    2.3054237    1.9346118    0.9892483  
H   -0.2170646   -0.1815267    5.4753125  
H   -2.4487139   -2.0549881    3.3649027  
H    3.2048689    2.6911772    3.3971983  
