64

C    1.3903762   -1.1035529   -7.2951099  
C    2.3848557   -1.9880601   -6.9470809  
C    3.1447587   -2.2452984   -8.1264774  
C    2.5622461   -1.4832199   -9.1713889  
N    1.4981947   -0.8032344   -8.6328441  
C    3.0553988   -1.4924230  -10.4796346  
C    4.1568406   -2.2851500  -10.7376802  
O    4.6793703   -2.3309864  -11.9977898  
C    4.7518138   -3.0529769   -9.7084742  
O    5.8409524   -3.7907457  -10.1241868  
C    4.2656730   -3.0445921   -8.4176904  
H    2.5424545   -2.3983504   -5.9643207  
H    0.8989509   -0.1724688   -9.1338655  
H    2.6158787   -0.9139838  -11.2805292  
H    5.4320276   -2.9353890  -11.9594534  
H    6.1831446   -4.2795765   -9.3694990  
H    4.7422876   -3.6433284   -7.6503369  
C    0.1164981   -0.7216418   -5.1523584  
C    0.3272668   -0.5036918   -6.4760461  
C   -0.6879583    0.4235573   -6.9169126  
C   -1.5133657    0.7301692   -5.7330703  
N   -0.9736297    0.0040464   -4.6965763  
C   -2.5790057    1.5704732   -5.7354628  
C   -2.9370203    2.2158103   -6.9876211  
O   -3.8800007    2.9891574   -7.0926146  
C   -2.0769064    1.9054818   -8.2539957  
O   -2.3689420    2.4426617   -9.3139079  
C   -0.9518081    0.9825226   -8.1269035  
H   -3.1711432    1.7818108   -4.8559063  
H   -0.3611563    0.7731166   -9.0083810  
H    0.6656998   -1.3515123   -4.4715281  
C    1.1188642    0.0008222   -0.8003808  
C    0.0000000    0.0000000    0.0000000  
C   -1.1323862    0.0008899   -0.8673528  
C   -0.6382663    0.0019679   -2.1969280  
N    0.7324016    0.0038481   -2.1202242  
C   -1.4770914    0.0027318   -3.3154808  
C   -2.8395473    0.0020945   -3.0876857  
O   -3.7039201    0.0024425   -4.1440349  
C   -3.3517868    0.0013931   -1.7684331  
O   -4.7300497    0.0012366   -1.7073121  
C   -2.5248543    0.0009123   -0.6644817  
H    1.3576314   -0.0056167   -2.9057046  
H   -4.5940032    0.0021826   -3.7685128  
H   -4.9934602    0.0007259   -0.7819913  
H   -2.9462577    0.0005603    0.3339659  
H    2.1619895    0.0009355   -0.5342068  
C    0.8576279    0.7185626    2.2703808  
C    0.0000000    0.0000000    1.4700000  
C   -0.8668858   -0.7285659    2.3373528  
C   -0.4876752   -0.4117774    3.6669281  
N    0.5635254    0.4678311    3.5902241  
C   -1.1297612   -0.9515493    4.7854808  
C   -2.1738724   -1.8268314    4.5576857  
O   -2.8357962   -2.3827064    5.6140350  
C   -2.5667212   -2.1555554    3.2384331  
O   -3.6226318   -3.0413663    3.1773122  
C   -1.9335634   -1.6236449    2.1344818  
H    1.0363952    0.8769718    4.3757045  
H   -0.8454472   -0.7142436    5.8013813  
H   -3.5178062   -2.9546422    5.2385129  
H   -3.8247440   -3.2102924    2.2519915  
H   -2.2566033   -1.8942483    1.1360343  
H    1.6567807    1.3889844    2.0042067  
