60

C    7.0732907   -0.0008203   -5.3572005  
C    5.8067534    0.0002367   -5.8941825  
C    5.9559584    0.0002410   -7.3127512  
C    7.3480402   -0.0011330   -7.5848368  
N    7.9976770    0.0002019   -6.3754621  
C    7.8647008   -0.0018161   -8.8840103  
C    6.9595730   -0.0014063   -9.9275242  
O    7.4098366   -0.0023893  -11.2160410  
C    5.5668446    0.0003359   -9.6762819  
O    4.7956660    0.0009576  -10.8202346  
C    5.0564380    0.0012839   -8.3948726  
H    4.8883034    0.0020256   -5.3325427  
H    8.9939586   -0.0108750   -6.2518372  
H    8.9245993   -0.0027191   -9.0980582  
H    6.6251141   -0.0015883  -11.7794900  
H    3.8688263    0.0021141  -10.5622220  
H    3.9847874    0.0027979   -8.2334989  
C    4.7161325   -0.0005435   -1.6923264  
C    5.6747634   -0.0008964   -0.7370224  
C    6.9326495   -0.0010018   -1.4679275  
C    6.5359790   -0.0007817   -2.8924403  
N    5.2378999   -0.0004319   -3.0302106  
C    7.5063008   -0.0007609   -3.9524222  
C    8.8134761   -0.0005622   -3.6051057  
O    9.8251236   -0.0005269   -4.4897572  
C    9.2455282   -0.0004053   -2.1762981  
O   10.4523082   -0.0003517   -1.9335988  
C    8.2310901   -0.0004740   -1.1072602  
H    5.5443949   -0.0009739    0.3316587  
H   10.6319760   -0.0003445   -3.9437336  
H    8.5850041   -0.0002403   -0.0850199  
C    3.2573665   -0.0002920   -1.5109385  
C    2.5379463   -0.0001709   -0.3591964  
C    1.1435038    0.0000331   -0.7338500  
C    1.1092599   -0.0000083   -2.2088477  
N    2.4227553    0.0001909   -2.6182613  
C   -0.0265539   -0.0002524   -2.9515660  
C   -1.3003040   -0.0002640   -2.2514977  
O   -2.3786790   -0.0004133   -2.8306421  
C   -1.2877727    0.0000311   -0.6895603  
O   -2.3539959    0.0003306   -0.0892030  
C    0.0000000    0.0000000    0.0000000  
H    2.9384091   -0.0000367    0.6389234  
H   -0.0296303   -0.0004086   -4.0327229  
H    2.7280482   -0.0013407   -3.5742119  
C    2.3971438    2.0127888    3.1728260  
C    1.9431056    1.6308205    1.9564670  
C    0.8496017    0.7127664    2.2356185  
C    0.7794028    0.6545384    3.7115134  
N    1.6840587    1.4146091    4.2663826  
C   -0.1885723   -0.1578550    4.3957118  
C   -1.0476298   -0.8789867    3.6398520  
O   -2.0015663   -1.6796266    4.1448486  
C   -1.0022026   -0.8410666    2.1483229  
O   -1.8147390   -1.5232959    1.5241687  
C    0.0000000    0.0000000    1.4700000  
H    2.3054237    1.9346118    0.9892483  
H   -0.2170646   -0.1815267    5.4753125  
H   -2.4487139   -2.0549881    3.3649027  
H    3.2048689    2.6911772    3.3971983  
