60

C    8.3162927   -4.4255822   -3.0476706  
C    7.2403444   -3.6017042   -3.2843743  
C    6.4008358   -3.6721547   -2.1333478  
C    7.0213002   -4.5619971   -1.2194923  
N    8.1812064   -5.0028512   -1.8067592  
C    6.4704107   -4.8705295    0.0279525  
C    5.2714743   -4.2695922    0.3590186  
O    4.6896591   -4.5353610    1.5647851  
C    4.6368667   -3.3792409   -0.5395159  
O    3.4490441   -2.8628519   -0.0643712  
C    5.1796234   -3.0746154   -1.7704282  
H    7.0797027   -3.0221781   -4.1773109  
H    8.8378470   -5.6377026   -1.3899074  
H    6.9382549   -5.5480194    0.7289028  
H    3.8724960   -4.0208552    1.5929682  
H    3.0859376   -2.2719710   -0.7311669  
H    9.1686677   -4.6482167   -3.6664192  
C    4.4889031   -2.1447422   -2.6754921  
C    4.8757511   -1.7386733   -3.9071719  
C    3.8306318   -0.8272349   -4.3470648  
C    2.8651833   -0.7989830   -3.2273799  
N    3.2457608   -1.5692929   -2.2446427  
C    1.6707636   -0.0012343   -3.2725974  
C    1.4510168    0.7351292   -4.3856180  
O    0.3782653    1.5248311   -4.5634278  
C    2.4067064    0.7280670   -5.5322520  
O    2.1427787    1.4226360   -6.5136469  
C    3.6247810   -0.0985257   -5.4618026  
H    5.7610391   -2.0225071   -4.4501093  
H    0.5021826    1.9161685   -5.4469730  
H    4.2917388   -0.0759836   -6.3132059  
C    1.0965514    0.0001358   -0.8010306  
C    0.0000000    0.0000000    0.0000000  
C   -1.1546565    0.0001470   -0.8669508  
C   -0.6372019    0.0003520   -2.2486278  
N    0.7342867    0.0007338   -2.1395012  
C   -1.4147744    0.0001354   -3.3608712  
C   -2.8576052   -0.0001047   -3.1854454  
O   -3.6427785   -0.0002490   -4.1244896  
C   -3.4275841   -0.0000727   -1.7311660  
O   -4.6406832    0.0000333   -1.5710049  
C   -2.4891868   -0.0001090   -0.6116739  
H   -1.0150456    0.0001617   -4.3654239  
H   -2.8919122   -0.0002919    0.3920871  
H    2.1388270    0.0000663   -0.5261650  
C    2.5128556    2.1077716    2.9199648  
C    1.9592212    1.6432552    4.0696553  
C    0.8915788    0.7479214    3.6910360  
C    0.8684491    0.7287414    2.2159470  
N    1.8754542    1.5738793    1.8102719  
C    0.0000000    0.0000000    1.4700000  
C   -0.9772830   -0.8200135    2.1664417  
O   -1.8021297   -1.5120829    1.5842315  
C   -0.9711318   -0.8147624    3.7284083  
O   -1.7894187   -1.5009653    4.3257297  
C    0.0140216    0.0115358    4.4216297  
H    2.2638494    1.8988021    5.0689105  
H    0.0117648    0.0094386    5.5031631  
H    3.3327358    2.7953732    2.7900019  
H    2.1123206    1.7707734    0.8551938  
