60

C    4.6588395    0.0040053   -8.0958721  
C    4.9590686    0.0040351   -6.7533637  
C    6.3813241    0.0046471   -6.6447829  
C    6.8995458    0.0052598   -7.9651511  
N    5.8268631    0.0028984   -8.8218680  
C    8.2704983    0.0062624   -8.2395155  
C    9.1340398    0.0069606   -7.1613357  
O   10.4825593    0.0083006   -7.3723066  
C    8.6362056    0.0059906   -5.8365807  
O    9.6226561    0.0064409   -4.8720821  
C    7.2838517    0.0047281   -5.5651687  
H    4.2412785    0.0025563   -5.9510127  
H    5.8845882    0.0132705   -9.8241359  
H    8.6718364    0.0065894   -9.2435724  
H   10.8955519    0.0082886   -6.4989791  
H    9.2020245    0.0057527   -4.0068239  
H    3.7039413    0.0032404   -8.5929915  
C    6.8068807    0.0035020   -4.1747020  
C    5.5278576    0.0022331   -3.7323476  
C    5.6328267    0.0014348   -2.2813202  
C    7.0869585    0.0022983   -2.0128351  
N    7.7802397    0.0035920   -3.1188859  
C    7.6138019    0.0019123   -0.6758530  
C    6.7282253    0.0011069    0.3464425  
O    7.0793819    0.0006613    1.6436435  
C    5.2547117    0.0005945    0.1078687  
O    4.5071913   -0.0002588    1.0858429  
C    4.7390840    0.0009613   -1.2727298  
H    4.6247027    0.0019722   -4.3183400  
H    8.6810612    0.0023565   -0.5089147  
H    6.2347362    0.0001389    2.1291602  
C    3.2798077    0.0005856   -1.4499661  
C    2.5571132    0.0005565   -2.5996564  
C    1.1637425    0.0001547   -2.2210366  
C    1.1336959   -0.0000200   -0.7459475  
N    2.4483509   -0.0001429   -0.3402730  
C    0.0000000    0.0000000    0.0000000  
C   -1.2757370   -0.0000187   -0.6964411  
O   -2.3524597   -0.0000640   -0.1142306  
C   -1.2676502   -0.0000874   -2.2584078  
O   -2.3355774   -0.0004102   -2.8557287  
C    0.0181551    0.0001758   -2.9516297  
H    2.9547342    0.0006074   -3.5989118  
H    0.0150776    0.0003317   -4.0331632  
H    2.7563626    0.0012823    0.6148051  
C    0.0000000    0.0000000    1.4700000  
C    1.0662921    0.0000102    2.3034270  
C    0.4961870   -0.0000064    3.6418889  
C   -0.9663858    0.0000850    3.4240247  
N   -1.2632773    0.0000084    2.1528658  
C   -1.8985362    0.0000517    4.5177257  
C   -1.3925775   -0.0004564    5.7720543  
O   -2.1456383   -0.0005410    6.8851312  
C    0.0786232   -0.0009323    6.0245000  
O    0.4683759   -0.0012588    7.1921102  
C    1.0143166   -0.0008442    4.8859032  
H    2.1107198   -0.0000632    2.0421868  
H   -2.9622183    0.0003270    4.3293377  
H   -1.5042274   -0.0009692    7.6184419  
H    2.0724152   -0.0013148    5.1109744  
