62

C    8.5346800   -3.2924134   -4.0115423  
C    7.3439892   -2.6084242   -3.9285856  
C    7.6273504   -1.2419579   -4.2236730  
C    9.0192876   -1.1517433   -4.4811602  
N    9.5401622   -2.4142557   -4.3419868  
C    9.6515491    0.0517545   -4.8076961  
C    8.8642666    1.1847688   -4.8758338  
O    9.4303030    2.3861668   -5.1908906  
C    7.4737706    1.1150541   -4.6219099  
O    6.8276505    2.3293223   -4.7287938  
C    6.8494035   -0.0718384   -4.2994542  
H    6.3888886   -3.0409416   -3.6842397  
H   10.5039139   -2.6623289   -4.4747353  
H   10.7120250    0.1271935   -5.0049288  
H    8.7148765    3.0353042   -5.1837977  
H    5.8935277    2.1942465   -4.5423208  
H    8.7465062   -4.3369446   -3.8597411  
C    4.1863608   -2.1478771   -1.3903805  
C    5.2964345   -1.7420569   -2.0496413  
C    4.8117016   -0.8307213   -3.0748247  
C    3.3454833   -0.8022508   -2.8851476  
N    2.9730514   -1.5723544   -1.8991330  
C    2.4861704   -0.0045255   -3.7159919  
C    3.0653211    0.7316065   -4.6917114  
O    2.3851028    1.5212589   -5.5401179  
C    4.5422564    0.7243200   -4.9079755  
O    5.0006622    1.4186844   -5.8151377  
C    5.4023458   -0.1022437   -4.0425490  
H    6.3180522   -2.0259915   -1.8632140  
H    3.0670367    1.9124161   -6.1155441  
H    4.1206068   -2.8299028   -0.5576195  
C    0.0000000    0.0000000    0.0000000  
C    1.0521669   -0.0011848   -0.8862341  
C    0.4917221   -0.0011931   -2.1979130  
C   -0.9187427    0.0003100   -2.0478683  
N   -1.1833170   -0.0009472   -0.7007915  
C   -1.7951698    0.0010259   -3.1372090  
C   -1.2375835    0.0005161   -4.4010425  
O   -2.0474208    0.0015256   -5.4997580  
C    0.1673584   -0.0013557   -4.5711962  
O    0.5673529   -0.0020659   -5.8915551  
C    1.0325773   -0.0023359   -3.4969890  
H    2.0953059   -0.0030542   -0.6200560  
H   -2.0989777    0.0102265   -0.2891825  
H   -2.8710930    0.0020274   -3.0295514  
H   -1.4634881    0.0006427   -6.2693593  
H    1.5290715   -0.0033076   -5.9180042  
C    3.1301144    0.0010313    3.1728260  
C    2.5367765    0.0002768    1.9564670  
C    1.1089900   -0.0001027    2.2356185  
C    1.0177864    0.0004150    3.7115134  
N    2.1993570    0.0011613    4.2663826  
C   -0.2459220    0.0002880    4.3957118  
C   -1.3675327    0.0000606    3.6398520  
O   -2.6129319   -0.0000866    4.1448486  
C   -1.3083589   -0.0000910    2.1483229  
O   -2.3693264   -0.0004206    1.5241687  
C    0.0000000    0.0000000    1.4700000  
H    3.0096015    0.0001008    0.9892483  
H   -0.2829642    0.0004689    5.4753125  
H   -3.1967446   -0.0002093    3.3649027  
H    4.1849273    0.0015113    3.3971983  
