62

C    0.0000000    0.0000000    0.0000000  
C    0.8624650    0.6026707   -0.8862345  
C    0.4034335    0.2811304   -2.1979133  
C   -0.7526801   -0.5268382   -2.0478689  
N   -0.9686613   -0.6796581   -0.7007920  
C   -1.4709353   -1.0290684   -3.1372098  
C   -1.0139476   -0.7095916   -4.4010432  
O   -1.6778303   -1.1733780   -5.4997590  
C    0.1378540    0.0949066   -4.5711968  
O    0.4658805    0.3238071   -5.8915553  
C    0.8470805    0.5904897   -3.4969894  
H    1.7179281    1.1996001   -0.6200558  
H   -1.7250493   -1.1958309   -0.2891839  
H   -2.3527528   -1.6455178   -3.0295525  
H   -1.1990481   -0.8390917   -6.2693605  
H    1.2542954    0.8745389   -5.9180043  
C    3.2099370    1.3549230   -2.9764949  
C    4.1217029    2.2557326   -3.4251592  
C    3.5108361    2.9592740   -4.5282033  
C    2.1587405    2.3904423   -4.6865015  
N    2.0389128    1.4226397   -3.7159919  
C    1.2618946    2.7888095   -5.6238786  
C    1.6545931    3.8483840   -6.5380040  
O    0.9180799    4.2769392   -7.4167463  
C    3.0818939    4.4650974   -6.3887335  
O    3.4238119    5.3575664   -7.1528364  
C    3.9594852    3.9526520   -5.3394072  
H    5.1095280    2.4096566   -3.0287713  
H    0.2750297    2.3584678   -5.7229395  
H    3.2950368    0.6471481   -2.1679759  
C    7.7877105    2.0519284   -4.4912110  
C    8.6367870    3.1057788   -4.4982284  
C    7.7987557    4.2607588   -4.7814677  
C    6.4349497    3.7064995   -4.9207987  
N    6.4222185    2.4122032   -4.7516120  
C    5.3003964    4.5404731   -5.2077908  
C    5.5183163    5.8678640   -5.3487837  
O    4.5523254    6.7626782   -5.6175006  
C    6.8829418    6.4575141   -5.2136105  
O    7.0074709    7.6739896   -5.3546787  
C    8.0305854    5.5811237   -4.9190276  
H    9.7004128    3.1000937   -4.3316702  
H    5.0130687    7.6201032   -5.6586142  
H    9.0026472    6.0471308   -4.8286841  
H    8.0198641    1.0131883   -4.3177267  
C    3.3041272   -0.0001177    3.0120429  
C    2.5845372    0.0004780    1.8395852  
C    1.2040006    0.0000008    2.1983588  
C    1.1422373   -0.0006037    3.6154372  
N    2.4348639   -0.0026109    4.0777464  
C   -0.0655181   -0.0008797    4.3197917  
C   -1.2321768   -0.0002324    3.5801400  
O   -2.4392816   -0.0001146    4.2172520  
C   -1.1911209    0.0000007    2.1655264  
O   -2.4371527    0.0002320    1.5732860  
C    0.0000000    0.0000000    1.4700000  
H    3.0031534    0.0000661    0.8477417  
H    2.7054629    0.0071099    5.0445261  
H   -0.1193549   -0.0014844    5.3997470  
H   -3.1132988    0.0000648    3.5251786  
H   -2.3200282    0.0004071    0.6183591  
H    4.3686625   -0.0004071    3.1724291  
