60

C    3.1743510   -5.4762958   -8.9100876  
C    3.3485134   -5.0078893  -10.1917781  
C    3.0467002   -3.6139576  -10.1702532  
C    2.6918587   -3.2854778   -8.8367937  
N    2.7779434   -4.4394585   -8.0981897  
C    2.3329750   -1.9917716   -8.4465178  
C    2.3325832   -1.0117498   -9.4200343  
O    1.9905329    0.2686339   -9.0934868  
C    2.6832581   -1.3199497  -10.7560202  
O    2.6343030   -0.2357713  -11.6077838  
C    3.0371502   -2.5960592  -11.1418067  
H    3.6542890   -5.5984872  -11.0383525  
H    2.5940591   -4.5136409   -7.1139821  
H    2.0545175    0.7844747   -9.9077830  
H    2.8849068   -0.5296846  -12.4889287  
H    3.3007528   -2.8019999  -12.1726220  
H    3.3001466   -6.4682434   -8.5111232  
C    2.5563879   -2.1074458   -5.9371929  
C    1.9637245   -1.6426518   -7.0671445  
C    0.9098264   -0.7472303   -6.6519876  
C    0.9372953   -0.7283017   -5.1769702  
N    1.9574935   -1.5736538   -4.8062060  
C    0.0950446    0.0004351   -4.4015596  
C   -0.9054232    0.8207087   -5.0639425  
O   -1.7097170    1.5127956   -4.4536737  
C   -0.9528376    0.8157262   -6.6252025  
O   -1.7910235    1.5021491   -7.1939976  
C    0.0078422   -0.0105933   -7.3519361  
H   -0.0314996   -0.0083091   -8.4327557  
H    3.3801399   -2.7951868   -5.8355365  
H    2.2269416   -1.7707466   -3.8598452  
C    3.3321173    0.0004713   -1.3379338  
C    2.6974181    0.0000116   -2.5332314  
C    1.2800438   -0.0002119   -2.2052841  
C    1.2395034    0.0000643   -0.7271299  
N    2.4394062    0.0005460   -0.2131038  
C    0.0000000    0.0000000    0.0000000  
C   -1.1468702    0.0000634   -0.7169543  
O   -2.3742203    0.0000074   -0.1695487  
C   -1.1388770    0.0001607   -2.2096355  
O   -2.2206234    0.0000905   -2.7970411  
C    0.1454522    0.0001815   -2.9324241  
H    3.1367984   -0.0000653   -3.5160950  
H   -2.9844346    0.0001026   -0.9290167  
H    4.3940038    0.0007618   -1.1498640  
C    2.4951002    2.0940188    2.9809380  
C    1.9440701    1.6314916    1.8291961  
C    0.8759964    0.7350050    2.2038498  
C    0.8497377    0.7130254    3.6788474  
N    1.8560616    1.5571714    4.0882609  
C   -0.0205033   -0.0168748    4.4215661  
C   -0.9962600   -0.8356168    3.7214979  
O   -1.8224391   -1.5286685    4.3006425  
C   -0.9864710   -0.8277881    2.1595606  
O   -1.8030528   -1.5133726    1.5592035  
C    0.0000000    0.0000000    1.4700000  
H    2.2509283    1.8888011    0.8310761  
H   -0.0229599   -0.0187323    5.5027230  
H    3.3143982    2.7817323    3.1139444  
H    2.0889452    1.7545833    5.0442112  
