64

C    0.0000000    0.0000000    0.0000000  
C    1.0521666   -0.0011901   -0.8862345  
C    0.4917216   -0.0011955   -2.1979134  
C   -0.9187431    0.0003149   -2.0478682  
N   -1.1833167   -0.0009411   -0.7007910  
C   -1.7951706    0.0010353   -3.1372088  
C   -1.2375843    0.0005228   -4.4010420  
O   -2.0474221    0.0015365   -5.4997576  
C    0.1673574   -0.0013564   -4.5711963  
O    0.5673516   -0.0020683   -5.8915555  
C    1.0325767   -0.0023410   -3.4969894  
H    2.0953060   -0.0030649   -0.6200564  
H   -2.0989775    0.0102373   -0.2891820  
H   -1.4634896    0.0006502   -6.2693588  
H    1.5290702   -0.0033149   -5.9180051  
H    2.1042146   -0.0039607   -3.6584460  
C   -3.2578658    0.0024043   -2.9908500  
C   -3.9809874    0.0031290   -1.8468773  
C   -5.3695594    0.0043917   -2.2808874  
C   -5.2983973    0.0043646   -3.7578844  
N   -4.0631146    0.0031214   -4.1798618  
C   -6.4794717    0.0054036   -4.5765101  
C   -7.6771923    0.0060343   -3.9481800  
O   -8.8597161    0.0070297   -4.5866766  
C   -7.7819057    0.0057086   -2.4591548  
O   -8.9049096    0.0064469   -1.9550871  
C   -6.5558062    0.0046825   -1.6414736  
H   -3.6170581    0.0027521   -0.8336490  
H   -6.3979234    0.0055647   -5.6536635  
H   -9.5255218    0.0072474   -3.8754417  
C   -4.3641479    2.1234114    1.5626647  
C   -5.0806673    1.6240504    2.6255409  
C   -6.0708819    0.7503220    2.0863993  
C   -5.9084930    0.7562952    0.6773145  
N   -4.8649257    1.6016871    0.3928895  
C   -6.7169761    0.0042449   -0.1803356  
C   -7.7072371   -0.7681368    0.3949788  
O   -8.5249158   -1.5222131   -0.3960868  
C   -7.8851427   -0.7870293    1.7988342  
O   -8.9138468   -1.6053102    2.2177970  
C   -7.0880982   -0.0451556    2.6455156  
H   -4.9112722    1.8612945    3.6618872  
H   -4.5114119    1.7985936   -0.5259343  
H   -9.1362749   -1.9767255    0.1979867  
H   -8.9663835   -1.5607267    3.1774095  
H   -7.2482665   -0.0796669    3.7167922  
H   -3.5364195    2.8115669    1.5463376  
C    3.3003543   -0.0005276    2.9438989  
C    2.5232812   -0.0003497    4.0790748  
C    1.1623199    0.0001319    3.6520102  
C    1.1711883   -0.0000583    2.2336141  
N    2.4852299    0.0014920    1.8362361  
C    0.0000000    0.0000000    1.4700000  
C   -1.2020384   -0.0000520    2.1506477  
O   -2.3759250   -0.0003494    1.4542253  
C   -1.2314658    0.0005113    3.5655508  
O   -2.5054393    0.0008037    4.0950179  
C   -0.0764518    0.0007272    4.3195194  
H    2.8919952    0.0005619    5.0905303  
H    2.8036267   -0.0088181    0.8841339  
H   -3.0835639   -0.0000348    2.1118817  
H   -2.4360050    0.0011527    5.0545920  
H   -0.1304098    0.0013421    5.4019087  
H    4.3715549   -0.0004895    2.8367138  
