60

C    3.1917519   -5.4961172   -8.9730340  
C    2.7940248   -4.5343433   -8.0734381  
C    2.6876760   -3.3082704   -8.7945723  
C    3.0354017   -3.5860378  -10.1413682  
N    3.3378377   -4.9231150  -10.2146768  
C    3.0403131   -2.6061811  -11.1386868  
C    2.6874818   -1.3225987  -10.7697653  
O    2.6752185   -0.3274704  -11.7038875  
C    2.3377771   -1.0256738   -9.4309758  
O    2.0110501    0.2983695   -9.2224024  
C    2.3329750   -1.9917716   -8.4465178  
H    2.6049905   -4.6962864   -7.0260447  
H    3.6099771   -5.4117081  -11.0484625  
H    3.3044875   -2.8114114  -12.1669357  
H    2.4050590    0.4770149  -11.2422794  
H    1.7877207    0.4138853   -8.2937566  
H    3.3841671   -6.5452060   -8.8269246  
C    2.5563879   -2.1074458   -5.9371929  
C    1.9637245   -1.6426518   -7.0671445  
C    0.9098264   -0.7472303   -6.6519876  
C    0.9372953   -0.7283017   -5.1769702  
N    1.9574935   -1.5736538   -4.8062060  
C    0.0950446    0.0004351   -4.4015596  
C   -0.9054232    0.8207087   -5.0639425  
O   -1.7097170    1.5127956   -4.4536737  
C   -0.9528376    0.8157262   -6.6252025  
O   -1.7910235    1.5021491   -7.1939976  
C    0.0078422   -0.0105933   -7.3519361  
H   -0.0314996   -0.0083091   -8.4327557  
H    3.3801399   -2.7951868   -5.8355365  
H    2.2269416   -1.7707466   -3.8598452  
C    3.3321173    0.0004713   -1.3379338  
C    2.6974181    0.0000116   -2.5332314  
C    1.2800438   -0.0002119   -2.2052841  
C    1.2395034    0.0000643   -0.7271299  
N    2.4394062    0.0005460   -0.2131038  
C    0.0000000    0.0000000    0.0000000  
C   -1.1468702    0.0000634   -0.7169543  
O   -2.3742203    0.0000074   -0.1695487  
C   -1.1388770    0.0001607   -2.2096355  
O   -2.2206234    0.0000905   -2.7970411  
C    0.1454522    0.0001815   -2.9324241  
H    3.1367984   -0.0000653   -3.5160950  
H   -2.9844346    0.0001026   -0.9290167  
H    4.3940038    0.0007618   -1.1498640  
C    0.8681109    0.7263879    2.2709268  
C    0.6127770    0.5096195    3.5869401  
C   -0.4920590   -0.4175482    3.6542670  
C   -0.8620974   -0.7254003    2.2596025  
N    0.0000000    0.0000000    1.4700000  
C   -1.8641242   -1.5660088    1.8976294  
C   -2.6293522   -2.2103885    2.9520183  
O   -3.5512764   -2.9839180    2.7283916  
C   -2.2549728   -1.8987399    4.4361073  
O   -2.8923672   -2.4351063    5.3323774  
C   -1.1543735   -0.9755647    4.7012123  
H    1.1382914    0.9492124    4.4159191  
H   -2.1192137   -1.7782617    0.8686553  
H   -0.9013378   -0.7652422    5.7314848  
H    1.6172880    1.3558399    1.8188057  
