60

C    0.3213402    0.6904750   -9.3145065  
C    1.4253149   -0.1263374   -9.3952767  
C    1.9114600   -0.0381913  -10.7333698  
C    1.0567964    0.8551063  -11.4287080  
N    0.1010265    1.2776590  -10.5384443  
C    1.2380101    1.1803268  -12.7763670  
C    2.3015520    0.5933058  -13.4339851  
O    2.5247076    0.8761875  -14.7504920  
C    3.1651175   -0.3008010  -12.7574906  
O    4.1771036   -0.8025306  -13.5496370  
C    2.9867862   -0.6223058  -11.4280706  
H    1.8297550   -0.7143246   -8.5892421  
H   -0.6371236    1.9264241  -10.7439167  
H    0.5900700    1.8603157  -13.3120817  
H    3.3045885    0.3687513  -15.0104154  
H    4.7140268   -1.3970542  -13.0168530  
H    3.6644519   -1.3105916  -10.9366334  
C    0.2908547   -0.7259202   -5.1324816  
C    0.5947728   -0.5089643   -6.4380999  
C   -0.3866749    0.4179357   -6.9504006  
C   -1.2937756    0.7254267   -5.8281672  
N   -0.8287665    0.0000939   -4.7555305  
C   -2.3565432    1.5657114   -5.9065952  
C   -2.6250284    2.2100989   -7.1814348  
O   -3.5581859    2.9833515   -7.3534773  
C   -1.6774681    1.8988297   -8.3835353  
O   -1.8937476    2.4352061   -9.4618598  
C   -0.5642181    0.9759846   -8.1764502  
H    1.4129870   -0.9482651   -6.9804595  
H   -3.0094299    1.7777026   -5.0713054  
H    0.7904777   -1.3552687   -4.4140196  
C    1.0672569   -0.0000698   -0.8321910  
C    0.0000000    0.0000000    0.0000000  
C   -1.1601223   -0.0000736   -0.8778472  
C   -0.5938729   -0.0000768   -2.2438435  
N    0.7113367   -0.0001553   -2.2234123  
C   -1.4286985   -0.0001877   -3.4135239  
C   -2.7683113   -0.0006798   -3.2270524  
O   -3.6653902   -0.0008302   -4.2276970  
C   -3.3702024   -0.0010610   -1.8610774  
O   -4.5974910   -0.0013779   -1.7662963  
C   -2.4926825   -0.0008943   -0.6770658  
H   -4.5324245   -0.0012258   -3.7833954  
H   -2.9677772   -0.0012974    0.2947961  
H    2.1134391   -0.0000547   -0.5705119  
C    0.0000000    0.0000000    1.4700000  
C    1.0662921    0.0000102    2.3034270  
C    0.4961870   -0.0000064    3.6418889  
C   -0.9663858    0.0000850    3.4240247  
N   -1.2632773    0.0000084    2.1528658  
C   -1.8985362    0.0000517    4.5177257  
C   -1.3925775   -0.0004564    5.7720543  
O   -2.1456383   -0.0005410    6.8851312  
C    0.0786232   -0.0009323    6.0245000  
O    0.4683759   -0.0012588    7.1921102  
C    1.0143166   -0.0008442    4.8859032  
H    2.1107198   -0.0000632    2.0421868  
H   -2.9622183    0.0003270    4.3293377  
H   -1.5042274   -0.0009692    7.6184419  
H    2.0724152   -0.0013148    5.1109744  
