60

C    4.5310989   -0.0678943   -6.6187593  
C    5.7206827   -0.7256169   -6.8303243  
C    6.1864750   -0.3385960   -8.1217774  
C    5.2317159    0.5646673   -8.6551410  
N    4.2386830    0.7054370   -7.7177589  
C    5.3674533    1.1504077   -9.9173909  
C    6.4875677    0.8184936  -10.6545169  
O    6.6699718    1.3619173  -11.8932383  
C    7.4511619   -0.0810887  -10.1396823  
O    8.5096045   -0.3108359  -10.9942344  
C    7.3177677   -0.6595231   -8.8946348  
H    6.1938922   -1.4020842   -6.1393410  
H    3.4301973    1.2930973   -7.8125585  
H    4.6432685    1.8394608  -10.3296588  
H    7.5013067    1.0025084  -12.2293538  
H    9.1137257   -0.9284686  -10.5709482  
H    8.0721949   -1.3451743   -8.5269391  
C    4.4889027   -2.1447426   -2.6754911  
C    4.8757513   -1.7386740   -3.9071712  
C    3.8306323   -0.8272355   -4.3470644  
C    2.8651834   -0.7989832   -3.2273798  
N    3.2457607   -1.5692932   -2.2446421  
C    1.6707636   -0.0012343   -3.2725974  
C    1.4510173    0.7351290   -4.3856182  
O    0.3782656    1.5248306   -4.5634278  
C    2.4067068    0.7280664   -5.5322517  
O    2.1427797    1.4226355   -6.5136473  
C    3.6247816   -0.0985265   -5.4618021  
H    5.7610391   -2.0225077   -4.4501081  
H    0.5021832    1.9161681   -5.4469732  
H    4.9956250   -2.8269105   -2.0115237  
C    1.0965514    0.0001358   -0.8010306  
C    0.0000000    0.0000000    0.0000000  
C   -1.1546565    0.0001470   -0.8669508  
C   -0.6372019    0.0003520   -2.2486278  
N    0.7342867    0.0007338   -2.1395012  
C   -1.4147744    0.0001354   -3.3608712  
C   -2.8576052   -0.0001047   -3.1854454  
O   -3.6427785   -0.0002490   -4.1244896  
C   -3.4275841   -0.0000727   -1.7311660  
O   -4.6406832    0.0000333   -1.5710049  
C   -2.4891868   -0.0001090   -0.6116739  
H   -1.0150456    0.0001617   -4.3654239  
H   -2.8919122   -0.0002919    0.3920871  
H    2.1388270    0.0000663   -0.5261650  
C    2.4951002    2.0940188    2.9809380  
C    1.9440701    1.6314916    1.8291961  
C    0.8759964    0.7350050    2.2038498  
C    0.8497377    0.7130254    3.6788474  
N    1.8560616    1.5571714    4.0882609  
C   -0.0205033   -0.0168748    4.4215661  
C   -0.9962600   -0.8356168    3.7214979  
O   -1.8224391   -1.5286685    4.3006425  
C   -0.9864710   -0.8277881    2.1595606  
O   -1.8030528   -1.5133726    1.5592035  
C    0.0000000    0.0000000    1.4700000  
H    2.2509283    1.8888011    0.8310761  
H   -0.0229599   -0.0187323    5.5027230  
H    3.3143982    2.7817323    3.1139444  
H    2.0889452    1.7545833    5.0442112  
