60

C    6.7550130    0.0027415   -6.5169157  
C    7.4515064    0.0028673   -5.3305921  
C    8.8388039    0.0032774   -5.6622646  
C    8.9283030    0.0036736   -7.0778627  
N    7.6449781    0.0013831   -7.5653953  
C   10.1496190    0.0044416   -7.7584315  
C   11.3015710    0.0051236   -6.9960774  
O   12.5209183    0.0062391   -7.6094314  
C   11.2328235    0.0043674   -5.5825393  
O   12.4670189    0.0047712   -4.9660142  
C   10.0283117    0.0033363   -4.9104694  
H    7.0135501    0.0015805   -4.3471362  
H    7.3933566    0.0116412   -8.5372812  
H   10.2245918    0.0046028   -8.8371268  
H   13.1812551    0.0062570   -6.9042923  
H   12.3312192    0.0042370   -4.0135639  
H   10.0070917    0.0025930   -3.8269444  
C    3.1006060    0.0006268   -3.9654947  
C    4.3994796    0.0008536   -4.3456353  
C    4.3646299    0.0008284   -5.8000373  
C    2.9251426    0.0004561   -6.1383563  
N    2.1793122    0.0004172   -5.0670359  
C    2.4634072    0.0003690   -7.4991968  
C    3.3972679    0.0010304   -8.4775822  
O    3.1090960    0.0010285   -9.7902116  
C    4.8575579    0.0017905   -8.1682053  
O    5.6513847    0.0022448   -9.1089813  
C    5.3059853    0.0018213   -6.7643398  
H    5.2733153    0.0011079   -3.7167578  
H    1.4054437   -0.0001122   -7.7174239  
H    3.9761796    0.0016104  -10.2344188  
C    3.2798085    0.0005859   -1.4499648  
C    2.5571146    0.0005569   -2.5996553  
C    1.1637437    0.0001551   -2.2210359  
C    1.1336966   -0.0000198   -0.7459471  
N    2.4483513   -0.0001427   -0.3402720  
C    0.0000000    0.0000000    0.0000000  
C   -1.2757366   -0.0000185   -0.6964416  
O   -2.3524595   -0.0000640   -0.1142313  
C   -1.2676493   -0.0000870   -2.2584084  
O   -2.3355759   -0.0004098   -2.8557296  
C    0.0181563    0.0001763   -2.9516295  
H    0.0150795    0.0003323   -4.0331630  
H    4.3498549    0.0008614   -1.3200020  
H    2.7563627    0.0012824    0.6148062  
C    0.0000000    0.0000000    1.4700000  
C    1.0541688    0.0001722    2.3260392  
C    0.5103138    0.0000454    3.6635956  
C   -0.9576371   -0.0002459    3.5155732  
N   -1.2018458    0.0001392    2.1615969  
C   -1.8348311   -0.0008317    4.5510609  
C   -1.2972847   -0.0009736    5.9014604  
O   -2.0050672   -0.0014265    6.9001319  
C    0.2542623   -0.0004184    6.0817573  
O    0.7184670   -0.0002256    7.2139121  
C    1.0974552   -0.0000873    4.8889129  
H    2.0940752    0.0005483    2.0517982  
H   -2.9081052   -0.0011668    4.4207061  
H    2.1707277    0.0000911    5.0223670  
H   -2.1128194   -0.0014912    1.7406791  
