64

C    5.7554223   -0.0170914   -2.0504792  
C    6.9923547   -0.0274544   -1.4485178  
C    6.7698532   -0.0170657   -0.0396229  
C    5.3656236   -0.0006277    0.1598689  
N    4.7795897    0.0008677   -1.0815734  
C    4.7823655    0.0126087    1.4304684  
C    5.6321446    0.0088818    2.5195224  
O    5.1157366    0.0209829    3.7829268  
C    7.0359426   -0.0070683    2.3408776  
O    7.7467592   -0.0084166    3.5232821  
C    7.6120393   -0.0198591    1.0876918  
H    7.9386302   -0.0397482   -1.9617473  
H    3.7128637    0.0253093    1.5892348  
H    5.8701611    0.0161160    4.3863208  
H    8.6856723   -0.0195880    3.3137053  
H    8.6905542   -0.0317639    0.9821341  
H    5.4920675   -0.0196439   -3.0943167  
C    3.3321166    0.0004717   -1.3379342  
C    2.6974176    0.0000121   -2.5332317  
C    1.2800432   -0.0002115   -2.2052842  
C    1.2395033    0.0000645   -0.7271297  
N    2.4394059    0.0005461   -0.2131042  
C    0.0000000    0.0000000    0.0000000  
C   -1.1468704    0.0000636   -0.7169540  
O   -2.3742206    0.0000073   -0.1695488  
C   -1.1388774    0.0001610   -2.2096351  
O   -2.2206238    0.0000908   -2.7970408  
C    0.1454514    0.0001820   -2.9324241  
H    3.1367977   -0.0000646   -3.5160953  
H   -2.9844351    0.0001027   -0.9290163  
C    0.9246149   -0.7181114   -5.2309987  
C    0.0950440    0.0004357   -4.4015596  
C   -0.8009657    0.7292751   -5.2385537  
C   -0.4676174    0.4126619   -6.5804038  
N    0.5854643   -0.4671101   -6.5399387  
C   -1.1476015    0.9527186   -7.6761911  
C   -2.1831571    1.8281106   -7.4125794  
O   -2.8808318    2.3842625   -8.4455169  
C   -2.5304878    2.1566632   -6.0805766  
O   -3.5835497    3.0426144   -5.9831352  
C   -1.8599262    1.6244717   -4.9990755  
H    1.0310605   -0.8761829   -7.3412409  
H   -0.8983259    0.7155475   -8.7012824  
H   -3.5494788    2.9562311   -8.0467327  
H   -3.7537879    3.2114096   -5.0513999  
H   -2.1484983    1.8949489   -3.9900922  
H    1.7323254   -1.3886934   -4.9924968  
C    2.5285572    2.1210227    2.9438989  
C    1.9331703    1.6216660    4.0790748  
C    0.8903039    0.7472258    3.6520102  
C    0.8972198    0.7527806    2.2336141  
N    1.9028376    1.5986179    1.8362361  
C    0.0000000    0.0000000    1.4700000  
C   -0.9207814   -0.7726952    2.1506477  
O   -1.8198395   -1.5274828    1.4542253  
C   -0.9436862   -0.7911793    3.5655508  
O   -1.9197945   -1.6098497    4.0950179  
C   -0.0590329   -0.0485852    4.3195194  
H    2.2150357    1.8593692    5.0905303  
H    2.1533708    1.7953814    0.8841339  
H   -2.3621246   -1.9821033    2.1118817  
H   -1.8668290   -1.5649508    5.0545920  
H   -0.1007624   -0.0827977    5.4019087  
H    3.3491200    2.8096064    2.8367138  
