60

C    3.0833021   -0.6990735   -6.2802624  
C    4.4356550   -0.4490265   -6.3132266  
C    4.6648075    0.4606311   -7.3877546  
C    3.4044203    0.7325028   -7.9788864  
N    2.4661808    0.0108488   -7.2835173  
C    3.2507123    1.5929775   -9.0700992  
C    4.3900758    2.1901096   -9.5735521  
O    4.2970444    3.0393696  -10.6380305  
C    5.6565917    1.9311193   -8.9976362  
O    6.6941866    2.6012127   -9.6122203  
C    5.8090086    1.0821417   -7.9212849  
H    5.1671577   -0.8712785   -5.6456935  
H    2.2929081    1.8042303   -9.5252754  
H    5.1954433    3.3404325  -10.8264611  
H    7.5132271    2.3713005   -9.1628682  
H    6.7919396    0.9029741   -7.5014954  
H    2.5102982   -1.3287660   -5.6213903  
C   -1.0641738    0.0073911   -4.6315339  
C    0.2004553    0.0078183   -5.1262942  
C    0.0892951    0.0101562   -6.5659028  
C   -1.3541077    0.0110918   -6.8714810  
N   -1.9986529    0.0089309   -5.6559783  
C   -1.8747034    0.0136545   -8.1247478  
C   -0.9518127    0.0153967   -9.2476040  
O   -1.3222275    0.0176759  -10.4142612  
C    0.5810421    0.0141943   -8.9473384  
O    1.3676723    0.0153351   -9.8846077  
C    1.0213768    0.0116830   -7.5545176  
H    1.1076402    0.0064487   -4.5486895  
H   -2.9367621    0.0144294   -8.3270860  
H   -2.9945000    0.0104949   -5.5321491  
C    1.1319245    0.0015656   -0.8009271  
C    0.7969914    0.0034943   -2.1169404  
C   -0.6453340    0.0035712   -2.1842672  
C   -1.1266833    0.0015434   -0.7896027  
N    0.0000000    0.0000000    0.0000000  
C   -2.4346131    0.0013965   -0.4276296  
C   -3.4350110    0.0031409   -1.4820182  
O   -4.6384610    0.0030975   -1.2583916  
C   -2.9478961    0.0050507   -2.9661073  
O   -3.7809383    0.0062220   -3.8623773  
C   -1.5113824    0.0053091   -3.2312124  
H    1.4821237    0.0045409   -2.9459193  
H   -2.7664564    0.0000233    0.6013449  
H    2.1104315    0.0009392   -0.3488061  
C    0.0000000    0.0000000    1.4700000  
C    1.0662921    0.0000102    2.3034270  
C    0.4961870   -0.0000064    3.6418889  
C   -0.9663858    0.0000850    3.4240247  
N   -1.2632773    0.0000084    2.1528658  
C   -1.8985362    0.0000517    4.5177257  
C   -1.3925775   -0.0004564    5.7720543  
O   -2.1456383   -0.0005410    6.8851312  
C    0.0786232   -0.0009323    6.0245000  
O    0.4683759   -0.0012588    7.1921102  
C    1.0143166   -0.0008442    4.8859032  
H    2.1107198   -0.0000632    2.0421868  
H   -2.9622183    0.0003270    4.3293377  
H   -1.5042274   -0.0009692    7.6184419  
H    2.0724152   -0.0013148    5.1109744  
