60

C    5.0182713   -4.2338288   -3.0343695  
C    5.8050956   -4.8965197   -3.9477238  
C    5.3479726   -4.5165116   -5.2443472  
C    4.2712718   -3.6122091   -5.0575933  
N    4.0961215   -3.4641024   -3.7040774  
C    3.5771660   -3.0322265   -6.1237199  
C    3.9774698   -3.3710743   -7.4016542  
O    3.3343819   -2.8334699   -8.4788891  
C    5.0492780   -4.2718041   -7.6083658  
O    5.3274997   -4.5087653   -8.9386992  
C    5.7343060   -4.8445604   -6.5570755  
H    6.6088572   -5.5717136   -3.7088221  
H    3.4103093   -2.8740658   -3.2687619  
H    3.7650541   -3.1971400   -9.2634455  
H    6.0631038   -5.1266964   -8.9902043  
H    6.5510544   -5.5312583   -6.7464058  
H    5.0409669   -4.2504327   -1.9581877  
C    2.4602717   -2.0944452   -5.9392893  
C    1.9124728   -1.6318083   -4.7860506  
C    0.8432452   -0.7354854   -5.1577935  
C    0.8127879   -0.7137213   -6.6327140  
N    1.8180299   -1.5578231   -7.0448669  
C   -0.0596374    0.0159822   -7.3730582  
C   -1.0334829    0.8347251   -6.6703351  
O   -1.8613777    1.5276084   -7.2472263  
C   -1.0192493    0.8271228   -5.1084309  
O   -1.8341905    1.5127102   -4.5058515  
C   -0.0307352   -0.0004646   -4.4215603  
H    2.2221962   -1.8889424   -3.7887709  
H   -0.0651704    0.0176836   -8.4542048  
H    2.0482131   -1.7553490   -8.0014478  
C    3.2573670   -0.0002920   -1.5109380  
C    2.5379468   -0.0001709   -0.3591961  
C    1.1435043    0.0000332   -0.7338500  
C    1.1092609   -0.0000082   -2.2088477  
N    2.4227562    0.0001909   -2.6182613  
C   -0.0265532   -0.0002522   -2.9515663  
C   -1.3003035   -0.0002639   -2.2514981  
O   -2.3786784   -0.0004131   -2.8306429  
C   -1.2877725    0.0000312   -0.6895608  
O   -2.3539958    0.0003307   -0.0892036  
C    0.0000000    0.0000000    0.0000000  
H    2.9384091   -0.0000369    0.6389239  
H    4.3270394   -0.0004765   -1.6439446  
H    2.7280494   -0.0013406   -3.5742113  
C    0.8681109    0.7263879    2.2709268  
C    0.6127770    0.5096195    3.5869401  
C   -0.4920590   -0.4175482    3.6542670  
C   -0.8620974   -0.7254003    2.2596025  
N    0.0000000    0.0000000    1.4700000  
C   -1.8641242   -1.5660088    1.8976294  
C   -2.6293522   -2.2103885    2.9520183  
O   -3.5512764   -2.9839180    2.7283916  
C   -2.2549728   -1.8987399    4.4361073  
O   -2.8923672   -2.4351063    5.3323774  
C   -1.1543735   -0.9755647    4.7012123  
H    1.1382914    0.9492124    4.4159191  
H   -2.1192137   -1.7782617    0.8686553  
H   -0.9013378   -0.7652422    5.7314848  
H    1.6172880    1.3558399    1.8188057  
