62

C   10.1179881   -2.1191345    2.9427917  
C   11.3374299   -1.6209821    2.5462140  
C   11.0924236   -0.7480805    1.4450261  
C    9.6930970   -0.7532891    1.2131132  
N    9.1317065   -1.5974513    2.1387744  
C    9.0917678   -0.0017382    0.1990309  
C    9.9180709    0.7693484   -0.5952147  
O    9.3832845    1.5228873   -1.5998027  
C   11.3166517    0.7874617   -0.3796701  
O   12.0032666    1.6044721   -1.2539687  
C   11.9105940    0.0460801    0.6203863  
H   12.2868949   -1.8584817    2.9946607  
H    8.1509216   -1.7935956    2.2257761  
H   10.1230588    1.9764997   -2.0243424  
H   12.9402133    1.5594296   -1.0401798  
H   12.9845807    0.0799710    0.7613834  
H    9.8738767   -2.8064024    3.7346438  
C    6.6685710   -0.0005968    0.8976876  
C    7.6427397   -0.0013904   -0.0483931  
C    6.9825040   -0.0021114   -1.3324975  
C    5.5334440   -0.0016402   -1.0549831  
N    5.4101705   -0.0011223    0.3153065  
C    4.5679461   -0.0016854   -2.0086701  
C    4.9837200   -0.0024604   -3.4013893  
O    4.1902296   -0.0026235   -4.3334163  
C    6.5131881   -0.0032213   -3.7184584  
O    6.8752469   -0.0041838   -4.8872922  
C    7.4587612   -0.0028165   -2.6050211  
H    8.5159867   -0.0031428   -2.8330520  
H    6.7640843    0.0001112    1.9713569  
H    4.5400776    0.0008355    0.8152882  
C    3.1301149   -0.0010311   -1.7028252  
C    2.5367768   -0.0002767   -0.4864665  
C    1.1089904    0.0001028   -0.7656183  
C    1.0177872   -0.0004148   -2.2415132  
N    2.1993578   -0.0011611   -2.7963820  
C   -0.2459209   -0.0002877   -2.9257118  
C   -1.3675319   -0.0000605   -2.1698524  
O   -2.6129313    0.0000867   -2.6748490  
C   -1.3083584    0.0000910   -0.6783232  
O   -2.3693261    0.0004206   -0.0541692  
C    0.0000000    0.0000000    0.0000000  
H    3.0096017   -0.0001007    0.4807525  
H   -0.2829630   -0.0004687   -4.0053125  
H   -3.1967441    0.0002094   -1.8949034  
C    0.8676693    0.7151171    2.2619005  
C    0.5875920    0.4624972    3.5848544  
C   -0.5048400   -0.4542819    3.6114698  
C   -0.8517165   -0.7276451    2.2635546  
N    0.0000000    0.0000000    1.4700000  
C   -1.8902865   -1.5946756    1.9108239  
C   -2.5912627   -2.1969500    2.9375057  
O   -3.6148162   -3.0527051    2.6493466  
C   -2.2603868   -1.9365747    4.2886322  
O   -3.0513550   -2.6123276    5.1947621  
C   -1.2361111   -1.0811317    4.6373480  
H    1.1060808    0.8876438    4.4271209  
H   -2.1597133   -1.8070987    0.8854031  
H   -3.9636755   -3.3565188    3.4974381  
H   -2.7621927   -2.3810384    6.0827341  
H   -1.0058879   -0.9010589    5.6809233  
H    1.6167816    1.3499334    1.8205408  
