62

C    1.1188646    0.0008226   -0.8003804  
C    0.0000000    0.0000000    0.0000000  
C   -1.1323862    0.0008896   -0.8673522  
C   -0.6382659    0.0019677   -2.1969274  
N    0.7324021    0.0038484   -2.1202236  
C   -1.4770910    0.0027315   -3.3154805  
C   -2.8395469    0.0020939   -3.0876856  
O   -3.7039197    0.0024417   -4.1440350  
C   -3.3517869    0.0013922   -1.7684325  
O   -4.7300491    0.0012352   -1.7073121  
C   -2.5248542    0.0009116   -0.6644816  
H    1.3576318   -0.0056163   -2.9057038  
H   -4.5940029    0.0021815   -3.7685127  
H   -4.9934600    0.0007250   -0.7819914  
H   -2.9462576    0.0005593    0.3339654  
H    2.1619893    0.0009359   -0.5342063  
C    0.1166616   -0.7214345   -5.1522985  
C    0.3273818   -0.5035452   -6.4760040  
C   -0.6880510    0.4234399   -6.9169464  
C   -1.5135277    0.7299635   -5.7331297  
N   -0.9736292    0.0040463   -4.6965760  
C   -2.5793559    1.5700278   -5.7355905  
C   -2.9375154    2.2151825   -6.9878017  
O   -3.8806689    2.9883095   -7.0928594  
C   -2.0773313    1.9049433   -8.2541505  
O   -2.3694869    2.4419715   -9.3141069  
C   -0.9520259    0.9822472   -8.1269833  
H   -3.1715411    1.7813044   -4.8560518  
H   -0.3613266    0.7729020   -9.0084441  
H    0.6660045   -1.3511262   -4.4714163  
C    1.3906262   -1.1032347   -7.2950185  
C    2.3641824   -1.9761088   -6.9284757  
C    3.1488221   -2.2515823   -8.1088527  
C    2.5482982   -1.4619621   -9.2009430  
N    1.4866198   -0.7886214   -8.6420683  
C    3.0026356   -1.4483117  -10.4796515  
C    4.1602229   -2.2660568  -10.8018644  
O    4.6448200   -2.3216219  -11.9245296  
C    4.8120425   -3.1105606   -9.6609219  
O    5.7869094   -3.8031057   -9.9203008  
C    4.2326090   -3.0429358   -8.3216926  
H    2.5152931   -2.3809559   -5.9436516  
H    2.5476370   -0.8618693  -11.2657624  
H    4.6899443   -3.6305225   -7.5372750  
H    0.8768170   -0.1632517   -9.1361346  
C    2.5285572    2.1210227    2.9438989  
C    1.9331703    1.6216660    4.0790748  
C    0.8903039    0.7472258    3.6520102  
C    0.8972198    0.7527806    2.2336141  
N    1.9028376    1.5986179    1.8362361  
C    0.0000000    0.0000000    1.4700000  
C   -0.9207814   -0.7726952    2.1506477  
O   -1.8198395   -1.5274828    1.4542253  
C   -0.9436862   -0.7911793    3.5655508  
O   -1.9197945   -1.6098497    4.0950179  
C   -0.0590329   -0.0485852    4.3195194  
H    2.2150357    1.8593692    5.0905303  
H    2.1533708    1.7953814    0.8841339  
H   -2.3621246   -1.9821033    2.1118817  
H   -1.8668290   -1.5649508    5.0545920  
H   -0.1007624   -0.0827977    5.4019087  
H    3.3491200    2.8096064    2.8367138  
