60

C    9.7023531   -2.1247636    3.9739854  
C    8.7425924   -1.6626218    3.1034961  
C    9.3951756   -0.7755519    2.1969415  
C   10.7640815   -0.7358446    2.5663307  
N   10.9159559   -1.5647893    3.6500290  
C   11.7084410    0.0399768    1.8873059  
C   11.2628385    0.7891301    0.8156789  
O   12.1428220    1.5642522    0.1172309  
C    9.9008651    0.7630085    0.4320628  
O    9.6139528    1.5634226   -0.6543820  
C    8.9686256   -0.0019180    1.1016476  
H    7.7001324   -1.9309104    3.1205706  
H   11.7816423   -1.7463574    4.1250035  
H   12.7531738    0.0746949    2.1639466  
H   11.6321601    1.9972922   -0.5791640  
H    8.6745142    1.4883416   -0.8478263  
H    9.6169653   -2.8084142    4.8012034  
C    6.4550012   -0.0009257    1.4492347  
C    7.5628472   -0.0014711    0.6718947  
C    7.0625116   -0.0013727   -0.6941817  
C    5.5906513   -0.0008360   -0.5520181  
N    5.2286132   -0.0004914    0.7021423  
C    4.7161325   -0.0005435   -1.6923264  
C    5.2860919   -0.0003878   -2.9188993  
O    4.5914235   -0.0001202   -4.0693237  
C    6.7683520   -0.0005475   -3.0951535  
O    7.2177891   -0.0005157   -4.2411146  
C    7.6440945   -0.0008911   -1.9098263  
H    5.2697909   -0.0000405   -4.7685876  
H    8.7123899   -0.0008824   -2.0800423  
H    6.3993982   -0.0008021    2.5262129  
C    3.2573665   -0.0002920   -1.5109385  
C    2.5379463   -0.0001709   -0.3591964  
C    1.1435038    0.0000331   -0.7338500  
C    1.1092599   -0.0000083   -2.2088477  
N    2.4227553    0.0001909   -2.6182613  
C   -0.0265539   -0.0002524   -2.9515660  
C   -1.3003040   -0.0002640   -2.2514977  
O   -2.3786790   -0.0004133   -2.8306421  
C   -1.2877727    0.0000311   -0.6895603  
O   -2.3539959    0.0003306   -0.0892030  
C    0.0000000    0.0000000    0.0000000  
H    2.9384091   -0.0000367    0.6389234  
H   -0.0296303   -0.0004086   -4.0327229  
H    2.7280482   -0.0013407   -3.5742119  
C    2.3971438    2.0127888    3.1728260  
C    1.9431056    1.6308205    1.9564670  
C    0.8496017    0.7127664    2.2356185  
C    0.7794028    0.6545384    3.7115134  
N    1.6840587    1.4146091    4.2663826  
C   -0.1885723   -0.1578550    4.3957118  
C   -1.0476298   -0.8789867    3.6398520  
O   -2.0015663   -1.6796266    4.1448486  
C   -1.0022026   -0.8410666    2.1483229  
O   -1.8147390   -1.5232959    1.5241687  
C    0.0000000    0.0000000    1.4700000  
H    2.3054237    1.9346118    0.9892483  
H   -0.2170646   -0.1815267    5.4753125  
H   -2.4487139   -2.0549881    3.3649027  
H    3.2048689    2.6911772    3.3971983  
