62

C    4.4195156   -3.7124473   -6.6022631  
C    5.3803684   -4.5157090   -6.0330542  
C    5.2650313   -4.3649493   -4.6193467  
C    4.2074989   -3.4496180   -4.3832944  
N    3.7172817   -3.0714990   -5.6085825  
C    3.8130902   -3.0647233   -3.0983483  
C    4.4985446   -3.6140863   -2.0322665  
O    4.1543342   -3.2730383   -0.7562501  
C    5.5567750   -4.5287701   -2.2474836  
O    6.1405838   -4.9869891   -1.0844935  
C    5.9465854   -4.9087225   -3.5148472  
H    6.0792430   -5.1333953   -6.5706713  
H    3.0079933   -2.3674430   -2.9117443  
H    4.7494090   -3.7618880   -0.1730023  
H    6.8449548   -5.5991335   -1.3184670  
H    6.7609176   -5.6111968   -3.6485288  
H    4.1804842   -3.5449127   -7.6384846  
C    2.6001984   -2.1411815   -5.8266050  
C    2.0730541   -1.7332812   -7.0044489  
C    0.9991584   -0.8222828   -6.6393046  
C    1.0189896   -0.7962633   -5.1609565  
N    1.9554489   -1.5673972   -4.6788923  
C    0.0950446    0.0004351   -4.4015596  
C   -0.8074268    0.7379271   -5.0878437  
O   -1.7282262    1.5268496   -4.5083866  
C   -0.8524310    0.7331204   -6.5798599  
O   -1.7006936    1.4286195   -7.1383864  
C    0.1059489   -0.0924302   -7.3360995  
H    2.3756463   -2.0156467   -7.9983221  
H   -2.2213259    1.9193587   -5.2513147  
H    0.0405998   -0.0682527   -8.4156246  
C    3.3321173    0.0004713   -1.3379338  
C    2.6974181    0.0000116   -2.5332314  
C    1.2800438   -0.0002119   -2.2052841  
C    1.2395034    0.0000643   -0.7271299  
N    2.4394062    0.0005460   -0.2131038  
C    0.0000000    0.0000000    0.0000000  
C   -1.1468702    0.0000634   -0.7169543  
O   -2.3742203    0.0000074   -0.1695487  
C   -1.1388770    0.0001607   -2.2096355  
O   -2.2206234    0.0000905   -2.7970411  
C    0.1454522    0.0001815   -2.9324241  
H    3.1367984   -0.0000653   -3.5160950  
H   -2.9844346    0.0001026   -0.9290167  
H    4.3940038    0.0007618   -1.1498640  
C    0.0000000    0.0000000    1.4700000  
C    1.0521667    0.0011902    2.3562342  
C    0.4917218    0.0011957    3.6679131  
C   -0.9187428   -0.0003148    3.5178682  
N   -1.1833171    0.0009411    2.1707914  
C   -1.7951701   -0.0010350    4.6072090  
C   -1.2375837   -0.0005224    5.8710424  
O   -2.0474215   -0.0015360    6.9697579  
C    0.1673580    0.0013566    6.0411963  
O    0.5673524    0.0020687    7.3615553  
C    1.0325770    0.0023412    4.9669890  
H    2.0953057    0.0030649    2.0900562  
H   -2.0989778   -0.0102372    1.7591824  
H   -2.8710934   -0.0020419    4.4995513  
H   -1.4634884   -0.0006497    7.7393593  
H    1.5290710    0.0033153    7.3880045  
H    2.1042148    0.0039609    5.1284455  
