64

C   -0.7675356   -0.6196543   -9.4352037  
C   -0.5285807   -0.5484492  -10.7880892  
C   -0.7483653    0.8056087  -11.1790133  
C   -1.1222454    1.5202312  -10.0121996  
N   -1.1259125    0.6245985   -8.9717929  
C   -1.4156950    2.8871755  -10.0240637  
C   -1.3298613    3.5447534  -11.2358400  
O   -1.6054270    4.8798226  -11.3041503  
C   -0.9588713    2.8490037  -12.4110491  
O   -0.9189410    3.6435498  -13.5381886  
C   -0.6694994    1.5004227  -12.4001351  
H   -0.2333691   -1.3714656  -11.4161710  
H   -1.7013859    3.4375750   -9.1382635  
H   -1.4873372    5.1360697  -12.2280865  
H   -0.6603130    3.0970389  -14.2865488  
H   -0.3883325    0.9944080  -13.3163077  
H   -0.7120776   -1.4598475   -8.7644149  
C    0.6672013   -0.7204485   -5.1593827  
C   -0.1496415   -0.0015615   -4.3176961  
C   -1.0587673    0.7263812   -5.1412191  
C   -0.7461685    0.4088957   -6.4878484  
N    0.3077051   -0.4705104   -6.4630860  
C   -1.4432465    0.9479357   -7.5733465  
C   -2.4748778    1.8231893   -7.2943381  
O   -3.1886750    2.3783648   -8.3167317  
C   -2.8016141    2.1526024   -5.9573462  
O   -3.8533306    3.0382881   -5.8442235  
C   -2.1141815    1.6214139   -4.8859910  
H    0.7409534   -0.8800252   -7.2709072  
H   -3.8512445    2.9504101   -7.9080381  
H   -4.0091518    3.2077085   -4.9100821  
H   -2.3871575    1.8925349   -3.8728495  
H    1.4787355   -1.3905981   -4.9329533  
C    3.3003543    0.0005276   -1.4738987  
C    2.5232814    0.0003497   -2.6090747  
C    1.1623200   -0.0001320   -2.1820103  
C    1.1711883    0.0000582   -0.7636140  
N    2.4852300   -0.0014919   -0.3662360  
C    0.0000000    0.0000000    0.0000000  
C   -1.2020384    0.0000519   -0.6806477  
O   -2.3759249    0.0003493    0.0157743  
C   -1.2314656   -0.0005115   -2.0955510  
O   -2.5054392   -0.0008039   -2.6250180  
C   -0.0764516   -0.0007274   -2.8495195  
H    2.8919955   -0.0005620   -3.6205304  
H    2.8036267    0.0088183    0.5858662  
H   -3.0835638    0.0000347   -0.6418818  
H   -2.4360047   -0.0011529   -3.5845921  
H    4.3715549    0.0004895   -1.3667136  
C    2.5528530    2.1414826    2.8079335  
C    2.0663498    1.7338582    4.0032312  
C    0.9804344    0.8229586    3.6752840  
C    0.9495562    0.7966882    2.1971295  
N    1.8690446    1.5676019    1.6831036  
C    0.0000000    0.0000000    1.4700000  
C   -0.8785127   -0.7372425    2.1869543  
O   -1.8187535   -1.5261249    1.6395491  
C   -0.8723269   -0.7321790    3.6796354  
O   -1.7010379   -1.4274584    4.2670412  
C    0.1115397    0.0933559    4.4024240  
H    2.4028853    2.0163452    4.9860947  
H   -2.2861435   -1.9184361    2.3990168  
H    0.0832434    0.0693689    5.4835595  
H    3.3664920    2.8238276    2.6198634  
