64

C    2.2309527   -2.0432771   -7.6542537  
C    3.3081849   -2.8928946   -7.7551863  
C    3.7097909   -2.8952548   -9.1238739  
C    2.8335025   -2.0208158   -9.8162623  
N    1.9466521   -1.5219538   -8.8947151  
C    2.9357942   -1.7789020  -11.1895077  
C    3.9411958   -2.4313855  -11.8762473  
O    4.0863365   -2.2310596  -13.2185647  
C    4.8251430   -3.3079592  -11.2031406  
O    5.7725020   -3.8816939  -12.0257486  
C    4.7246486   -3.5472950   -9.8484656  
H    3.7494750   -3.4441018   -6.9425195  
H    1.2121997   -0.8664331   -9.0918274  
H    2.2709779   -1.1137103  -11.7231194  
H    4.8359889   -2.7735162  -13.4961029  
H    6.3283632   -4.4587663  -11.4931981  
H    5.4161005   -4.2241236   -9.3603320  
C    1.5730420   -2.0888205   -5.2039063  
C    1.4267860   -1.6687787   -6.4820906  
C    0.2928030   -0.7579755   -6.4501582  
C   -0.1353499   -0.7453435   -5.0348454  
N    0.6114415   -1.5235255   -4.2995057  
C   -1.2456329    0.0471727   -4.5828766  
C   -1.8982727    0.7934559   -5.5029072  
O   -2.9511436    1.5798092   -5.2215677  
C   -1.4899798    0.8022328   -6.9386586  
O   -2.1295859    1.5052150   -7.7209246  
C   -0.3478305   -0.0192634   -7.3774789  
H   -3.1964695    1.9804398   -6.0750680  
H   -0.0836669    0.0148370   -8.4259469  
H    2.3057724   -2.7751201   -4.8101157  
C    1.1243410    0.0099923   -0.7919003  
C    0.7474076    0.0234544   -2.1148543  
C   -0.6787381    0.0234490   -2.1414700  
C   -1.1201745    0.0098592   -0.7935546  
N    0.0000000    0.0000000    0.0000000  
C   -2.4730816    0.0063709   -0.4408240  
C   -3.3971958    0.0170982   -1.4675058  
O   -4.7313517    0.0146259   -1.1793471  
C   -2.9763648    0.0303504   -2.8186324  
O   -4.0166480    0.0395118   -3.7247624  
C   -1.6418562    0.0335260   -3.1673481  
H    1.4178717    0.0310972   -2.9571209  
H   -2.8160166   -0.0041111    0.5845966  
H   -5.1938818    0.0230867   -2.0274384  
H   -3.6464675    0.0482293   -4.6127343  
H    2.1062467    0.0052819   -0.3505407  
C    2.5311839    2.1237619    3.0120429  
C    1.9795631    1.6616747    1.8395852  
C    0.9223175    0.7739173    2.1983588  
C    0.8753926    0.7337535    3.6154372  
N    1.8668922    1.5631002    4.0777464  
C   -0.0496243   -0.0427881    4.3197917  
C   -0.9437528   -0.7922060    3.5801400  
O   -1.8685244   -1.5680278    4.2172520  
C   -0.9124520   -0.7656372    2.1655264  
O   -1.8671164   -1.5663939    1.5732860  
C    0.0000000    0.0000000    1.4700000  
H    2.3005065    1.9304404    0.8477417  
H    2.0679347    1.7444845    5.0445261  
H   -0.0904770   -0.0778569    5.3997470  
H   -2.3849669   -2.0011402    3.5251786  
H   -1.7775064   -1.4909735    0.6183591  
H    3.3468514    2.8078103    3.1724291  
