62

C    6.5945443   -3.3363406   -4.7915941  
C    7.7136103   -3.3190595   -5.5915085  
C    7.8705238   -1.9806573   -6.0591179  
C    6.8087185   -1.2195718   -5.5066270  
N    6.0516306   -2.0736819   -4.7437834  
C    6.6482717    0.1468218   -5.7556541  
C    7.5767963    0.7560661   -6.5771416  
O    7.4676517    2.0883357   -6.8531082  
C    8.6429726    0.0135189   -7.1381304  
O    9.4836067    0.7630973   -7.9348804  
C    8.8017208   -1.3345499   -6.8931084  
H    8.3391751   -4.1670588   -5.8118672  
H    5.8411005    0.7324948   -5.3377262  
H    8.2058938    2.3077451   -7.4363086  
H   10.1754323    0.1867924   -8.2737812  
H    9.6282308   -1.8770484   -7.3370164  
H    6.1398689   -4.1497513   -4.2525285  
C    4.4925592   -2.1138022   -2.7420818  
C    4.8565035   -1.6946788   -3.9763669  
C    3.8030380   -0.7794117   -4.3874587  
C    2.8583245   -0.7634595   -3.2499849  
N    3.2572738   -1.5436999   -2.2824862  
C    1.6628945    0.0339172   -3.2649299  
C    1.4223698    0.7816763   -4.3659923  
O    0.3461535    1.5724674   -4.5158195  
C    2.3568199    0.7871865   -5.5300082  
O    2.0745621    1.4917540   -6.4990986  
C    3.5763790   -0.0392794   -5.4905725  
H    0.4536187    1.9730612   -5.3973686  
H    4.2275605   -0.0074316   -6.3538100  
H    5.0117291   -2.8025036   -2.0946821  
C    1.1243410    0.0100105   -0.7919003  
C    0.7474072    0.0234665   -2.1148542  
C   -0.6787384    0.0234379   -2.1414698  
C   -1.1201748    0.0098411   -0.7935547  
N    0.0000000    0.0000000    0.0000000  
C   -2.4730818    0.0063307   -0.4408240  
C   -3.3971962    0.0170429   -1.4675058  
O   -4.7313520    0.0145490   -1.1793468  
C   -2.9763654    0.0303020   -2.8186325  
O   -4.0166484    0.0394464   -3.7247625  
C   -1.6418567    0.0334992   -3.1673480  
H   -2.8160166   -0.0041569    0.5845966  
H   -5.1938823    0.0230023   -2.0274386  
H   -3.6464680    0.0481700   -4.6127343  
H   -1.3497475    0.0435647   -4.2109234  
H    2.1062466    0.0053162   -0.3505405  
C    0.0000000    0.0000000    1.4700000  
C    1.0541688    0.0001722    2.3260392  
C    0.5103138    0.0000454    3.6635956  
C   -0.9576371   -0.0002459    3.5155732  
N   -1.2018458    0.0001392    2.1615969  
C   -1.8348311   -0.0008317    4.5510609  
C   -1.2972847   -0.0009736    5.9014604  
O   -2.0050672   -0.0014265    6.9001319  
C    0.2542623   -0.0004184    6.0817573  
O    0.7184670   -0.0002256    7.2139121  
C    1.0974552   -0.0000873    4.8889129  
H    2.0940752    0.0005483    2.0517982  
H   -2.9081052   -0.0011668    4.4207061  
H    2.1707277    0.0000911    5.0223670  
H   -2.1128194   -0.0014912    1.7406791  
