60

C    4.4883233   -2.1196450   -1.5653718  
C    3.2264833   -1.6584956   -1.8612908  
C    3.3569169   -0.7714020   -2.9706385  
C    4.7331979   -0.7306581   -3.3113977  
N    5.3921658   -1.5590348   -2.4372290  
C    5.2292260    0.0454725   -4.3632368  
C    4.3192903    0.7938751   -5.0844084  
O    4.7495993    1.5692568   -6.1220171  
C    2.9421617    0.7667152   -4.7594537  
O    2.1637867    1.5664734   -5.5705401  
C    2.4521480    0.0014830   -3.7217483  
H    2.3232778   -1.9274439   -1.3408304  
H    6.3797230   -1.7398425   -2.4416111  
H    6.2770271    0.0809794   -4.6279122  
H    3.9649670    2.0016675   -6.4834556  
H    1.2484454    1.4907074   -5.2841611  
H    4.8153071   -2.8029908   -0.8004673  
C    0.0000000    0.0000000    0.0000000  
C    1.0662921   -0.0000106   -0.8334269  
C    0.4961870    0.0000059   -2.1718889  
C   -0.9663856   -0.0000854   -1.9540246  
N   -1.2632773   -0.0000087   -0.6828657  
C   -1.8985362   -0.0000522   -3.0477258  
C   -1.3925773    0.0004558   -4.3020541  
O   -2.1456384    0.0005402   -5.4151311  
C    0.0786236    0.0009315   -4.5544999  
O    0.4683762    0.0012578   -5.7221098  
C    1.0143167    0.0008435   -3.4159031  
H    2.1107198    0.0000631   -0.5721865  
H   -1.5042271    0.0009682   -6.1484419  
C   -4.2186864    2.1401319   -0.0437265  
C   -5.4804249    1.7323140   -0.3144300  
C   -5.3466896    0.8217459   -1.4411421  
C   -3.8965661    0.7958593   -1.7293375  
N   -3.2302258    1.5666940   -0.9133757  
C   -3.3460094   -0.0004268   -2.7913647  
C   -4.2050296   -0.7376515   -3.5315797  
O   -3.8298203   -1.5261798   -4.5530893  
C   -5.6737587   -0.7329698   -3.2651711  
O   -6.3965398   -1.4282098   -3.9789290  
C   -6.2140638    0.0921563   -2.1701083  
H   -6.3895960    2.0144738    0.1884311  
H   -4.6590776   -1.9185778   -4.8809749  
H   -7.2835615    0.0679002   -2.0094324  
H   -3.8917479    2.8223390    0.7248291  
C    3.2573670    0.0002920    2.9809380  
C    2.5379467    0.0001709    1.8291961  
C    1.1435042   -0.0000331    2.2038498  
C    1.1092607    0.0000083    3.6788474  
N    2.4227561   -0.0001909    4.0882609  
C   -0.0265533    0.0002524    4.4215661  
C   -1.3003036    0.0002640    3.7214979  
O   -2.3786784    0.0004133    4.3006425  
C   -1.2877726   -0.0000311    2.1595606  
O   -2.3539958   -0.0003306    1.5592035  
C    0.0000000    0.0000000    1.4700000  
H    2.9384090    0.0000368    0.8310761  
H   -0.0296291    0.0004086    5.5027230  
H    4.3270393    0.0004765    3.1139444  
H    2.7280493    0.0013407    5.0442112  
