64

C    2.1189242    0.0763086   -7.5057825  
C    2.9367959    0.0653851   -6.3996929  
C    4.2813132    0.0698585   -6.8759845  
C    4.2208290    0.0840062   -8.2930473  
N    2.8931965    0.0856427   -8.6423396  
C    5.3634514    0.0921111   -9.0987394  
C    6.5894653    0.0861262   -8.4623173  
O    7.7372276    0.0939270   -9.2009594  
C    6.6703666    0.0716512   -7.0494969  
O    7.9627648    0.0668499   -6.5667698  
C    5.5435576    0.0633760   -6.2540346  
H    2.6051373    0.0543133   -5.3755481  
H    2.5403581    0.1051488   -9.5820773  
H    5.3240981    0.1027552  -10.1792673  
H    8.4683322    0.0875290   -8.5695258  
H    7.9282999    0.0570167   -5.6053543  
H    5.6368726    0.0521360   -5.1743851  
C   -1.2456296    0.0472577   -4.5828766  
C    0.0058406    0.0519623   -5.0980274  
C   -0.1823948    0.0659876   -6.5405497  
C   -1.6495595    0.0680022   -6.7249610  
N   -2.2780918    0.0571386   -5.5809245  
C   -2.2524138    0.0807975   -8.0293725  
C   -1.4270886    0.0915002   -9.1008472  
O   -1.8522588    0.1040211  -10.3756471  
C    0.0577061    0.0901661   -8.9474069  
O    0.7477518    0.1002116   -9.9666992  
C    0.6518706    0.0768900   -7.5988091  
H    0.9411980    0.0466700   -4.5649666  
H   -3.3275064    0.0817763   -8.1346573  
H   -1.0369298    0.1094347  -10.9089037  
C    1.1243418    0.0099155   -0.7919003  
C    0.7474093    0.0234033   -2.1148542  
C   -0.6787365    0.0234953   -2.1414700  
C   -1.1201738    0.0099357   -0.7935546  
N    0.0000000    0.0000000    0.0000000  
C   -2.4730811    0.0065398   -0.4408241  
C   -3.3971945    0.0173300   -1.4675058  
O   -4.7313507    0.0149490   -1.1793472  
C   -2.9763626    0.0305537   -2.8186325  
O   -4.0166449    0.0397860   -3.7247623  
C   -1.6418538    0.0336381   -3.1673481  
H    1.4178738    0.0310004   -2.9571209  
H   -2.8160170   -0.0039189    0.5845965  
H   -5.1938800    0.0234412   -2.0274384  
H   -3.6464643    0.0484782   -4.6127344  
H    2.1062469    0.0051381   -0.3505407  
C    2.5285572    2.1210227    2.9438989  
C    1.9331703    1.6216660    4.0790748  
C    0.8903039    0.7472258    3.6520102  
C    0.8972198    0.7527806    2.2336141  
N    1.9028376    1.5986179    1.8362361  
C    0.0000000    0.0000000    1.4700000  
C   -0.9207814   -0.7726952    2.1506477  
O   -1.8198395   -1.5274828    1.4542253  
C   -0.9436862   -0.7911793    3.5655508  
O   -1.9197945   -1.6098497    4.0950179  
C   -0.0590329   -0.0485852    4.3195194  
H    2.2150357    1.8593692    5.0905303  
H    2.1533708    1.7953814    0.8841339  
H   -2.3621246   -1.9821033    2.1118817  
H   -1.8668290   -1.5649508    5.0545920  
H   -0.1007624   -0.0827977    5.4019087  
H    3.3491200    2.8096064    2.8367138  
