62

C   -7.1910727    3.2428777    0.6857279  
C   -6.8368625    1.9905710    0.2399356  
C   -7.9295729    1.1208512    0.5300568  
C   -8.9305907    1.9054009    1.1580471  
N   -8.4490913    3.1884719    1.2386991  
C  -10.1520355    1.3741012    1.5829977  
C  -10.3669944    0.0263119    1.3698429  
O  -11.5424875   -0.5439255    1.7648868  
C   -9.3802396   -0.7730721    0.7452505  
O   -9.7440507   -2.0964155    0.6047309  
C   -8.1749157   -0.2496590    0.3260142  
H   -8.9437387    3.9705652    1.6281029  
H  -10.9190140    1.9666806    2.0623659  
H  -11.4866316   -1.4782591    1.5257941  
H   -9.0229675   -2.5660523    0.1745165  
H   -7.4382350   -0.8867202   -0.1493107  
H   -6.6452989    4.1702941    0.6542863  
C   -4.3359695    2.1064016   -0.0635823  
C   -5.5644951    1.6417184   -0.4083570  
C   -5.3776808    0.7467249   -1.5259091  
C   -3.9292261    0.7279264   -1.8059379  
N   -3.3543293    1.5729379   -0.8848847  
C   -3.3460097   -0.0004262   -2.7913647  
C   -4.2020393   -0.8203941   -3.6324363  
O   -3.7724540   -1.5121266   -4.5463636  
C   -5.7389983   -0.8155429   -3.3539783  
O   -6.4697263   -1.5017111   -4.0557404  
C   -6.2499650    0.0103535   -2.2628046  
H   -7.3153178    0.0079811   -2.0764130  
H   -4.0651606    2.7938487    0.7212540  
H   -2.3726203    1.7700215   -0.8181563  
C    0.0000000    0.0000000    0.0000000  
C    1.0662919   -0.0000103   -0.8334272  
C    0.4961868    0.0000066   -2.1718889  
C   -0.9663860   -0.0000849   -1.9540248  
N   -1.2632775   -0.0000084   -0.6828659  
C   -1.8985364   -0.0000515   -3.0477258  
C   -1.3925778    0.0004567   -4.3020543  
O   -2.1456385    0.0005412   -5.4151314  
C    0.0786229    0.0009326   -4.5544999  
O    0.4683756    0.0012594   -5.7221104  
C    1.0143162    0.0008443   -3.4159034  
H    2.1107195    0.0000631   -0.5721869  
H   -1.5042277    0.0009692   -6.1484420  
H    2.0724151    0.0013151   -3.6409746  
C    1.1188642   -0.0008217    2.2703808  
C    0.0000000    0.0000000    1.4700000  
C   -1.1323862   -0.0008904    2.3373528  
C   -0.6382662   -0.0019682    3.6669281  
N    0.7324016   -0.0038477    3.5902241  
C   -1.4770914   -0.0027325    4.7854808  
C   -2.8395474   -0.0020958    4.5576857  
O   -3.7039201   -0.0024443    5.6140350  
C   -3.3517868   -0.0013946    3.2384331  
O   -4.7300496   -0.0012389    3.1773122  
C   -2.5248543   -0.0009135    2.1344818  
H    1.3576314    0.0056174    4.3757045  
H   -1.1067570   -0.0036993    5.8013813  
H   -4.5940033   -0.0021850    5.2385129  
H   -4.9934601   -0.0007286    2.2519915  
H   -2.9462578   -0.0005617    1.1360343  
H    2.1619896   -0.0009344    2.0042067  
