62

C    6.1248831   -0.6763159   -3.3384356  
C    7.4009747   -0.4310527   -2.8868775  
C    7.9977482    0.4853607   -3.8026547  
C    7.0298163    0.7660926   -4.8007652  
N    5.9050734    0.0429973   -4.4897917  
C    7.2745814    1.6348617   -5.8685287  
C    8.5190362    2.2313302   -5.9296548  
O    8.8110134    3.0884701   -6.9509648  
C    9.4981146    1.9635650   -4.9434879  
O   10.6869856    2.6341590   -5.1440642  
C    9.2574324    1.1064031   -3.8899836  
H    7.8472368   -0.8607435   -2.0064178  
H    6.5411433    1.8528897   -6.6325537  
H    9.7180346    3.3875339   -6.8055753  
H   11.2927619    2.3980276   -4.4349234  
H   10.0269592    0.9206175   -3.1498554  
H    5.3546058   -1.3085464   -2.9311083  
C    1.6628972    0.0337774   -3.2649299  
C    3.0207996    0.0330346   -3.2781829  
C    3.4282943    0.0460118   -4.6633231  
C    2.1875905    0.0544656   -5.4616793  
N    1.1532913    0.0460571   -4.5544614  
C    2.1461599    0.0678606   -6.8180746  
C    3.4077371    0.0741611   -7.5398210  
O    3.4759250    0.0861009   -8.7619129  
C    4.7339466    0.0651469   -6.7146588  
O    5.8022228    0.0700323   -7.3113344  
C    4.6507763    0.0511092   -5.2563249  
H    3.6636257    0.0242008   -2.4160284  
H    1.2252517    0.0740075   -7.3844678  
H    0.1784103    0.0504304   -4.7924432  
C    1.1243417    0.0099160   -0.7919004  
C    0.7474091    0.0234036   -2.1148543  
C   -0.6787366    0.0234950   -2.1414699  
C   -1.1201739    0.0099353   -0.7935547  
N    0.0000000    0.0000000    0.0000000  
C   -2.4730814    0.0065387   -0.4408241  
C   -3.3971947    0.0173286   -1.4675058  
O   -4.7313509    0.0149470   -1.1793468  
C   -2.9763629    0.0305525   -2.8186324  
O   -4.0166449    0.0397843   -3.7247623  
C   -1.6418539    0.0336374   -3.1673480  
H   -2.8160170   -0.0039200    0.5845965  
H   -5.1938800    0.0234391   -2.0274383  
H   -3.6464639    0.0484767   -4.6127342  
H   -1.3497441    0.0436783   -4.2109235  
H    2.1062470    0.0051389   -0.3505406  
C    2.4951002    2.0940188    2.9809380  
C    1.9440701    1.6314916    1.8291961  
C    0.8759964    0.7350050    2.2038498  
C    0.8497377    0.7130254    3.6788474  
N    1.8560616    1.5571714    4.0882609  
C   -0.0205033   -0.0168748    4.4215661  
C   -0.9962600   -0.8356168    3.7214979  
O   -1.8224391   -1.5286685    4.3006425  
C   -0.9864710   -0.8277881    2.1595606  
O   -1.8030528   -1.5133726    1.5592035  
C    0.0000000    0.0000000    1.4700000  
H    2.2509283    1.8888011    0.8310761  
H   -0.0229599   -0.0187323    5.5027230  
H    3.3143982    2.7817323    3.1139444  
H    2.0889452    1.7545833    5.0442112  
