62

C    9.8492856   -0.7223834   -2.2883471  
C    8.8863521   -0.0041285   -2.9586724  
C    9.5517142    0.7231363   -3.9896814  
C   10.9312312    0.4059076   -3.8990009  
N   11.0775480   -0.4726990   -2.8543673  
C   11.8894718    0.9444347   -4.7630353  
C   11.4469936    1.8189014   -5.7365341  
O   12.3402514    2.3735501   -6.6068613  
C   10.0746953    2.1480468   -5.8427345  
O    9.7926626    3.0329328   -6.8629193  
C    9.1288511    1.6173644   -4.9905147  
H   11.9449134   -0.8818731   -2.5573233  
H   12.9423877    0.7067876   -4.6990635  
H   11.8295962    2.9450868   -7.1949441  
H    8.8455943    3.2022214   -6.8655649  
H    8.0848419    1.8882635   -5.0960544  
H    9.7573299   -1.3919205   -1.4503598  
C    6.7235404   -0.0015094    0.8630518  
C    5.4473217   -0.0011276    0.3990038  
C    5.5236520   -0.0015784   -1.0428730  
C    6.9592472   -0.0022882   -1.3832517  
N    7.6329843   -0.0018115   -0.1836821  
C    7.4493969   -0.0032604   -2.6487383  
C    6.4996351   -0.0034065   -3.7489599  
O    6.8417413   -0.0041910   -4.9242315  
C    4.9744857   -0.0024119   -3.4117302  
O    4.1654306   -0.0022185   -4.3297118  
C    4.5679461   -0.0016854   -2.0086701  
H    4.5543636   -0.0004092    0.9983692  
H    7.0761901   -0.0013786    1.8816429  
H    8.6315326   -0.0036616   -0.0839617  
C    3.1301149   -0.0010311   -1.7028252  
C    2.5367768   -0.0002767   -0.4864665  
C    1.1089904    0.0001028   -0.7656183  
C    1.0177872   -0.0004148   -2.2415132  
N    2.1993578   -0.0011611   -2.7963820  
C   -0.2459209   -0.0002877   -2.9257118  
C   -1.3675319   -0.0000605   -2.1698524  
O   -2.6129313    0.0000867   -2.6748490  
C   -1.3083584    0.0000910   -0.6783232  
O   -2.3693261    0.0004206   -0.0541692  
C    0.0000000    0.0000000    0.0000000  
H    3.0096017   -0.0001007    0.4807525  
H   -0.2829630   -0.0004687   -4.0053125  
H   -3.1967441    0.0002094   -1.8949034  
C    0.8576279    0.7185626    2.2703808  
C    0.0000000    0.0000000    1.4700000  
C   -0.8668858   -0.7285659    2.3373528  
C   -0.4876752   -0.4117774    3.6669281  
N    0.5635254    0.4678311    3.5902241  
C   -1.1297612   -0.9515493    4.7854808  
C   -2.1738724   -1.8268314    4.5576857  
O   -2.8357962   -2.3827064    5.6140350  
C   -2.5667212   -2.1555554    3.2384331  
O   -3.6226318   -3.0413663    3.1773122  
C   -1.9335634   -1.6236449    2.1344818  
H    1.0363952    0.8769718    4.3757045  
H   -0.8454472   -0.7142436    5.8013813  
H   -3.5178062   -2.9546422    5.2385129  
H   -3.8247440   -3.2102924    2.2519915  
H   -2.2566033   -1.8942483    1.1360343  
H    1.6567807    1.3889844    2.0042067  
