62

C    0.0000000    0.0000000    0.0000000  
C   -1.0521664   -0.0013232   -0.8862345  
C   -0.4917225    0.0000211   -2.1979133  
C    0.9187418    0.0018797   -2.0478681  
N    1.1833123    0.0037676   -0.7007907  
C    1.7951686    0.0032530   -3.1372085  
C    1.2375830    0.0024337   -4.4010421  
O    2.0474213    0.0033545   -5.4997575  
C   -0.1673588    0.0009568   -4.5711962  
O   -0.5673538    0.0007135   -5.8915550  
C   -1.0325785   -0.0001253   -3.4969894  
H   -2.0953064   -0.0019400   -0.6200569  
H    2.0989964   -0.0052234   -0.2891820  
H    2.8710909    0.0048160   -3.0295506  
H    1.4634882    0.0028460   -6.2693590  
H   -1.5290726   -0.0003372   -5.9180050  
C   -2.4861726   -0.0014005   -3.7159928  
C   -3.4691557   -0.0025891   -2.7857662  
C   -4.7077449   -0.0035123   -3.5489158  
C   -4.2744152   -0.0025793   -4.9627081  
N   -2.9732124   -0.0014208   -5.0669066  
C   -5.2170366   -0.0031454   -6.0473972  
C   -6.5327450   -0.0049675   -5.7339580  
O   -7.5212076   -0.0056816   -6.6444428  
C   -7.0015547   -0.0063189   -4.3167858  
O   -8.2141993   -0.0078322   -4.1053356  
C   -6.0150664   -0.0056606   -3.2219044  
H   -3.3664317   -0.0029019   -1.7140744  
H   -4.8722825   -0.0022321   -7.0711419  
H   -8.3418922   -0.0070321   -6.1194404  
C   -4.8888151    2.0064685    0.5921927  
C   -4.8858485    1.6252726   -0.7063681  
C   -6.0063994    0.7057032   -0.8298894  
C   -6.5907506    0.6458441    0.5271420  
N   -5.9398981    1.4063418    1.3650109  
C   -7.7362873   -0.1683504    0.8270079  
C   -8.2738660   -0.8896467   -0.1829800  
O   -9.3432947   -1.6918834   -0.0459425  
C   -7.7071825   -0.8501067   -1.5633667  
O   -8.2475520   -1.5325871   -2.4336779  
C   -6.5317078   -0.0072070   -1.8456852  
H   -4.2071400    1.9304861   -1.4843625  
H   -8.1423610   -0.1931897    1.8277063  
H   -9.4872664   -2.0669240   -0.9335064  
H   -4.2124386    2.6855231    1.0865335  
C    3.3041272   -0.0001177    3.0120429  
C    2.5845372    0.0004780    1.8395852  
C    1.2040006    0.0000008    2.1983588  
C    1.1422373   -0.0006037    3.6154372  
N    2.4348639   -0.0026109    4.0777464  
C   -0.0655181   -0.0008797    4.3197917  
C   -1.2321768   -0.0002324    3.5801400  
O   -2.4392816   -0.0001146    4.2172520  
C   -1.1911209    0.0000007    2.1655264  
O   -2.4371527    0.0002320    1.5732860  
C    0.0000000    0.0000000    1.4700000  
H    3.0031534    0.0000661    0.8477417  
H    2.7054629    0.0071099    5.0445261  
H   -0.1193549   -0.0014844    5.3997470  
H   -3.1132988    0.0000648    3.5251786  
H   -2.3200282    0.0004071    0.6183591  
H    4.3686625   -0.0004071    3.1724291  
