62

C   -0.7874005    0.6277176   -9.1160936  
C    0.2008440   -0.2030902   -9.5910656  
C    0.1383202   -0.1527042  -11.0151981  
C   -0.9163364    0.7330438  -11.3544262  
N   -1.4584576    1.1876139  -10.1779542  
C   -1.2640049    1.0235964  -12.6771110  
C   -0.5335027    0.4090271  -13.6755349  
O   -0.8305498    0.6575394  -14.9843576  
C    0.5221702   -0.4780836  -13.3570920  
O    1.1536749   -1.0100626  -14.4623270  
C    0.8655302   -0.7653946  -12.0524543  
H    0.8821844   -0.7759331   -8.9855750  
H   -2.2183615    1.8394378  -10.1027680  
H   -2.0668368    1.6976542  -12.9422728  
H   -0.2099407    0.1352954  -15.5091154  
H    1.8529036   -1.5975155  -14.1597019  
H    1.6788822   -1.4491467  -11.8393346  
C    0.8246861   -0.7190548   -5.2242741  
C   -0.0307352   -0.0004646   -4.4215603  
C   -0.9001600    0.7278871   -5.2865486  
C   -0.5247007    0.4109452   -6.6171514  
N    0.5268045   -0.4685443   -6.5433115  
C   -1.1700221    0.9504897   -7.7339507  
C   -2.2135710    1.8256975   -7.5033123  
O   -2.8785548    2.3813522   -8.5578538  
C   -2.6026990    2.1545718   -6.1829949  
O   -3.6585227    3.0402832   -6.1189979  
C   -1.9663484    1.6228858   -5.0807725  
H    0.9974798   -0.8777499   -7.3300751  
H   -3.5595524    2.9532719   -8.1804759  
H   -3.8580191    3.2093222   -5.1931304  
H   -2.2865743    1.8936003   -4.0814492  
H    1.6246621   -1.3893562   -4.9602782  
C    3.2573670   -0.0002920   -1.5109380  
C    2.5379468   -0.0001709   -0.3591961  
C    1.1435043    0.0000332   -0.7338500  
C    1.1092609   -0.0000082   -2.2088477  
N    2.4227562    0.0001909   -2.6182613  
C   -0.0265532   -0.0002522   -2.9515663  
C   -1.3003035   -0.0002639   -2.2514981  
O   -2.3786784   -0.0004131   -2.8306429  
C   -1.2877725    0.0000312   -0.6895608  
O   -2.3539958    0.0003307   -0.0892036  
C    0.0000000    0.0000000    0.0000000  
H    2.9384091   -0.0000369    0.6389239  
H    4.3270394   -0.0004765   -1.6439446  
H    2.7280494   -0.0013406   -3.5742113  
C    2.5528530    2.1414826    2.8079335  
C    2.0663498    1.7338582    4.0032312  
C    0.9804344    0.8229586    3.6752840  
C    0.9495562    0.7966882    2.1971295  
N    1.8690446    1.5676019    1.6831036  
C    0.0000000    0.0000000    1.4700000  
C   -0.8785127   -0.7372425    2.1869543  
O   -1.8187535   -1.5261249    1.6395491  
C   -0.8723269   -0.7321790    3.6796354  
O   -1.7010379   -1.4274584    4.2670412  
C    0.1115397    0.0933559    4.4024240  
H    2.4028853    2.0163452    4.9860947  
H   -2.2861435   -1.9184361    2.3990168  
H    0.0832434    0.0693689    5.4835595  
H    3.3664920    2.8238276    2.6198634  
