60

C    8.1625946   -0.7174160    1.3192172  
C    8.7120167   -0.0001571    0.2818446  
C    9.8158152    0.7274529    0.8173923  
C    9.8920857    0.4114515    2.1980631  
N    8.8726075   -0.4667873    2.4700502  
C   10.8654174    0.9506182    3.0446532  
C   11.7785720    1.8244740    2.4872461  
O   12.7503173    2.3797043    3.2685551  
C   11.7185801    2.1523949    1.1118605  
O   12.6974264    3.0368003    0.7080889  
C   10.7584723    1.6210811    0.2761430  
H    8.6822587   -0.8751347    3.3672686  
H   10.9288340    0.7139065    4.0978144  
H   13.2726116    2.9506593    2.6902090  
H   12.5858867    3.2052600   -0.2325409  
H   10.7374000    1.8910430   -0.7732164  
H    7.3195518   -1.3868412    1.3295680  
C    4.7161325   -0.0005435   -1.6923264  
C    5.6747634   -0.0008966   -0.7370220  
C    6.9326496   -0.0010022   -1.4679270  
C    6.5359791   -0.0007821   -2.8924396  
N    5.2379004   -0.0004321   -3.0302104  
C    7.5063014   -0.0007614   -3.9524215  
C    8.8134762   -0.0005627   -3.6051048  
O    9.8251247   -0.0005273   -4.4897564  
C    9.2455284   -0.0004059   -2.1762968  
O   10.4523083   -0.0003525   -1.9335978  
C    8.2310902   -0.0004746   -1.1072594  
H    5.5443945   -0.0009742    0.3316593  
H    7.1881021   -0.0008049   -4.9847295  
H   10.6319771   -0.0003454   -3.9437325  
C    3.2573665   -0.0002920   -1.5109385  
C    2.5379463   -0.0001709   -0.3591964  
C    1.1435038    0.0000331   -0.7338500  
C    1.1092599   -0.0000083   -2.2088477  
N    2.4227553    0.0001909   -2.6182613  
C   -0.0265539   -0.0002524   -2.9515660  
C   -1.3003040   -0.0002640   -2.2514977  
O   -2.3786790   -0.0004133   -2.8306421  
C   -1.2877727    0.0000311   -0.6895603  
O   -2.3539959    0.0003306   -0.0892030  
C    0.0000000    0.0000000    0.0000000  
H    2.9384091   -0.0000367    0.6389234  
H   -0.0296303   -0.0004086   -4.0327229  
H    2.7280482   -0.0013407   -3.5742119  
C    2.5128556    2.1077716    2.9199648  
C    1.9592212    1.6432552    4.0696553  
C    0.8915788    0.7479214    3.6910360  
C    0.8684491    0.7287414    2.2159470  
N    1.8754542    1.5738793    1.8102719  
C    0.0000000    0.0000000    1.4700000  
C   -0.9772830   -0.8200135    2.1664417  
O   -1.8021297   -1.5120829    1.5842315  
C   -0.9711318   -0.8147624    3.7284083  
O   -1.7894187   -1.5009653    4.3257297  
C    0.0140216    0.0115358    4.4216297  
H    2.2638494    1.8988021    5.0689105  
H    0.0117648    0.0094386    5.5031631  
H    3.3327358    2.7953732    2.7900019  
H    2.1123206    1.7707734    0.8551938  
