60

C    1.7038229   -2.3742619   -7.7853414  
C    2.3015324   -2.5857534   -9.0061940  
C    2.2257465   -1.3563036   -9.7254363  
C    1.5659153   -0.4228328   -8.8856860  
N    1.2609980   -1.0740754   -7.7162733  
C    1.3169244    0.8976690   -9.2717786  
C    1.7420389    1.2829398  -10.5283703  
O    1.5248325    2.5609069  -10.9557255  
C    2.4017779    0.3659796  -11.3808631  
O    2.7628357    0.9013386  -12.6000322  
C    2.6475076   -0.9369580  -11.0007370  
H    2.7374468   -3.5125022   -9.3380214  
H    0.8143943    1.6139511   -8.6364793  
H    1.8942145    2.6174021  -11.8465859  
H    3.2022070    0.2172932  -13.1144625  
H    3.1548853   -1.6166019  -11.6753705  
H    1.5570720   -3.0483960   -6.9589232  
C    0.9070721   -0.7042926   -5.2310448  
C    0.0950446    0.0004351   -4.4015596  
C   -0.8184769    0.7430225   -5.2375488  
C   -0.4696135    0.4107476   -6.6320657  
N    0.5842459   -0.4707048   -6.5591861  
C   -1.1031229    0.9106726   -7.7231412  
C   -2.2017460    1.8380505   -7.5097575  
O   -2.8350881    2.3428871   -8.4275364  
C   -2.5881747    2.2042622   -6.0413003  
O   -3.5112398    2.9842135   -5.8492391  
C   -1.8314682    1.6007481   -4.9472170  
H   -0.8315613    0.6538815   -8.7376471  
H   -2.1054516    1.8593459   -3.9334198  
H    1.7143129   -1.3744694   -4.9838303  
C    3.3321173    0.0004713   -1.3379338  
C    2.6974181    0.0000116   -2.5332314  
C    1.2800438   -0.0002119   -2.2052841  
C    1.2395034    0.0000643   -0.7271299  
N    2.4394062    0.0005460   -0.2131038  
C    0.0000000    0.0000000    0.0000000  
C   -1.1468702    0.0000634   -0.7169543  
O   -2.3742203    0.0000074   -0.1695487  
C   -1.1388770    0.0001607   -2.2096355  
O   -2.2206234    0.0000905   -2.7970411  
C    0.1454522    0.0001815   -2.9324241  
H    3.1367984   -0.0000653   -3.5160950  
H   -2.9844346    0.0001026   -0.9290167  
H    4.3940038    0.0007618   -1.1498640  
C    0.0000000    0.0000000    1.4700000  
C    1.0662921    0.0000102    2.3034270  
C    0.4961870   -0.0000064    3.6418889  
C   -0.9663858    0.0000850    3.4240247  
N   -1.2632773    0.0000084    2.1528658  
C   -1.8985362    0.0000517    4.5177257  
C   -1.3925775   -0.0004564    5.7720543  
O   -2.1456383   -0.0005410    6.8851312  
C    0.0786232   -0.0009323    6.0245000  
O    0.4683759   -0.0012588    7.1921102  
C    1.0143166   -0.0008442    4.8859032  
H    2.1107198   -0.0000632    2.0421868  
H   -2.9622183    0.0003270    4.3293377  
H   -1.5042274   -0.0009692    7.6184419  
H    2.0724152   -0.0013148    5.1109744  
