62

C    2.3329750   -1.9917716   -8.4465178  
C    3.3172560   -2.8308613   -8.9151182  
C    3.2406197   -2.8080356  -10.3392692  
C    2.1818351   -1.9297899  -10.6850812  
N    1.6509374   -1.4529874   -9.5122966  
C    1.8208450   -1.6650951  -12.0096232  
C    2.5420230   -2.2982881  -13.0031767  
O    2.2318287   -2.0753206  -14.3135493  
C    3.6016199   -3.1782967  -12.6781294  
O    4.2226728   -3.7310513  -13.7790833  
C    3.9581201   -3.4401021  -11.3716501  
H    4.0050806   -3.3913962   -8.3054535  
H    0.8912039   -0.8003991   -9.4421914  
H    1.0148029   -0.9968823  -12.2797908  
H    2.8477117   -2.6071394  -14.8342434  
H    4.9254064   -4.3120294  -13.4721076  
H    4.7741774   -4.1190050  -11.1534292  
C    2.5563882   -2.1074458   -5.9371929  
C    1.9637245   -1.6426518   -7.0671445  
C    0.9098263   -0.7472304   -6.6519876  
C    0.9372953   -0.7283017   -5.1769702  
N    1.9574935   -1.5736538   -4.8062060  
C    0.0950446    0.0004351   -4.4015596  
C   -0.9054233    0.8207086   -5.0639424  
O   -1.7097172    1.5127953   -4.4536737  
C   -0.9528377    0.8157262   -6.6252025  
O   -1.7910237    1.5021489   -7.1939980  
C    0.0078422   -0.0105932   -7.3519361  
H   -0.0314997   -0.0083091   -8.4327557  
H    3.3801400   -2.7951867   -5.8355365  
H    2.2269416   -1.7707466   -3.8598449  
C    3.3321173    0.0004713   -1.3379338  
C    2.6974181    0.0000116   -2.5332314  
C    1.2800438   -0.0002119   -2.2052841  
C    1.2395034    0.0000643   -0.7271299  
N    2.4394062    0.0005460   -0.2131038  
C    0.0000000    0.0000000    0.0000000  
C   -1.1468702    0.0000634   -0.7169543  
O   -2.3742203    0.0000074   -0.1695487  
C   -1.1388770    0.0001607   -2.2096355  
O   -2.2206234    0.0000905   -2.7970411  
C    0.1454522    0.0001815   -2.9324241  
H    3.1367984   -0.0000653   -3.5160950  
H   -2.9844346    0.0001026   -0.9290167  
H    4.3940038    0.0007618   -1.1498640  
C    0.8676693    0.7151171    2.2619005  
C    0.5875920    0.4624972    3.5848544  
C   -0.5048400   -0.4542819    3.6114698  
C   -0.8517165   -0.7276451    2.2635546  
N    0.0000000    0.0000000    1.4700000  
C   -1.8902865   -1.5946756    1.9108239  
C   -2.5912627   -2.1969500    2.9375057  
O   -3.6148162   -3.0527051    2.6493466  
C   -2.2603868   -1.9365747    4.2886322  
O   -3.0513550   -2.6123276    5.1947621  
C   -1.2361111   -1.0811317    4.6373480  
H    1.1060808    0.8876438    4.4271209  
H   -2.1597133   -1.8070987    0.8854031  
H   -3.9636755   -3.3565188    3.4974381  
H   -2.7621927   -2.3810384    6.0827341  
H   -1.0058879   -0.9010589    5.6809233  
H    1.6167816    1.3499334    1.8205408  
