62

C    0.9407939   -0.7075072   -5.2230667  
C    0.6134854   -0.4569313   -6.5355259  
C   -0.4865820    0.4509916   -6.5242557  
C   -0.7892287    0.7213088   -5.1651160  
N    0.0950450    0.0004357   -4.4015596  
C   -1.8220586    1.5798549   -4.7765919  
C   -2.5626678    2.1766203   -5.7783637  
O   -3.5826128    3.0240229   -5.4548932  
C   -2.2762265    1.9191613   -7.1401584  
O   -3.1032315    2.5886548   -8.0183305  
C   -1.2576383    1.0720866   -7.5241744  
H    1.1062029   -0.8777272   -7.3952668  
H   -2.0578699    1.7899159   -3.7424409  
H   -3.9627903    3.3251533   -6.2903879  
H   -2.8428304    2.3598639   -8.9157990  
H   -1.0618897    0.8940609   -8.5751109  
H    1.7097005   -1.3363231   -4.8079380  
C    3.3321174    0.0004722   -1.3379336  
C    2.6974183    0.0000122   -2.5332313  
C    1.2800441   -0.0002113   -2.2052840  
C    1.2395036    0.0000646   -0.7271298  
N    2.4394063    0.0005463   -0.2131037  
C    0.0000000    0.0000000    0.0000000  
C   -1.1468699    0.0000637   -0.7169543  
O   -2.3742201    0.0000076   -0.1695489  
C   -1.1388769    0.0001611   -2.2096357  
O   -2.2206234    0.0000908   -2.7970412  
C    0.1454523    0.0001820   -2.9324241  
H    3.1367987   -0.0000643   -3.5160945  
H   -2.9844345    0.0001025   -0.9290168  
C    6.8742267    0.0004681   -4.0661420  
C    5.5942430    0.0009000   -3.5620505  
C    5.7067599    0.0008107   -2.1401007  
C    7.0913512    0.0006008   -1.8321523  
N    7.7720043   -0.0015548   -3.0243456  
C    7.5742856    0.0007693   -0.5200688  
C    6.6425088    0.0014637    0.4997198  
O    7.0593440    0.0020077    1.7994359  
C    5.2567329    0.0013072    0.2125913  
O    4.4562663    0.0016421    1.3362447  
C    4.7795905    0.0008679   -1.0815729  
H    4.6906033    0.0001327   -4.1472239  
H    8.7711582    0.0083692   -3.1221985  
H    8.6283029    0.0004667   -0.2787179  
H    6.2603308    0.0021431    2.3424300  
H    3.5363988    0.0015354    1.0543806  
H    7.2178048   -0.0000028   -5.0863933  
C    0.8175213    0.6860729    2.3021913  
C    0.0000000    0.0000000    1.4700000  
C   -0.8887526   -0.7456559    2.3478473  
C   -0.4549825   -0.3816753    3.7138435  
N    0.5448156    0.4573574    3.6934124  
C   -1.0945674   -0.9182058    4.8835240  
C   -2.1210866   -1.7789155    4.6970523  
O   -2.8083856   -2.3554314    5.6976972  
C   -2.5824069   -2.1655116    3.3310774  
O   -3.5227682   -2.9541547    3.2362962  
C   -1.9100805   -1.6015804    2.1470656  
H   -0.7567140   -0.6349833    5.8697035  
H   -3.4728268   -2.9124471    5.2533954  
H   -2.2742832   -1.9066565    1.1752040  
H    1.6189533    1.3585343    2.0405121  
