62

C   -1.1188116    0.0108739   -0.8003804  
C    0.0000000    0.0000000    0.0000000  
C    1.1323150   -0.0127269   -0.8673525  
C    0.6382105   -0.0086396   -2.1969278  
N   -0.7324018    0.0038084   -2.1202234  
C    1.4769819   -0.0181719   -3.3154808  
C    2.8393704   -0.0317768   -3.0876853  
O    3.7036921   -0.0411604   -4.1440348  
C    3.3515891   -0.0364302   -1.7684329  
O    4.7297780   -0.0506814   -1.7073124  
C    2.5247072   -0.0273054   -0.6644812  
H   -1.3574983    0.0198087   -2.9057040  
H    4.5937290   -0.0502051   -3.7685130  
H    4.9931797   -0.0529245   -0.7819916  
H    2.9460911   -0.0313586    0.3339654  
H   -2.1618808    0.0216649   -0.5342067  
C    0.9735342   -0.0142233   -4.6965757  
C   -0.3100015   -0.0013782   -5.1397993  
C   -0.2571563   -0.0032639   -6.5827264  
C    1.1726310   -0.0183983   -6.9464167  
N    1.8657736   -0.0240532   -5.7579674  
C    1.6420866   -0.0248346   -8.2197089  
C    0.6745896   -0.0160595   -9.3043320  
O    0.9974983   -0.0207948  -10.4850137  
C   -0.8447843    0.0002480   -8.9423345  
O   -1.6686305    0.0080499   -9.8470310  
C   -1.2284075    0.0056725   -7.5328464  
H   -1.1930356    0.0084946   -4.5259859  
H   -2.2824181    0.0167709   -7.2906433  
H    2.8657458   -0.0357785   -5.6745051  
C    4.0369886   -0.7541617   -7.9155190  
C    3.0737275   -0.0401263   -8.5529805  
C    3.7252641    0.6941738   -9.6118190  
C    5.1573272    0.3468926   -9.5384669  
N    5.2801305   -0.5344524   -8.4891620  
C    6.1106677    0.8356491  -10.3715108  
C    5.6988470    1.7659829  -11.4094979  
O    6.4822497    2.2614885  -12.2089068  
C    4.1873404    2.1480086  -11.5054716  
O    3.8288009    2.9305792  -12.3751226  
C    3.2537574    1.5556174  -10.5508261  
H    7.1557615    0.5679297  -10.3006963  
H    2.2089104    1.8251374  -10.6241565  
H    3.9433333   -1.4222268   -7.0748008  
H    6.1400201   -0.9550191   -8.1878972  
C    2.5285572    2.1210227    2.9438989  
C    1.9331703    1.6216660    4.0790748  
C    0.8903039    0.7472258    3.6520102  
C    0.8972198    0.7527806    2.2336141  
N    1.9028376    1.5986179    1.8362361  
C    0.0000000    0.0000000    1.4700000  
C   -0.9207814   -0.7726952    2.1506477  
O   -1.8198395   -1.5274828    1.4542253  
C   -0.9436862   -0.7911793    3.5655508  
O   -1.9197945   -1.6098497    4.0950179  
C   -0.0590329   -0.0485852    4.3195194  
H    2.2150357    1.8593692    5.0905303  
H    2.1533708    1.7953814    0.8841339  
H   -2.3621246   -1.9821033    2.1118817  
H   -1.8668290   -1.5649508    5.0545920  
H   -0.1007624   -0.0827977    5.4019087  
H    3.3491200    2.8096064    2.8367138  
