62

C    3.3041274    0.0001173   -1.5420423  
C    2.5845372   -0.0004782   -0.3695851  
C    1.2040007   -0.0000010   -0.7283585  
C    1.1422379    0.0006032   -2.1454371  
N    2.4348643    0.0026104   -2.6077458  
C   -0.0655180    0.0008792   -2.8497916  
C   -1.2321769    0.0002319   -2.1101395  
O   -2.4392807    0.0001139   -2.7472519  
C   -1.1911208   -0.0000009   -0.6955263  
O   -2.4371523   -0.0002321   -0.1032864  
C    0.0000000    0.0000000    0.0000000  
H    3.0031534   -0.0000660    0.6222590  
H   -0.1193543    0.0014836   -3.9297468  
H   -3.1132982   -0.0000652   -2.0551783  
H   -2.3200280   -0.0004069    0.8516408  
H    4.3686624    0.0004066   -1.7024282  
C    5.6515803   -2.1002982   -4.7818998  
C    4.8081961   -1.6310303   -3.8266162  
C    3.8761267   -0.7467210   -4.4854631  
C    4.2482789   -0.7392331   -5.9131314  
N    5.3319472   -1.5792879   -6.0265373  
C    3.6067603   -0.0234904   -6.8711869  
C    2.4743168    0.7942192   -6.4693695  
O    1.8313268    1.4750501   -7.2576170  
C    2.0628008    0.8015922   -4.9625827  
O    1.1111845    1.4864532   -4.6123641  
C    2.8310669   -0.0116229   -4.0232744  
H    4.8359715   -1.8762192   -2.7798480  
H    3.8957845   -0.0321206   -7.9129644  
H    6.4798596   -2.7827413   -4.6813289  
C    6.0393362   -1.8792938   -7.2797324  
C    7.1086898   -2.6904563   -7.4860651  
C    7.4132031   -2.6350493   -8.8963977  
C    6.4265431   -1.7185211   -9.4991156  
N    5.6224286   -1.2950799   -8.4661648  
C    6.3780636   -1.3998999  -10.8173848  
C    7.3632710   -1.9998649  -11.7016597  
O    7.4026613   -1.7760943  -12.9044389  
C    8.4174414   -2.9736443  -11.0849877  
O    9.2516739   -3.4850556  -11.8196809  
C    8.3691471   -3.2394308   -9.6494121  
H    7.6251118   -3.2624927   -6.7359339  
H    5.6461058   -0.7251814  -11.2391692  
H    9.1026921   -3.9146602   -9.2302451  
H    4.8526761   -0.6580319   -8.5594324  
C    2.5311839    2.1237619    3.0120429  
C    1.9795631    1.6616747    1.8395852  
C    0.9223175    0.7739173    2.1983588  
C    0.8753926    0.7337535    3.6154372  
N    1.8668922    1.5631002    4.0777464  
C   -0.0496243   -0.0427881    4.3197917  
C   -0.9437528   -0.7922060    3.5801400  
O   -1.8685244   -1.5680278    4.2172520  
C   -0.9124520   -0.7656372    2.1655264  
O   -1.8671164   -1.5663939    1.5732860  
C    0.0000000    0.0000000    1.4700000  
H    2.3005065    1.9304404    0.8477417  
H    2.0679347    1.7444845    5.0445261  
H   -0.0904770   -0.0778569    5.3997470  
H   -2.3849669   -2.0011402    3.5251786  
H   -1.7775064   -1.4909735    0.6183591  
H    3.3468514    2.8078103    3.1724291  
