64

C    8.7277208    0.0073025   -3.2927289  
C    7.9505139    0.0098446   -4.4278104  
C    8.8409665    0.0124692   -5.5421206  
C   10.1601010    0.0110896   -5.0207689  
N   10.0552335    0.0099010   -3.6519676  
C   11.2956647    0.0126645   -5.8364174  
C   11.0959311    0.0153802   -7.2032664  
O   12.1698295    0.0166600   -8.0457354  
C    9.7874891    0.0171676   -7.7425195  
O    9.7547198    0.0202347   -9.1217444  
C    8.6667691    0.0158887   -6.9384614  
H    6.8741766    0.0109164   -4.4499432  
H   10.8276830   -0.0017805   -3.0107450  
H   12.3037366    0.0117703   -5.4452748  
H   11.8126871    0.0188165   -8.9433503  
H    8.8350106    0.0212500   -9.4041239  
H    7.6771974    0.0174977   -7.3803015  
C    4.7390840    0.0009613   -1.2727298  
C    5.7457113    0.0027391   -2.2103685  
C    6.9802492    0.0028874   -1.4958643  
C    6.6612418    0.0008545   -0.1137802  
N    5.2920917    0.0016753   -0.0135513  
C    7.6369656    0.0001119    0.8875937  
C    8.9588063    0.0011388    0.4864542  
O    9.9518670    0.0001280    1.4228544  
C    9.2971111    0.0035436   -0.8877227  
O   10.6560640    0.0047305   -1.1256049  
C    8.3350584    0.0045507   -1.8761454  
H    5.6072444    0.0049039   -3.2779900  
H    4.7730888   -0.0099224    0.8457991  
H    7.4003711   -0.0012920    1.9426874  
H   10.7862573    0.0014115    0.9359717  
H   10.7982731    0.0063139   -2.0771183  
C    3.2798077    0.0005856   -1.4499661  
C    2.5571132    0.0005565   -2.5996564  
C    1.1637425    0.0001547   -2.2210366  
C    1.1336959   -0.0000200   -0.7459475  
N    2.4483509   -0.0001429   -0.3402730  
C    0.0000000    0.0000000    0.0000000  
C   -1.2757370   -0.0000187   -0.6964411  
O   -2.3524597   -0.0000640   -0.1142306  
C   -1.2676502   -0.0000874   -2.2584078  
O   -2.3355774   -0.0004102   -2.8557287  
C    0.0181551    0.0001758   -2.9516297  
H    2.9547342    0.0006074   -3.5989118  
H    0.0150776    0.0003317   -4.0331632  
H    2.7563626    0.0012823    0.6148051  
C    0.0000000    0.0000000    1.4700000  
C    1.0521667    0.0011902    2.3562342  
C    0.4917218    0.0011957    3.6679131  
C   -0.9187428   -0.0003148    3.5178682  
N   -1.1833171    0.0009411    2.1707914  
C   -1.7951701   -0.0010350    4.6072090  
C   -1.2375837   -0.0005224    5.8710424  
O   -2.0474215   -0.0015360    6.9697579  
C    0.1673580    0.0013566    6.0411963  
O    0.5673524    0.0020687    7.3615553  
C    1.0325770    0.0023412    4.9669890  
H    2.0953057    0.0030649    2.0900562  
H   -2.0989778   -0.0102372    1.7591824  
H   -2.8710934   -0.0020419    4.4995513  
H   -1.4634884   -0.0006497    7.7393593  
H    1.5290710    0.0033153    7.3880045  
H    2.1042148    0.0039609    5.1284455  
