60

C    4.0242133   -3.7110037   -4.8328713  
C    4.6377521   -4.5139033   -3.8993898  
C    3.9132030   -4.3632358   -2.6799934  
C    2.8591092   -3.4483308   -2.9325060  
N    2.9566837   -3.0703660   -4.2486518  
C    1.9403054   -3.0636344   -1.9513859  
C    2.0881154   -3.6127609   -0.6925015  
O    1.2183476   -3.2718910    0.3026488  
C    3.1336853   -4.5270183   -0.4209641  
O    3.1475830   -4.9850443    0.8803286  
C    4.0406343   -4.9067749   -1.3883084  
H    5.5019605   -5.1312954   -4.0753613  
H    1.1347967   -2.3666791   -2.1374262  
H    1.4969905   -3.7605240    1.0880544  
H    3.8833724   -5.5969023    0.9795630  
H    4.8311996   -5.6089226   -1.1506659  
H    4.2644959   -3.5435297   -5.8688131  
C    2.0485056   -2.1404837   -4.9352603  
C    2.0920573   -1.7327537   -6.2250042  
C    0.9665696   -0.8221926   -6.3687266  
C    0.3351122   -0.7962137   -5.0318759  
N    0.9649967   -1.5669924   -4.1874028  
C   -0.8287665    0.0000939   -4.7555305  
C   -1.3384142    0.7372510   -5.7685427  
O   -2.4204378    1.5257899   -5.6524723  
C   -0.7235773    0.7324753   -7.1287314  
O   -1.2406172    1.4276569   -8.0031529  
C    0.4698618   -0.0926709   -7.3871130  
H    2.8005015   -2.0149668   -6.9849641  
H   -2.5373023    1.9181283   -6.5365347  
H    0.8852515   -0.0684840   -8.3856599  
C    1.0672569   -0.0000698   -0.8321910  
C    0.0000000    0.0000000    0.0000000  
C   -1.1601223   -0.0000736   -0.8778472  
C   -0.5938729   -0.0000768   -2.2438435  
N    0.7113367   -0.0001553   -2.2234123  
C   -1.4286985   -0.0001877   -3.4135239  
C   -2.7683113   -0.0006798   -3.2270524  
O   -3.6653902   -0.0008302   -4.2276970  
C   -3.3702024   -0.0010610   -1.8610774  
O   -4.5974910   -0.0013779   -1.7662963  
C   -2.4926825   -0.0008943   -0.6770658  
H   -4.5324245   -0.0012258   -3.7833954  
H   -2.9677772   -0.0012974    0.2947961  
H    2.1134391   -0.0000547   -0.5705119  
C    2.3971438    2.0127888    3.1728260  
C    1.9431056    1.6308205    1.9564670  
C    0.8496017    0.7127664    2.2356185  
C    0.7794028    0.6545384    3.7115134  
N    1.6840587    1.4146091    4.2663826  
C   -0.1885723   -0.1578550    4.3957118  
C   -1.0476298   -0.8789867    3.6398520  
O   -2.0015663   -1.6796266    4.1448486  
C   -1.0022026   -0.8410666    2.1483229  
O   -1.8147390   -1.5232959    1.5241687  
C    0.0000000    0.0000000    1.4700000  
H    2.3054237    1.9346118    0.9892483  
H   -0.2170646   -0.1815267    5.4753125  
H   -2.4487139   -2.0549881    3.3649027  
H    3.2048689    2.6911772    3.3971983  
