60

C    7.5510831   -0.8899584   -4.8612828  
C    6.7034526    0.1935463   -4.8584154  
C    7.4764852    1.3279476   -5.2459142  
C    8.7998019    0.8713913   -5.4746350  
N    8.8107320   -0.4794442   -5.2302145  
C    9.8352021    1.7223712   -5.8728432  
C    9.5290755    3.0585300   -6.0435574  
O   10.5023308    3.9331987   -6.4318136  
C    8.2147533    3.5332218   -5.8198590  
O    8.0697694    4.8887529   -6.0316592  
C    7.1928725    2.6943263   -5.4267415  
H    9.6109137   -1.0790780   -5.3203786  
H   10.8459048    1.3806513   -6.0486486  
H   10.0820088    4.8010609   -6.4902035  
H    7.1538522    5.1273085   -5.8590589  
H    6.1961038    3.0868213   -5.2627974  
H    7.3571123   -1.9228656   -4.6279653  
C    4.6171595   -2.0114327   -1.7322444  
C    3.3328193   -1.6298289   -1.9231036  
C    3.3780282   -0.7112571   -3.0503489  
C    4.8069992   -0.6523616   -3.4260571  
N    5.5382134   -1.4125184   -2.6569815  
C    5.2745454    0.1606803   -4.5148406  
C    4.3562407    0.8817945   -5.1975154  
O    4.6514314    1.6829997   -6.2352884  
C    2.9068165    0.8432089   -4.8427747  
O    2.1270270    1.5254609   -5.5073660  
C    2.4521483    0.0014840   -3.7217481  
H    2.4622564   -1.9341723   -1.3676121  
H    3.7953895    2.0581840   -6.5102098  
H    5.0049135   -2.6900162   -0.9891798  
C    0.0000000    0.0000000    0.0000000  
C    1.0662923   -0.0000101   -0.8334270  
C    0.4961873    0.0000065   -2.1718887  
C   -0.9663854   -0.0000848   -1.9540250  
N   -1.2632773   -0.0000083   -0.6828660  
C   -1.8985359   -0.0000514   -3.0477261  
C   -1.3925770    0.0004566   -4.3020547  
O   -2.1456378    0.0005414   -5.4151314  
C    0.0786240    0.0009326   -4.5545000  
O    0.4683767    0.0012591   -5.7221100  
C    1.0143171    0.0008444   -3.4159031  
H    2.1107200    0.0000633   -0.5721865  
H   -2.9622181   -0.0003268   -2.8593381  
H   -1.5042265    0.0009697   -6.1484419  
C    3.2798086   -0.0005857    2.9199648  
C    2.5571146   -0.0005566    4.0696553  
C    1.1637436   -0.0001548    3.6910360  
C    1.1336965    0.0000200    2.2159470  
N    2.4483514    0.0001428    1.8102719  
C    0.0000000    0.0000000    1.4700000  
C   -1.2757367    0.0000186    2.1664417  
O   -2.3524596    0.0000640    1.5842315  
C   -1.2676493    0.0000873    3.7284083  
O   -2.3355761    0.0004100    4.3257297  
C    0.0181563   -0.0001760    4.4216297  
H    2.9547357   -0.0006076    5.0689105  
H    0.0150794   -0.0003319    5.5031631  
H    4.3498549   -0.0008612    2.7900019  
H    2.7563627   -0.0012824    0.8551938  
