60

C    2.1003998   -2.3770981   -7.1074939  
C    1.6748844   -1.0738462   -7.2212416  
C    2.5192129   -0.4425346   -8.1820509  
C    3.4488833   -1.4183385   -8.6241432  
N    3.1678146   -2.5809369   -7.9503612  
C    4.4359310   -1.1459606   -9.5761595  
C    4.4851894    0.1347352  -10.0914946  
O    5.4289097    0.4547853  -11.0242176  
C    3.5665570    1.1221968   -9.6627172  
O    3.7452819    2.3484192  -10.2691648  
C    2.5927203    0.8542696   -8.7233645  
H    3.6562080   -3.4506242   -8.0648035  
H    5.1475417   -1.8852279   -9.9171830  
H    5.2890184    1.3845021  -11.2463024  
H    3.0852755    2.9574621   -9.9241106  
H    1.9030979    1.6310495   -8.4143158  
H    1.7278542   -3.1769798   -6.4907622  
C    0.2653132   -0.7042850   -5.1440085  
C   -0.8287665    0.0000939   -4.7555305  
C   -1.2825957    0.7423470   -5.9078911  
C   -0.3566077    0.4102558   -7.0074599  
N    0.5584964   -0.4707815   -6.4790213  
C   -0.4467553    0.9099656   -8.2659782  
C   -1.5278137    1.8369015   -8.5569044  
O   -1.6939217    2.3415174   -9.6596606  
C   -2.5200360    2.2029120   -7.4074107  
O   -3.4339547    2.9824917   -7.6403699  
C   -2.3204910    1.5996618   -6.0920693  
H    0.2428630    0.6533153   -9.0581062  
H   -3.0119746    1.8581180   -5.3016419  
H    0.8822125   -1.3741501   -4.5672890  
C    1.0672569   -0.0000698   -0.8321910  
C    0.0000000    0.0000000    0.0000000  
C   -1.1601223   -0.0000736   -0.8778472  
C   -0.5938729   -0.0000768   -2.2438435  
N    0.7113367   -0.0001553   -2.2234123  
C   -1.4286985   -0.0001877   -3.4135239  
C   -2.7683113   -0.0006798   -3.2270524  
O   -3.6653902   -0.0008302   -4.2276970  
C   -3.3702024   -0.0010610   -1.8610774  
O   -4.5974910   -0.0013779   -1.7662963  
C   -2.4926825   -0.0008943   -0.6770658  
H   -4.5324245   -0.0012258   -3.7833954  
H   -2.9677772   -0.0012974    0.2947961  
H    2.1134391   -0.0000547   -0.5705119  
C    0.8400945    0.7047457    2.2710304  
C    0.0000000    0.0000000    1.4700000  
C   -0.8844236   -0.7423113    2.3369512  
C   -0.4878984   -0.4098547    3.7186280  
N    0.5629682    0.4714286    3.6095011  
C   -1.0836927   -0.9095027    4.8308716  
C   -2.1891196   -1.8367527    4.6554461  
O   -2.7906899   -2.3413415    5.5944904  
C   -2.6257283   -2.2031529    3.2011665  
O   -3.5549479   -2.9829990    3.0410059  
C   -1.9068976   -1.5999348    2.0816745  
H   -0.7774656   -0.6525820    5.8354244  
H   -2.2155208   -1.8586617    1.0779135  
H    1.6384792    1.3747609    1.9961646  
H    1.0518368    0.8833920    4.3830260  
