60

C    3.5702797   -3.3813876   -7.4511168  
C    3.0593703   -2.1180895   -7.2626556  
C    3.6473766   -1.2788648   -8.2549001  
C    4.5158592   -2.0924893   -9.0267042  
N    4.4467228   -3.3627818   -8.5107627  
C    5.2647693   -1.5955933  -10.0976923  
C    5.1343490   -0.2529528  -10.3951567  
O    5.8423888    0.2842198  -11.4310818  
C    4.2732088    0.5751087   -9.6364951  
O    4.2530598    1.8890447  -10.0566242  
C    3.5342942    0.0856444   -8.5796335  
H    4.9473136   -4.1594729   -8.8610112  
H    5.9285714   -2.2104442  -10.6897451  
H    5.6081240    1.2208170  -11.4652877  
H    3.6476395    2.3795551   -9.4922928  
H    2.8831878    0.7441431   -8.0166791  
H    3.3799327   -4.2939298   -6.9126068  
C    2.0485057   -2.1404841   -4.9352597  
C    2.0920573   -1.7327542   -6.2250031  
C    0.9665699   -0.8221932   -6.3687265  
C    0.3351121   -0.7962139   -5.0318754  
N    0.9649966   -1.5669927   -4.1874018  
C   -0.8287665    0.0000939   -4.7555305  
C   -1.3384143    0.7372509   -5.7685427  
O   -2.4204377    1.5257894   -5.6524722  
C   -0.7235769    0.7324747   -7.1287312  
O   -1.2406172    1.4276562   -8.0031528  
C    0.4698622   -0.0926718   -7.3871123  
H   -2.5373018    1.9181274   -6.5365345  
H    0.8852521   -0.0684847   -8.3856596  
H    2.7147576   -2.8226586   -4.4315535  
C    1.0672569   -0.0000698   -0.8321910  
C    0.0000000    0.0000000    0.0000000  
C   -1.1601223   -0.0000736   -0.8778472  
C   -0.5938729   -0.0000768   -2.2438435  
N    0.7113367   -0.0001553   -2.2234123  
C   -1.4286985   -0.0001877   -3.4135239  
C   -2.7683113   -0.0006798   -3.2270524  
O   -3.6653902   -0.0008302   -4.2276970  
C   -3.3702024   -0.0010610   -1.8610774  
O   -4.5974910   -0.0013779   -1.7662963  
C   -2.4926825   -0.0008943   -0.6770658  
H   -4.5324245   -0.0012258   -3.7833954  
H   -2.9677772   -0.0012974    0.2947961  
H    2.1134391   -0.0000547   -0.5705119  
C    2.5528530    2.1414826    2.8079335  
C    2.0663498    1.7338582    4.0032312  
C    0.9804344    0.8229586    3.6752840  
C    0.9495562    0.7966882    2.1971295  
N    1.8690446    1.5676019    1.6831036  
C    0.0000000    0.0000000    1.4700000  
C   -0.8785127   -0.7372425    2.1869543  
O   -1.8187535   -1.5261249    1.6395491  
C   -0.8723269   -0.7321790    3.6796354  
O   -1.7010379   -1.4274584    4.2670412  
C    0.1115397    0.0933559    4.4024240  
H    2.4028853    2.0163452    4.9860947  
H   -2.2861435   -1.9184361    2.3990168  
H    0.0832434    0.0693689    5.4835595  
H    3.3664920    2.8238276    2.6198634  
