60

C    2.5739599   -2.1205413   -6.0299301  
C    2.0624115   -1.6592053   -4.8391513  
C    0.9926084   -0.7724382   -5.1612768  
C    0.8970784   -0.7320764   -6.5759042  
N    1.8729612   -1.5603567   -7.0721127  
C   -0.0523143    0.0436663   -7.2479647  
C   -0.9212935    0.7920667   -6.4779327  
O   -1.8681346    1.5670783   -7.0827992  
C   -0.8414765    0.7652849   -5.0652301  
O   -1.7760616    1.5649891   -4.4404368  
C    0.0950450    0.0004357   -4.4015596  
H    2.4174427   -1.9278227   -3.8589517  
H    2.0409129   -1.7413737   -8.0452541  
H   -0.1302101    0.0788810   -8.3258765  
H   -2.3609694    1.9995572   -6.3733337  
H   -1.6536852    1.4894934   -3.4891598  
H    3.3843232   -2.8037502   -6.2183331  
C    3.3321174    0.0004722   -1.3379336  
C    2.6974183    0.0000122   -2.5332313  
C    1.2800441   -0.0002113   -2.2052840  
C    1.2395036    0.0000646   -0.7271298  
N    2.4394063    0.0005463   -0.2131037  
C    0.0000000    0.0000000    0.0000000  
C   -1.1468699    0.0000637   -0.7169543  
O   -2.3742201    0.0000076   -0.1695489  
C   -1.1388769    0.0001611   -2.2096357  
O   -2.2206234    0.0000908   -2.7970412  
C    0.1454523    0.0001820   -2.9324241  
H    3.1367987   -0.0000643   -3.5160945  
H   -2.9844345    0.0001025   -0.9290168  
C    6.8354435    0.0008793   -4.0255231  
C    5.5758878    0.0005999   -3.5179854  
C    5.7016163    0.0007911   -2.0795738  
C    7.1480386    0.0012368   -1.7886227  
N    7.7802458    0.0008706   -3.0105902  
C    7.6812952    0.0019206   -0.5406880  
C    6.7698194    0.0020125    0.5914546  
O    7.1520256    0.0025453    1.7543040  
C    5.2340030    0.0012942    0.3067216  
O    4.4569020    0.0010581    1.2519064  
C    4.7795905    0.0008679   -1.0815729  
H    4.6629021    0.0001126   -4.0863779  
H    8.7453481    0.0023685   -0.3491108  
H    7.1529574    0.0008738   -5.0556076  
H    8.7747886    0.0025952   -3.1444921  
C    0.8175213    0.6860729    2.3021913  
C    0.0000000    0.0000000    1.4700000  
C   -0.8887526   -0.7456559    2.3478473  
C   -0.4549825   -0.3816753    3.7138435  
N    0.5448156    0.4573574    3.6934124  
C   -1.0945674   -0.9182058    4.8835240  
C   -2.1210866   -1.7789155    4.6970523  
O   -2.8083856   -2.3554314    5.6976972  
C   -2.5824069   -2.1655116    3.3310774  
O   -3.5227682   -2.9541547    3.2362962  
C   -1.9100805   -1.6015804    2.1470656  
H   -0.7567140   -0.6349833    5.8697035  
H   -3.4728268   -2.9124471    5.2533954  
H   -2.2742832   -1.9066565    1.1752040  
H    1.6189533    1.3585343    2.0405121  
