62

C    1.1243415    0.0100053   -0.7919006  
C    0.7474076    0.0234629   -2.1148549  
C   -0.6787379    0.0234402   -2.1414703  
C   -1.1201745    0.0098455   -0.7935549  
N    0.0000000    0.0000000    0.0000000  
C   -2.4730814    0.0063409   -0.4408250  
C   -3.3971956    0.0170567   -1.4675066  
O   -4.7313516    0.0145687   -1.1793477  
C   -2.9763648    0.0303141   -2.8186328  
O   -4.0166474    0.0394625   -3.7247629  
C   -1.6418562    0.0335056   -3.1673486  
H    1.4178715    0.0311137   -2.9571210  
H   -2.8160164   -0.0041451    0.5845958  
H   -5.1938818    0.0230239   -2.0274389  
H   -3.6464675    0.0481844   -4.6127350  
H    2.1062469    0.0053068   -0.3505407  
C   -0.2201812   -0.6516331   -5.1344351  
C   -1.2456329    0.0471566   -4.5828770  
C   -1.8642147    0.7990800   -5.6490865  
C   -1.1096938    0.4787544   -6.8758219  
N   -0.1264587   -0.4053975   -6.4958035  
C   -1.3840266    0.9897831   -8.1027271  
C   -2.4965360    1.9173553   -8.2230101  
O   -2.8231187    2.4317261   -9.2846443  
C   -3.3092523    2.2710212   -6.9368462  
O   -4.2478484    3.0510203   -7.0257244  
C   -2.9183109    1.6561379   -5.6707753  
H   -3.4862636    1.9060881   -4.7849544  
H    0.4750809   -1.3256101   -4.6608795  
H    0.5531280   -0.8110403   -7.1127824  
C   -0.1385687   -0.5760984   -9.6379321  
C   -0.6146594    0.6524099   -9.3090243  
C   -0.2205289    1.5535202  -10.3661424  
C    0.5295574    0.7434747  -11.3449092  
N    0.5437250   -0.5380334  -10.8444837  
C    1.0712688    1.2289655  -12.4905759  
C    0.9046027    2.6437766  -12.7787907  
O    1.3553332    3.1762731  -13.7845688  
C    0.1140015    3.5205724  -11.7560566  
O   -0.0324955    4.7130812  -11.9878352  
C   -0.4233981    2.8834754  -10.5564062  
H    1.6177341    0.6175948  -13.1952115  
H   -0.9697373    3.4974882   -9.8533943  
H   -0.2285622   -1.5060142   -9.1003009  
H    0.9805045   -1.3248959  -11.2884626  
C    2.5285572    2.1210227    2.9438989  
C    1.9331703    1.6216660    4.0790748  
C    0.8903039    0.7472258    3.6520102  
C    0.8972198    0.7527806    2.2336141  
N    1.9028376    1.5986179    1.8362361  
C    0.0000000    0.0000000    1.4700000  
C   -0.9207814   -0.7726952    2.1506477  
O   -1.8198395   -1.5274828    1.4542253  
C   -0.9436862   -0.7911793    3.5655508  
O   -1.9197945   -1.6098497    4.0950179  
C   -0.0590329   -0.0485852    4.3195194  
H    2.2150357    1.8593692    5.0905303  
H    2.1533708    1.7953814    0.8841339  
H   -2.3621246   -1.9821033    2.1118817  
H   -1.8668290   -1.5649508    5.0545920  
H   -0.1007624   -0.0827977    5.4019087  
H    3.3491200    2.8096064    2.8367138  
