62

C    1.1243407    0.0099918   -0.7919011  
C    0.7474070    0.0234537   -2.1148548  
C   -0.6787389    0.0234486   -2.1414697  
C   -1.1201748    0.0098592   -0.7935545  
N    0.0000000    0.0000000    0.0000000  
C   -2.4730816    0.0063711   -0.4408237  
C   -3.3971960    0.0170983   -1.4675051  
O   -4.7313524    0.0146266   -1.1793453  
C   -2.9763659    0.0303506   -2.8186315  
O   -4.0166486    0.0395119   -3.7247612  
C   -1.6418572    0.0335257   -3.1673476  
H    1.4178706    0.0310961   -2.9571212  
H   -2.8160166   -0.0041105    0.5845974  
H   -5.1938826    0.0230873   -2.0274370  
H   -3.6464687    0.0482291   -4.6127332  
H    2.1062465    0.0052813   -0.3505410  
C    1.5662170   -2.0369334   -5.3849788  
C    0.7247348   -1.5841899   -4.4200922  
C   -0.2036122   -0.6824646   -5.0603256  
C    0.1686516   -0.6467490   -6.4875373  
N    1.2488251   -1.4887532   -6.6184702  
C   -0.4698303    0.0914807   -7.4304387  
C   -1.5988886    0.9053323   -7.0116220  
O   -2.2389969    1.6051223   -7.7854801  
C   -2.0104588    0.8829877   -5.5049977  
O   -2.9592406    1.5643450   -5.1405443  
C   -1.2456343    0.0471721   -4.5828762  
H    0.7514295   -1.8512710   -3.3786662  
H    2.3916469   -2.7247631   -5.2986873  
H    1.7309295   -1.6776748   -7.4780815  
C   -0.0768279    0.1076580   -8.8468379  
C    0.9340613   -0.5698093   -9.4390550  
C    0.8705517   -0.1879517  -10.8414285  
C   -0.2687155    0.7513941  -10.9206979  
N   -0.8279386    0.9286450   -9.7545763  
C   -0.6652333    1.3637072  -12.1588147  
C    0.0443700    1.0520914  -13.2672792  
O   -0.2145737    1.5493336  -14.4886472  
C    1.1994968    0.1078643  -13.2195539  
O    1.7999178   -0.1300150  -14.2674703  
C    1.5865969   -0.5072664  -11.9374892  
H    1.6361848   -1.2451800   -8.9808264  
H   -1.5019197    2.0463740  -12.1876526  
H    0.4557975    1.1446992  -15.0683248  
H    2.4290844   -1.1857846  -11.9450656  
C    0.8676693    0.7151171    2.2619005  
C    0.5875920    0.4624972    3.5848544  
C   -0.5048400   -0.4542819    3.6114698  
C   -0.8517165   -0.7276451    2.2635546  
N    0.0000000    0.0000000    1.4700000  
C   -1.8902865   -1.5946756    1.9108239  
C   -2.5912627   -2.1969500    2.9375057  
O   -3.6148162   -3.0527051    2.6493466  
C   -2.2603868   -1.9365747    4.2886322  
O   -3.0513550   -2.6123276    5.1947621  
C   -1.2361111   -1.0811317    4.6373480  
H    1.1060808    0.8876438    4.4271209  
H   -2.1597133   -1.8070987    0.8854031  
H   -3.9636755   -3.3565188    3.4974381  
H   -2.7621927   -2.3810384    6.0827341  
H   -1.0058879   -0.9010589    5.6809233  
H    1.6167816    1.3499334    1.8205408  
