64

C   -0.4138949   -0.9858880   -9.5541654  
C   -0.5494835    0.0892217   -8.7066855  
C   -0.8057965    1.2317559   -9.5212529  
C   -0.8154968    0.7885831  -10.8686319  
N   -0.5724139   -0.5624473  -10.8529797  
C   -1.0395371    1.6503063  -11.9466047  
C   -1.2580620    2.9836461  -11.6591525  
O   -1.4824254    3.8684305  -12.6739582  
C   -1.2518511    3.4450489  -10.3212870  
O   -1.4846226    4.7994065  -10.1993187  
C   -1.0306290    2.5955503   -9.2573604  
H   -0.5307492   -1.1540449  -11.6630763  
H   -1.0480484    1.3188099  -12.9757990  
H   -1.6087091    4.7322036  -12.2601797  
H   -1.4637971    5.0286812   -9.2651862  
H   -1.0315524    2.9779742   -8.2433439  
H   -0.2152329   -2.0210042   -9.3350161  
C    2.1801846   -2.1249309   -6.0224128  
C    1.6691587   -1.6625654   -4.8318088  
C    0.6003592   -0.7747106   -5.1542709  
C    0.5048749   -0.7347773   -6.5689139  
N    1.4798201   -1.5643490   -7.0648071  
C   -0.4436396    0.0417841   -7.2412683  
C   -1.3117719    0.7914588   -6.4715206  
O   -2.2577358    1.5673116   -7.0766812  
C   -1.2319854    0.7651224   -5.0588080  
O   -2.1656655    1.5661203   -4.4343180  
C   -0.2963293   -0.0005341   -4.3948471  
H    2.0238859   -1.9312126   -3.8515077  
H    1.6475668   -1.7459252   -8.0378808  
H   -2.7500811    2.0006168   -6.3673799  
H   -2.0433738    1.4908465   -3.4830122  
H    2.9897744   -2.8091273   -6.2105564  
C    3.1301146   -0.0010313   -1.7028256  
C    2.5367765   -0.0002766   -0.4864669  
C    1.1089901    0.0001027   -0.7656184  
C    1.0177865   -0.0004150   -2.2415133  
N    2.1993571   -0.0011612   -2.7963824  
C   -0.2459219   -0.0002879   -2.9257116  
C   -1.3675326   -0.0000606   -2.1698520  
O   -2.6129318    0.0000865   -2.6748483  
C   -1.3083588    0.0000910   -0.6783229  
O   -2.3693264    0.0004206   -0.0541685  
C    0.0000000    0.0000000    0.0000000  
H    3.0096016   -0.0001007    0.4807518  
H   -3.1967444    0.0002093   -1.8949026  
H    4.1849275   -0.0015114   -1.9271979  
C    0.0000000    0.0000000    1.4700000  
C    1.0521667    0.0011902    2.3562342  
C    0.4917218    0.0011957    3.6679131  
C   -0.9187428   -0.0003148    3.5178682  
N   -1.1833171    0.0009411    2.1707914  
C   -1.7951701   -0.0010350    4.6072090  
C   -1.2375837   -0.0005224    5.8710424  
O   -2.0474215   -0.0015360    6.9697579  
C    0.1673580    0.0013566    6.0411963  
O    0.5673524    0.0020687    7.3615553  
C    1.0325770    0.0023412    4.9669890  
H    2.0953057    0.0030649    2.0900562  
H   -2.0989778   -0.0102372    1.7591824  
H   -2.8710934   -0.0020419    4.4995513  
H   -1.4634884   -0.0006497    7.7393593  
H    1.5290710    0.0033153    7.3880045  
H    2.1042148    0.0039609    5.1284455  
