60

C    7.3733799   -5.6233039   -6.9679572  
C    8.0096148   -5.1913383   -8.1086044  
C    7.7341748   -3.7976560   -8.2365987  
C    6.9184401   -3.4317647   -7.1354055  
N    6.7168609   -4.5642041   -6.3860296  
C    6.4538005   -2.1278445   -6.9387052  
C    6.8195494   -1.1758844   -7.8704655  
O    6.3938014    0.1129241   -7.7265029  
C    7.6325260   -1.5215799   -8.9760788  
O    7.9094597   -0.4620933   -9.8152079  
C    8.0910433   -2.8077880   -9.1709054  
H    8.5987623   -5.8054535   -8.7679680  
H    6.1843562   -4.6105685   -5.5361642  
H    6.7566780    0.6054788   -8.4741487  
H    8.4627668   -0.7806813  -10.5349006  
H    8.7121351   -3.0426793  -10.0273798  
H    7.3347668   -6.6033887   -6.5242222  
C    5.7075972   -2.1458903   -4.5134258  
C    5.6080286   -1.7400307   -5.8006494  
C    4.4743456   -0.8284975   -5.8198979  
C    3.9952577   -0.7999674   -4.4212399  
N    4.7143360   -1.5702093   -3.6507568  
C    2.8699641   -0.0020530   -4.0185824  
C    2.2516352    0.7342029   -4.9698613  
O    1.1898872    1.5240358   -4.7355640  
C    2.7116330    0.7268602   -6.3898996  
O    2.1013094    1.4213443   -7.2025607  
C    3.8682736   -0.0998984   -6.7779432  
H    0.9759268    1.9152451   -5.6017793  
H    4.1702386   -0.0775579   -7.8164742  
H    6.4250582   -2.8280480   -4.0857759  
C    3.2573670   -0.0002921   -1.5109382  
C    2.5379468   -0.0001711   -0.3591962  
C    1.1435043    0.0000330   -0.7338498  
C    1.1092608   -0.0000085   -2.2088474  
N    2.4227562    0.0001906   -2.6182610  
C   -0.0265533   -0.0002525   -2.9515663  
C   -1.3003033   -0.0002641   -2.2514979  
O   -2.3786785   -0.0004132   -2.8306425  
C   -1.2877724    0.0000310   -0.6895608  
O   -2.3539956    0.0003306   -0.0892035  
C    0.0000000    0.0000000    0.0000000  
H    2.9384091   -0.0000370    0.6389240  
H   -0.0296290   -0.0004088   -4.0327231  
H    4.3270394   -0.0004767   -1.6439445  
C    2.3971438    2.0127888    3.1728260  
C    1.9431056    1.6308205    1.9564670  
C    0.8496017    0.7127664    2.2356185  
C    0.7794028    0.6545384    3.7115134  
N    1.6840587    1.4146091    4.2663826  
C   -0.1885723   -0.1578550    4.3957118  
C   -1.0476298   -0.8789867    3.6398520  
O   -2.0015663   -1.6796266    4.1448486  
C   -1.0022026   -0.8410666    2.1483229  
O   -1.8147390   -1.5232959    1.5241687  
C    0.0000000    0.0000000    1.4700000  
H    2.3054237    1.9346118    0.9892483  
H   -0.2170646   -0.1815267    5.4753125  
H   -2.4487139   -2.0549881    3.3649027  
H    3.2048689    2.6911772    3.3971983  
