60

C    3.7677722   -3.6353788   -5.4945410  
C    2.7815116   -3.0383984   -4.7439604  
C    2.9360144   -3.5065701   -3.4054745  
C    4.0425108   -4.3940173   -3.4000628  
N    4.5230361   -4.4509729   -4.6847689  
C    4.4843299   -5.0448667   -2.2442170  
C    3.7968075   -4.7950615   -1.0724286  
O    4.1861362   -5.4039270    0.0854661  
C    2.6901160   -3.9131127   -1.0577217  
O    2.1107766   -3.7688952    0.1860265  
C    2.2535292   -3.2708970   -2.1976678  
H    5.3128749   -4.9929292   -4.9854681  
H    5.3268813   -5.7225067   -2.2334918  
H    3.5809575   -5.0960973    0.7726802  
H    1.3719384   -3.1575928    0.1083637  
H    1.4026944   -2.6009792   -2.1556222  
H    3.9913486   -3.5450318   -6.5437360  
C    1.7704311   -2.0997828   -5.2515196  
C    1.5928577   -1.6333161   -6.5144339  
C    0.4607450   -0.7379004   -6.4771953  
C   -0.0100427   -0.7207974   -5.0790333  
N    0.8257125   -1.5670937   -4.3875237  
C   -1.0641734    0.0073898   -4.6315339  
C   -1.7831605    0.8289565   -5.5910241  
O   -2.7459477    1.5206786   -5.2862916  
C   -1.3021146    0.8259153   -7.0770899  
O   -1.8998129    1.5134388   -7.8939917  
C   -0.1528633    0.0000288   -7.4390073  
H    2.1870125   -1.8876235   -7.3740392  
H    0.1740146    0.0036602   -8.4699587  
H    0.7607707   -1.7654786   -3.4059568  
C    1.1319248    0.0015675   -0.8009270  
C    0.7969916    0.0034959   -2.1169404  
C   -0.6453336    0.0035703   -2.1842672  
C   -1.1266831    0.0015415   -0.7896027  
N    0.0000000    0.0000000    0.0000000  
C   -2.4346129    0.0013924   -0.4276297  
C   -3.4350110    0.0031352   -1.4820184  
O   -4.6384610    0.0030897   -1.2583919  
C   -2.9478958    0.0050460   -2.9661075  
O   -3.7809377    0.0062160   -3.8623775  
C   -1.5113821    0.0053068   -3.2312125  
H    1.4821240    0.0045436   -2.9459192  
H   -2.7664565    0.0000185    0.6013447  
H    2.1104318    0.0009428   -0.3488058  
C    2.5128556    2.1077716    2.9199648  
C    1.9592212    1.6432552    4.0696553  
C    0.8915788    0.7479214    3.6910360  
C    0.8684491    0.7287414    2.2159470  
N    1.8754542    1.5738793    1.8102719  
C    0.0000000    0.0000000    1.4700000  
C   -0.9772830   -0.8200135    2.1664417  
O   -1.8021297   -1.5120829    1.5842315  
C   -0.9711318   -0.8147624    3.7284083  
O   -1.7894187   -1.5009653    4.3257297  
C    0.0140216    0.0115358    4.4216297  
H    2.2638494    1.8988021    5.0689105  
H    0.0117648    0.0094386    5.5031631  
H    3.3327358    2.7953732    2.7900019  
H    2.1123206    1.7707734    0.8551938  
