64

C    3.3003547    0.0005275   -1.4738980  
C    2.5232816    0.0003495   -2.6090742  
C    1.1623206   -0.0001320   -2.1820096  
C    1.1711889    0.0000583   -0.7636136  
N    2.4852300   -0.0014920   -0.3662353  
C    0.0000000    0.0000000    0.0000000  
C   -1.2020382    0.0000519   -0.6806479  
O   -2.3759247    0.0003494    0.0157745  
C   -1.2314650   -0.0005113   -2.0955508  
O   -2.5054383   -0.0008037   -2.6250181  
C   -0.0764510   -0.0007273   -2.8495192  
H    2.8919962   -0.0005621   -3.6205295  
H    2.8036265    0.0088181    0.5858667  
H   -3.0835641    0.0000347   -0.6418820  
H   -2.4360047   -0.0011529   -3.5845921  
C    4.7630506    0.0004754   -1.3275394  
C    5.7496393    0.0026152   -2.2862397  
C    6.9990004    0.0020518   -1.5979842  
C    6.7092702   -0.0007684   -0.2094690  
N    5.3425447    0.0002886   -0.0803284  
C    7.7059381   -0.0023442    0.7710610  
C    9.0190063   -0.0013564    0.3420781  
O   10.0316329   -0.0031639    1.2572828  
C    9.3281960    0.0018263   -1.0389393  
O   10.6818189    0.0028645   -1.3054854  
C    8.3454703    0.0036555   -2.0068098  
H    5.5886424    0.0054718   -3.3506949  
H    4.8418148   -0.0117287    0.7897905  
H    7.4916922   -0.0043502    1.8309183  
H   10.8555478   -0.0017605    0.7528768  
H   10.8038896    0.0050067   -2.2597904  
H    8.6128214    0.0062685   -3.0570458  
C    2.3027752   -2.1230393   -5.9144752  
C    1.6515183   -1.6244165   -7.0188783  
C    0.6310522   -0.7498913   -6.5409088  
C    0.7085810   -0.7546402   -5.1246134  
N    1.7328878   -1.6001004   -4.7773242  
C   -0.1496409   -0.0015614   -4.3176961  
C   -1.1033071    0.7706087   -4.9520865  
O   -1.9667107    1.5256560   -4.2121870  
C   -1.1966334    0.7882865   -6.3641045  
O   -2.1980390    1.6065094   -6.8447731  
C   -0.3504840    0.0453979   -7.1607688  
H    1.8827170   -1.8626512   -8.0429801  
H    2.0305496   -1.7962859   -3.8387667  
H   -2.5411487    1.9798217   -4.8422818  
H   -2.1929074    1.5610740   -7.8057691  
H   -0.4460589    0.0789900   -8.2397570  
H    3.1277797   -2.8114384   -5.8478928  
C    0.8681109    0.7263879    2.2709268  
C    0.6127770    0.5096195    3.5869401  
C   -0.4920590   -0.4175482    3.6542670  
C   -0.8620974   -0.7254003    2.2596025  
N    0.0000000    0.0000000    1.4700000  
C   -1.8641242   -1.5660088    1.8976294  
C   -2.6293522   -2.2103885    2.9520183  
O   -3.5512764   -2.9839180    2.7283916  
C   -2.2549728   -1.8987399    4.4361073  
O   -2.8923672   -2.4351063    5.3323774  
C   -1.1543735   -0.9755647    4.7012123  
H    1.1382914    0.9492124    4.4159191  
H   -2.1192137   -1.7782617    0.8686553  
H   -0.9013378   -0.7652422    5.7314848  
H    1.6172880    1.3558399    1.8188057  
