64

C    3.8758974   -0.7315584   -4.5547714  
C    2.8310667   -0.0116218   -4.0232750  
C    2.2267735    0.7021014   -5.1003212  
C    2.9517242    0.3752583   -6.2748624  
N    3.9472877   -0.4957927   -5.9077927  
C    2.6324614    0.8994269   -7.5310901  
C    1.5616736    1.7691523   -7.6029843  
O    1.2064703    2.3098784   -8.8048412  
C    0.8263187    2.1077291   -6.4421938  
O   -0.2109555    2.9862818   -6.6778851  
C    1.1408834    1.5912148   -5.2025216  
H    3.1811278    0.6543984   -8.4300500  
H    0.4459253    2.8803801   -8.6334797  
H   -0.6557426    3.1626647   -5.8432249  
H    0.5594794    1.8690837   -4.3311797  
H    4.5767371   -1.3934618   -4.0755361  
C    3.3041274    0.0001178   -1.5420430  
C    2.5845373   -0.0004780   -0.3695856  
C    1.2040007   -0.0000008   -0.7283592  
C    1.1422377    0.0006036   -2.1454377  
N    2.4348641    0.0026109   -2.6077466  
C   -0.0655175    0.0008797   -2.8497922  
C   -1.2321767    0.0002322   -2.1101405  
O   -2.4392811    0.0001146   -2.7472530  
C   -1.1911208   -0.0000008   -0.6955268  
O   -2.4371526   -0.0002322   -0.1032864  
C    0.0000000    0.0000000    0.0000000  
H    3.0031533   -0.0000660    0.6222579  
H   -0.1193545    0.0014844   -3.9297475  
H   -3.1132988   -0.0000647   -2.0551789  
H   -2.3200282   -0.0004072    0.8516406  
H    4.3686628    0.0004071   -1.7024290  
C    5.3656443   -2.4037889   -6.7762989  
C    4.9266842   -1.1008305   -6.8219112  
C    5.6012770   -0.4720634   -7.9101098  
C    6.4459996   -1.4490466   -8.4965177  
N    6.2800213   -2.6098651   -7.7826766  
C    7.2629616   -1.1791926   -9.5985800  
C    7.2262894    0.1001443  -10.1183202  
O    8.0036670    0.4177222  -11.1943516  
C    6.3902604    1.0887501   -9.5468904  
O    6.4663331    2.3133723  -10.1776505  
C    5.5842461    0.8233128   -8.4595045  
H    6.7433050   -3.4798612   -7.9736120  
H    7.9091138   -1.9193689  -10.0500521  
H    7.8287816    1.3468561  -11.3928213  
H    5.8717984    2.9233345   -9.7303494  
H    4.9545085    1.6009181   -8.0432829  
H    5.0999048   -3.2020398   -6.1046312  
C    0.0000000    0.0000000    1.4700000  
C    1.0541688    0.0001722    2.3260392  
C    0.5103138    0.0000454    3.6635956  
C   -0.9576371   -0.0002459    3.5155732  
N   -1.2018458    0.0001392    2.1615969  
C   -1.8348311   -0.0008317    4.5510609  
C   -1.2972847   -0.0009736    5.9014604  
O   -2.0050672   -0.0014265    6.9001319  
C    0.2542623   -0.0004184    6.0817573  
O    0.7184670   -0.0002256    7.2139121  
C    1.0974552   -0.0000873    4.8889129  
H    2.0940752    0.0005483    2.0517982  
H   -2.9081052   -0.0011668    4.4207061  
H    2.1707277    0.0000911    5.0223670  
H   -2.1128194   -0.0014912    1.7406791  
