62

C   -0.6668589    0.5611807   -9.1463363  
C    0.3312617   -0.2784097   -9.5837269  
C    0.2997448   -0.2552713  -11.0095850  
C   -0.7470462    0.6236720  -11.3885485  
N   -1.3145091    1.1005724  -10.2330530  
C   -1.0657828    0.8888305  -12.7237963  
C   -0.3138996    0.2553926  -13.6941597  
O   -0.5823392    0.4787909  -15.0136474  
C    0.7343598   -0.6253107  -13.3359270  
O    1.3896145   -1.1782303  -14.4167899  
C    1.0491821   -0.8875737  -12.0188724  
H    0.9991166   -0.8394698   -8.9527163  
H   -2.0756942    1.7536017  -10.1868917  
H   -1.8624765    1.5575760  -13.0191984  
H    0.0493982   -0.0532986  -15.5147003  
H    2.0819378   -1.7596857  -14.0878493  
H    1.8575228   -1.5670050  -11.7750771  
C    0.8518586   -0.7041561   -5.2251424  
C    0.0139741    0.0003876   -4.4216236  
C   -0.8729884    0.7427327   -5.2859483  
C   -0.4803614    0.4105161   -6.6687954  
N    0.5709018   -0.4706747   -6.5627862  
C   -1.0793689    0.9102631   -7.7792674  
C   -2.1843875    1.8373739   -7.6005638  
O   -2.7886785    2.3420361   -8.5378202  
C   -2.6168944    2.2035194   -6.1449952  
O   -3.5457346    2.9832465   -5.9820787  
C   -1.8948201    1.6002141   -5.0276394  
H   -2.2006129    1.8587644   -4.0229673  
H    1.6510907   -1.3741286   -4.9526460  
H    1.0576099   -0.8824762   -7.3377577  
C    3.2798085    0.0005853   -1.4499648  
C    2.5571144    0.0005562   -2.5996554  
C    1.1637436    0.0001546   -2.2210360  
C    1.1336965   -0.0000201   -0.7459470  
N    2.4483513   -0.0001430   -0.3402717  
C    0.0000000    0.0000000    0.0000000  
C   -1.2757367   -0.0000188   -0.6964414  
O   -2.3524597   -0.0000640   -0.1142313  
C   -1.2676494   -0.0000875   -2.2584081  
O   -2.3355762   -0.0004102   -2.8557294  
C    0.0181562    0.0001757   -2.9516296  
H    2.9547357    0.0006072   -3.5989105  
H    4.3498550    0.0008609   -1.3200021  
H    2.7563627    0.0012824    0.6148063  
C    2.5285572    2.1210227    2.9438989  
C    1.9331703    1.6216660    4.0790748  
C    0.8903039    0.7472258    3.6520102  
C    0.8972198    0.7527806    2.2336141  
N    1.9028376    1.5986179    1.8362361  
C    0.0000000    0.0000000    1.4700000  
C   -0.9207814   -0.7726952    2.1506477  
O   -1.8198395   -1.5274828    1.4542253  
C   -0.9436862   -0.7911793    3.5655508  
O   -1.9197945   -1.6098497    4.0950179  
C   -0.0590329   -0.0485852    4.3195194  
H    2.2150357    1.8593692    5.0905303  
H    2.1533708    1.7953814    0.8841339  
H   -2.3621246   -1.9821033    2.1118817  
H   -1.8668290   -1.5649508    5.0545920  
H   -0.1007624   -0.0827977    5.4019087  
H    3.3491200    2.8096064    2.8367138  
