64

C   -0.1590118   -2.6043100   -9.7619998  
C   -0.0386273   -2.0408251  -11.0111833  
C   -0.3344755   -0.6524156  -10.8719250  
C   -0.6304214   -0.4251394   -9.5034632  
N   -0.5165363   -1.6314354   -8.8580978  
C   -0.9677439    0.8355932   -9.0019102  
C   -1.0067297    1.8860845   -9.8980833  
O   -1.3300249    3.1383246   -9.4617462  
C   -0.7149858    1.6792214  -11.2673563  
O   -0.7968892    2.8244212  -12.0323084  
C   -0.3823971    0.4356989  -11.7628997  
H    0.2283786   -2.5661015  -11.9121754  
H   -0.6581038   -1.7794296   -7.8752258  
H   -1.2994190    3.7139605  -10.2369698  
H   -0.5854808    2.5975981  -12.9430561  
H   -0.1641489    0.3078578  -12.8167033  
H   -0.0195307   -3.6234844   -9.4445315  
C    0.8348000   -0.7155476   -5.2158233  
C    0.5509172   -0.4631666   -6.5380112  
C   -0.5417432    0.4534220   -6.5616508  
C   -0.8848304    0.7269205   -5.2127931  
N   -0.0307352   -0.0004646   -4.4215603  
C   -1.9225412    1.5938243   -4.8572340  
C   -2.6265387    2.1958309   -5.8820042  
O   -3.6494143    3.0514525   -5.5910578  
C   -2.2994634    1.9353173   -7.2340292  
O   -3.0931217    2.6108037   -8.1380024  
C   -1.2760373    1.0799989   -7.5855344  
H    1.0670805   -0.8883460   -7.3816882  
H   -2.1890860    1.8063496   -3.8310816  
H   -4.0007374    3.3550845   -6.4381967  
H   -2.8064473    2.3794365   -9.0267601  
H    1.5852737   -1.3501720   -4.7765053  
C    3.2573670   -0.0002920   -1.5109380  
C    2.5379468   -0.0001709   -0.3591961  
C    1.1435043    0.0000332   -0.7338500  
C    1.1092609   -0.0000082   -2.2088477  
N    2.4227562    0.0001909   -2.6182613  
C   -0.0265532   -0.0002522   -2.9515663  
C   -1.3003035   -0.0002639   -2.2514981  
O   -2.3786784   -0.0004131   -2.8306429  
C   -1.2877725    0.0000312   -0.6895608  
O   -2.3539958    0.0003307   -0.0892036  
C    0.0000000    0.0000000    0.0000000  
H    2.9384091   -0.0000369    0.6389239  
H    4.3270394   -0.0004765   -1.6439446  
H    2.7280494   -0.0013406   -3.5742113  
C    0.8576279    0.7185626    2.2703808  
C    0.0000000    0.0000000    1.4700000  
C   -0.8668858   -0.7285659    2.3373528  
C   -0.4876752   -0.4117774    3.6669281  
N    0.5635254    0.4678311    3.5902241  
C   -1.1297612   -0.9515493    4.7854808  
C   -2.1738724   -1.8268314    4.5576857  
O   -2.8357962   -2.3827064    5.6140350  
C   -2.5667212   -2.1555554    3.2384331  
O   -3.6226318   -3.0413663    3.1773122  
C   -1.9335634   -1.6236449    2.1344818  
H    1.0363952    0.8769718    4.3757045  
H   -0.8454472   -0.7142436    5.8013813  
H   -3.5178062   -2.9546422    5.2385129  
H   -3.8247440   -3.2102924    2.2519915  
H   -2.2566033   -1.8942483    1.1360343  
H    1.6567807    1.3889844    2.0042067  
