60

C    1.3359166   -1.1094872   -7.6755939  
C    2.3895150   -1.9938755   -7.6915477  
C    2.6956652   -2.2521022   -9.0605588  
C    1.7881930   -1.4907215   -9.8407627  
N    0.9753359   -0.8101830   -8.9685547  
C    1.7994818   -1.5009715  -11.2388180  
C    2.7442631   -2.2940473  -11.8605869  
O    2.7997428   -2.3408988  -13.2235766  
C    3.6580102   -3.0611900  -11.0994199  
O    4.5368170   -3.7994236  -11.8649604  
C    3.6472753   -3.0517725   -9.7201728  
H    2.8766913   -2.4034542   -6.8232750  
H    0.2399076   -0.1797067   -9.2324210  
H    1.1104625   -0.9230680  -11.8392196  
H    3.5194517   -2.9453795  -13.4469322  
H    5.1185298   -4.2877393  -11.2743991  
H    4.3595348   -3.6500032   -9.1640394  
C    0.8798773   -0.7257954   -5.2251217  
C    0.6207782   -0.5088637   -6.5403720  
C   -0.4843401    0.4181999   -6.6044216  
C   -0.8504406    0.7258129   -5.2086653  
N    0.0139741    0.0003876   -4.4216236  
C   -1.8515198    1.5662660   -4.8437219  
C   -2.6198106    2.2107190   -5.8958365  
O   -3.5411739    2.9841211   -5.6694758  
C   -2.2496228    1.8993226   -7.3810295  
O   -2.8896199    2.4357528   -8.2754048  
C   -1.1496875    0.9762991   -7.6493977  
H   -2.1037025    1.7783443   -3.8139954  
H   -0.8995624    0.7661510   -8.6804157  
H    1.6304021   -1.3552354   -4.7752250  
C    3.2798085    0.0005853   -1.4499648  
C    2.5571144    0.0005562   -2.5996554  
C    1.1637436    0.0001546   -2.2210360  
C    1.1336965   -0.0000201   -0.7459470  
N    2.4483513   -0.0001430   -0.3402717  
C    0.0000000    0.0000000    0.0000000  
C   -1.2757367   -0.0000188   -0.6964414  
O   -2.3524597   -0.0000640   -0.1142313  
C   -1.2676494   -0.0000875   -2.2584081  
O   -2.3355762   -0.0004102   -2.8557294  
C    0.0181562    0.0001757   -2.9516296  
H    2.9547357    0.0006072   -3.5989105  
H    4.3498550    0.0008609   -1.3200021  
H    2.7563627    0.0012824    0.6148063  
C    0.0000000    0.0000000    1.4700000  
C    1.0662921    0.0000102    2.3034270  
C    0.4961870   -0.0000064    3.6418889  
C   -0.9663858    0.0000850    3.4240247  
N   -1.2632773    0.0000084    2.1528658  
C   -1.8985362    0.0000517    4.5177257  
C   -1.3925775   -0.0004564    5.7720543  
O   -2.1456383   -0.0005410    6.8851312  
C    0.0786232   -0.0009323    6.0245000  
O    0.4683759   -0.0012588    7.1921102  
C    1.0143166   -0.0008442    4.8859032  
H    2.1107198   -0.0000632    2.0421868  
H   -2.9622183    0.0003270    4.3293377  
H   -1.5042274   -0.0009692    7.6184419  
H    2.0724152   -0.0013148    5.1109744  
