62

C    2.0259344   -1.9960041   -8.3954374  
C    3.0031055   -2.8351216   -8.8786412  
C    2.9043804   -2.8133591  -10.3014483  
C    1.8400691   -1.9357034  -10.6314313  
N    1.3272694   -1.4582149   -9.4508984  
C    1.4584896   -1.6720898  -11.9504058  
C    2.1643785   -2.3057774  -12.9545674  
O    1.8338223   -2.0838645  -14.2601319  
C    3.2291805   -3.1852109  -12.6453579  
O    3.8332638   -3.7385703  -13.7554122  
C    3.6059895   -3.4459496  -11.3443764  
H    3.7004891   -3.3949923   -8.2793132  
H    0.5684995   -0.8058181   -9.3694897  
H    0.6481334   -1.0043315  -12.2085219  
H    2.4417303   -2.6158668  -14.7899314  
H    4.5408663   -4.3191002  -13.4589532  
H    4.4255576   -4.1244329  -11.1383484  
C    2.2882818   -2.1097768   -5.8897967  
C    1.6780090   -1.6459960   -7.0107556  
C    0.6303819   -0.7506083   -6.5799497  
C    0.6807208   -0.7305950   -5.1055500  
N    1.7068261   -1.5753509   -4.7500430  
C   -0.1496415   -0.0015615   -4.3176961  
C   -1.1605342    0.8179097   -4.9650744  
O   -1.9554939    1.5101850   -4.3429046  
C   -1.2321585    0.8117734   -6.5254071  
O   -2.0792932    1.4975139   -7.0816297  
C   -0.2825940   -0.0147695   -7.2663562  
H   -0.3386969   -0.0132863   -8.3464369  
H    3.1137386   -2.7971808   -5.8004321  
H    1.9909863   -1.7716675   -3.8078329  
C    3.3003543    0.0005276   -1.4738987  
C    2.5232814    0.0003497   -2.6090747  
C    1.1623200   -0.0001320   -2.1820103  
C    1.1711883    0.0000582   -0.7636140  
N    2.4852300   -0.0014919   -0.3662360  
C    0.0000000    0.0000000    0.0000000  
C   -1.2020384    0.0000519   -0.6806477  
O   -2.3759249    0.0003493    0.0157743  
C   -1.2314656   -0.0005115   -2.0955510  
O   -2.5054392   -0.0008039   -2.6250180  
C   -0.0764516   -0.0007274   -2.8495195  
H    2.8919955   -0.0005620   -3.6205304  
H    2.8036267    0.0088183    0.5858662  
H   -3.0835638    0.0000347   -0.6418818  
H   -2.4360047   -0.0011529   -3.5845921  
H    4.3715549    0.0004895   -1.3667136  
C    0.0000000    0.0000000    1.4700000  
C    1.0541688    0.0001722    2.3260392  
C    0.5103138    0.0000454    3.6635956  
C   -0.9576371   -0.0002459    3.5155732  
N   -1.2018458    0.0001392    2.1615969  
C   -1.8348311   -0.0008317    4.5510609  
C   -1.2972847   -0.0009736    5.9014604  
O   -2.0050672   -0.0014265    6.9001319  
C    0.2542623   -0.0004184    6.0817573  
O    0.7184670   -0.0002256    7.2139121  
C    1.0974552   -0.0000873    4.8889129  
H    2.0940752    0.0005483    2.0517982  
H   -2.9081052   -0.0011668    4.4207061  
H    2.1707277    0.0000911    5.0223670  
H   -2.1128194   -0.0014912    1.7406791  
