60

C    5.1115789   -4.2830201   -8.8035921  
C    4.1551174   -3.4792279   -8.2277738  
C    4.3039615   -3.6019702   -6.8144872  
C    5.3764640   -4.5015421   -6.5854990  
N    5.8430004   -4.8976453   -7.8143454  
C    5.8039381   -4.8578804   -5.3028934  
C    5.1367678   -4.2956335   -4.2319407  
O    5.5133802   -4.6088303   -2.9579374  
C    4.0640444   -3.3963213   -4.4400748  
O    3.5016677   -2.9222972   -3.2728661  
C    3.6416178   -3.0445430   -5.7051181  
H    3.4375999   -2.8791876   -8.7607968  
H    6.6092718   -5.5277160   -7.9686754  
H    6.6205916   -5.5430317   -5.1216619  
H    4.9263253   -4.1152804   -2.3705359  
H    2.7855663   -2.3221030   -3.5021475  
H    5.3289797   -4.4676381   -9.8416731  
C    2.5229100   -2.1069158   -5.8790371  
C    1.9659589   -1.6422902   -7.0270804  
C    0.8993064   -0.7471212   -6.6452961  
C    0.8803717   -0.7281564   -5.1701439  
N    1.8886136   -1.5732492   -4.7674580  
C    0.0139741    0.0003876   -4.4216236  
C   -0.9653707    0.8204009   -5.1151633  
O   -1.7886285    1.5123013   -4.5305085  
C   -0.9636632    0.8153760   -6.6771416  
O   -1.7837169    1.5015809   -7.2720331  
C    0.0195986   -0.0107207   -7.3732829  
H    2.2677690   -1.8976616   -8.0272351  
H    0.0142642   -0.0084675   -8.4548052  
H    2.1282169   -1.7702569   -3.8130861  
C    3.2798085    0.0005853   -1.4499648  
C    2.5571144    0.0005562   -2.5996554  
C    1.1637436    0.0001546   -2.2210360  
C    1.1336965   -0.0000201   -0.7459470  
N    2.4483513   -0.0001430   -0.3402717  
C    0.0000000    0.0000000    0.0000000  
C   -1.2757367   -0.0000188   -0.6964414  
O   -2.3524597   -0.0000640   -0.1142313  
C   -1.2676494   -0.0000875   -2.2584081  
O   -2.3355762   -0.0004102   -2.8557294  
C    0.0181562    0.0001757   -2.9516296  
H    2.9547357    0.0006072   -3.5989105  
H    4.3498550    0.0008609   -1.3200021  
H    2.7563627    0.0012824    0.6148063  
C    0.8175213    0.6860729    2.3021913  
C    0.0000000    0.0000000    1.4700000  
C   -0.8887526   -0.7456559    2.3478473  
C   -0.4549825   -0.3816753    3.7138435  
N    0.5448156    0.4573574    3.6934124  
C   -1.0945674   -0.9182058    4.8835240  
C   -2.1210866   -1.7789155    4.6970523  
O   -2.8083856   -2.3554314    5.6976972  
C   -2.5824069   -2.1655116    3.3310774  
O   -3.5227682   -2.9541547    3.2362962  
C   -1.9100805   -1.6015804    2.1470656  
H   -0.7567140   -0.6349833    5.8697035  
H   -3.4728268   -2.9124471    5.2533954  
H   -2.2742832   -1.9066565    1.1752040  
H    1.6189533    1.3585343    2.0405121  
