62

C    8.0249500    0.0166752   -6.2556518  
C    7.7204611    0.0268540   -7.5971620  
C    6.2979100    0.0169048   -7.7013161  
C    5.7839034    0.0009125   -6.3793978  
N    6.8592899   -0.0007517   -5.5260759  
C    4.4138672   -0.0118207   -6.1007804  
C    3.5469224   -0.0080394   -7.1762203  
O    2.1991155   -0.0196579   -6.9610594  
C    4.0405317    0.0074707   -8.5024659  
O    3.0510459    0.0089372   -9.4638491  
C    5.3919806    0.0197649   -8.7780745  
H    8.4356845    0.0387460   -8.4017173  
H    4.0157363   -0.0241801   -5.0955237  
H    1.7833598   -0.0148402   -7.8330618  
H    3.4689160    0.0197902  -10.3303785  
H    5.7403527    0.0313401   -9.8042231  
H    8.9814002    0.0190217   -5.7615292  
C    6.7793191   -0.0000202   -4.0582530  
C    7.7853572    0.0004711   -3.1461329  
C    7.1695419    0.0010651   -1.8401443  
C    5.7118175    0.0008489   -2.0678064  
N    5.5416291    0.0005850   -3.4330631  
C    4.7795901    0.0008674   -1.0815733  
C    5.2428764    0.0013430    0.2960700  
O    4.4818126    0.0014588    1.2547579  
C    6.7823176    0.0018306    0.5605065  
O    7.1842432    0.0025397    1.7162382  
C    7.6891544    0.0014826   -0.5847003  
H    8.8386427    0.0006053   -3.3633956  
H    8.7535769    0.0016186   -0.3930558  
H    4.6549030   -0.0011624   -3.9029151  
C    3.3321168    0.0004716   -1.3379341  
C    2.6974177    0.0000118   -2.5332316  
C    1.2800432   -0.0002116   -2.2052842  
C    1.2395033    0.0000644   -0.7271298  
N    2.4394059    0.0005460   -0.2131041  
C    0.0000000    0.0000000    0.0000000  
C   -1.1468704    0.0000635   -0.7169542  
O   -2.3742206    0.0000074   -0.1695488  
C   -1.1388774    0.0001608   -2.2096352  
O   -2.2206238    0.0000906   -2.7970409  
C    0.1454514    0.0001818   -2.9324241  
H    3.1367978   -0.0000649   -3.5160956  
H   -2.9844350    0.0001027   -0.9290164  
H    0.1083567    0.0003684   -4.0135594  
C    0.8576279    0.7185626    2.2703808  
C    0.0000000    0.0000000    1.4700000  
C   -0.8668858   -0.7285659    2.3373528  
C   -0.4876752   -0.4117774    3.6669281  
N    0.5635254    0.4678311    3.5902241  
C   -1.1297612   -0.9515493    4.7854808  
C   -2.1738724   -1.8268314    4.5576857  
O   -2.8357962   -2.3827064    5.6140350  
C   -2.5667212   -2.1555554    3.2384331  
O   -3.6226318   -3.0413663    3.1773122  
C   -1.9335634   -1.6236449    2.1344818  
H    1.0363952    0.8769718    4.3757045  
H   -0.8454472   -0.7142436    5.8013813  
H   -3.5178062   -2.9546422    5.2385129  
H   -3.8247440   -3.2102924    2.2519915  
H   -2.2566033   -1.8942483    1.1360343  
H    1.6567807    1.3889844    2.0042067  
