64

C    3.3003547    0.0005275   -1.4738980  
C    2.5232816    0.0003495   -2.6090742  
C    1.1623206   -0.0001320   -2.1820096  
C    1.1711889    0.0000583   -0.7636136  
N    2.4852300   -0.0014920   -0.3662353  
C    0.0000000    0.0000000    0.0000000  
C   -1.2020382    0.0000519   -0.6806479  
O   -2.3759247    0.0003494    0.0157745  
C   -1.2314650   -0.0005113   -2.0955508  
O   -2.5054383   -0.0008037   -2.6250181  
C   -0.0764510   -0.0007273   -2.8495192  
H    2.8919962   -0.0005621   -3.6205295  
H    2.8036265    0.0088181    0.5858667  
H   -3.0835641    0.0000347   -0.6418820  
H   -2.4360047   -0.0011529   -3.5845921  
C    6.5582218    0.0029724   -4.4647471  
C    7.6103889    0.0023857   -3.5785129  
C    7.0499440    0.0016137   -2.2668342  
C    5.6394785    0.0014820   -2.4168795  
N    5.3749057    0.0042714   -3.7639545  
C    4.7630506    0.0004754   -1.3275394  
C    5.3206369   -0.0007212   -0.0637066  
O    4.5107984   -0.0020883    1.0350081  
C    6.7255803   -0.0002355    0.1064484  
O    7.1255744   -0.0011494    1.4268070  
C    7.5907996    0.0010305   -0.9677582  
H    8.6535293    0.0036053   -3.8446895  
H    4.4592359   -0.0057082   -4.1755733  
H    5.0947319   -0.0024567    1.8046099  
H    8.0872944   -0.0007697    1.4532573  
H    8.6624386    0.0015568   -0.8063008  
H    6.5582220    0.0040130   -5.5412965  
C    2.3020063   -2.1258168   -5.9826638  
C    1.8093627   -1.6631476   -4.7844541  
C    0.7354067   -0.7757531   -5.0906395  
C    0.6179779   -0.7364004   -6.5036468  
N    1.5853781   -1.5658600   -7.0142843  
C   -0.3410996    0.0396021   -7.1615059  
C   -1.1974265    0.7893049   -6.3786730  
O   -2.1529109    1.5646259   -6.9693847  
C   -1.0957275    0.7635436   -4.9673575  
O   -2.0198639    1.5644924   -4.3287677  
C   -0.1496409   -0.0015614   -4.3176961  
H    2.1793389   -1.9313021   -3.8096699  
H    1.7380685   -1.7477627   -7.9897731  
H   -0.4356778    0.0740519   -8.2381070  
H   -2.6343326    1.9980532   -6.2526993  
H   -1.8828066    1.4896274   -3.3794447  
H    3.1087987   -2.8098333   -6.1830797  
C    2.3971438    2.0127888    3.1728260  
C    1.9431056    1.6308205    1.9564670  
C    0.8496017    0.7127664    2.2356185  
C    0.7794028    0.6545384    3.7115134  
N    1.6840587    1.4146091    4.2663826  
C   -0.1885723   -0.1578550    4.3957118  
C   -1.0476298   -0.8789867    3.6398520  
O   -2.0015663   -1.6796266    4.1448486  
C   -1.0022026   -0.8410666    2.1483229  
O   -1.8147390   -1.5232959    1.5241687  
C    0.0000000    0.0000000    1.4700000  
H    2.3054237    1.9346118    0.9892483  
H   -0.2170646   -0.1815267    5.4753125  
H   -2.4487139   -2.0549881    3.3649027  
H    3.2048689    2.6911772    3.3971983  
