62

C    9.0743432    0.0145835   -3.5980583  
C    9.7910048    0.0176551   -4.7723045  
C   11.1723337    0.0345332   -4.4169929  
C   11.2375792    0.0409022   -3.0000845  
N    9.9461522    0.0304191   -2.5345501  
C   12.4469916    0.0569286   -2.2987619  
C   13.6117612    0.0663967   -3.0413257  
O   14.8203607    0.0817806   -2.4072417  
C   13.5672231    0.0606344   -4.4558221  
O   14.8117191    0.0719166   -5.0511757  
C   12.3744633    0.0450985   -5.1483594  
H    9.3699655    0.0099229   -5.7630924  
H    9.6780592    0.0212083   -1.5670677  
H   12.5034799    0.0620004   -1.2189538  
H   15.4926320    0.0864944   -3.1009953  
H   14.6922508    0.0670305   -6.0057998  
H   12.3717921    0.0412070   -6.2320824  
C    6.6682521    0.0023720   -4.3668309  
C    5.4175878    0.0024210   -3.7938519  
C    5.6072947    0.0015616   -2.3801296  
C    7.0065885    0.0012982   -2.1479618  
N    7.6213759   -0.0001472   -3.3754192  
C    7.5601874    0.0007876   -0.8640939  
C    6.6852682    0.0008454    0.2048751  
O    7.1721938    0.0007117    1.4799903  
C    5.2859247    0.0007310   -0.0064393  
O    4.5477721    0.0003832    1.1590973  
C    4.7390840    0.0009613   -1.2727298  
H    4.4834521    0.0018991   -4.3289999  
H    8.6257738    0.0004406   -0.6804408  
H    6.4039032    0.0004829    2.0656480  
H    3.6139330    0.0003543    0.9276922  
H    6.9558181    0.0024890   -5.4042631  
C    3.2798077    0.0005856   -1.4499661  
C    2.5571132    0.0005565   -2.5996564  
C    1.1637425    0.0001547   -2.2210366  
C    1.1336959   -0.0000200   -0.7459475  
N    2.4483509   -0.0001429   -0.3402730  
C    0.0000000    0.0000000    0.0000000  
C   -1.2757370   -0.0000187   -0.6964411  
O   -2.3524597   -0.0000640   -0.1142306  
C   -1.2676502   -0.0000874   -2.2584078  
O   -2.3355774   -0.0004102   -2.8557287  
C    0.0181551    0.0001758   -2.9516297  
H    2.9547342    0.0006074   -3.5989118  
H    0.0150776    0.0003317   -4.0331632  
H    2.7563626    0.0012823    0.6148051  
C    2.3971438    2.0127888    3.1728260  
C    1.9431056    1.6308205    1.9564670  
C    0.8496017    0.7127664    2.2356185  
C    0.7794028    0.6545384    3.7115134  
N    1.6840587    1.4146091    4.2663826  
C   -0.1885723   -0.1578550    4.3957118  
C   -1.0476298   -0.8789867    3.6398520  
O   -2.0015663   -1.6796266    4.1448486  
C   -1.0022026   -0.8410666    2.1483229  
O   -1.8147390   -1.5232959    1.5241687  
C    0.0000000    0.0000000    1.4700000  
H    2.3054237    1.9346118    0.9892483  
H   -0.2170646   -0.1815267    5.4753125  
H   -2.4487139   -2.0549881    3.3649027  
H    3.2048689    2.6911772    3.3971983  
