62

C   -3.3002320   -0.0285289   -1.4738976  
C   -2.5231883   -0.0217580   -2.6090739  
C   -1.1622799   -0.0097295   -2.1820099  
C   -1.1711460   -0.0099952   -0.7636137  
N   -2.4851535   -0.0195937   -0.3662349  
C    0.0000000    0.0000000    0.0000000  
C    1.2019955    0.0101465   -0.6806482  
O    2.3758423    0.0198089    0.0157738  
C    1.2314163    0.0109595   -2.0955512  
O    2.5053411    0.0220609   -2.6250187  
C    0.0764420    0.0013760   -2.8495194  
H   -2.8034508   -0.0326048    0.5858670  
H    3.0834531    0.0261274   -0.6418821  
H    2.4359061    0.0218208   -3.5845928  
H    0.1303923    0.0024486   -3.9319086  
H   -4.3713939   -0.0375792   -1.3667124  
C   -3.0266435   -0.0247848   -3.9901693  
C   -4.3138414   -0.0357853   -4.4079954  
C   -4.2366436   -0.0335883   -5.8607638  
C   -2.7879700   -0.0202992   -6.1569935  
N   -2.0736910   -0.0151705   -5.0643966  
C   -2.2868100   -0.0144590   -7.5038012  
C   -3.1917345   -0.0219601   -8.5089828  
O   -2.8654613   -0.0177722   -9.8126582  
C   -4.6603541   -0.0357801   -8.2422886  
O   -5.4264069   -0.0419081   -9.2057955  
C   -5.1494669   -0.0415040   -6.8520870  
H   -5.2055895   -0.0444251   -3.8048477  
H   -3.7191995   -0.0253014  -10.2819416  
H   -6.2206098   -0.0516614   -6.7011574  
C    0.1068186   -0.7192911   -7.0432384  
C    1.3565763   -0.4906160   -7.5227053  
C    1.2227909    0.4363187   -8.6216730  
C   -0.2176785    0.7310585   -8.7440107  
N   -0.8391400   -0.0009390   -7.7586910  
C   -0.7556210    1.5675649   -9.6673628  
C    0.1441454    2.2210517  -10.6032638  
O   -0.2430466    2.9918134  -11.4717743  
C    1.6734684    1.9233414  -10.4921598  
O    2.4406759    2.4674593  -11.2748400  
C    2.1338649    1.0034533   -9.4550036  
H    2.2681224   -0.9221793   -7.1492747  
H   -1.8151454    1.7701574   -9.7399854  
H    3.1942943    0.8028016   -9.3846276  
H   -0.2027491   -1.3523234   -6.2275625  
C    2.5285572    2.1210227    2.9438989  
C    1.9331703    1.6216660    4.0790748  
C    0.8903039    0.7472258    3.6520102  
C    0.8972198    0.7527806    2.2336141  
N    1.9028376    1.5986179    1.8362361  
C    0.0000000    0.0000000    1.4700000  
C   -0.9207814   -0.7726952    2.1506477  
O   -1.8198395   -1.5274828    1.4542253  
C   -0.9436862   -0.7911793    3.5655508  
O   -1.9197945   -1.6098497    4.0950179  
C   -0.0590329   -0.0485852    4.3195194  
H    2.2150357    1.8593692    5.0905303  
H    2.1533708    1.7953814    0.8841339  
H   -2.3621246   -1.9821033    2.1118817  
H   -1.8668290   -1.5649508    5.0545920  
H   -0.1007624   -0.0827977    5.4019087  
H    3.3491200    2.8096064    2.8367138  
