64

C    6.6830900    2.1303206   -5.3848438  
C    7.5604584    1.6332578   -6.3205901  
C    8.4520367    0.7583271   -5.6319802  
C    8.0664894    0.7612318   -4.2669635  
N    6.9906053    1.6060317   -4.1511885  
C    8.7277208    0.0072894   -3.2927289  
C    9.7974608   -0.7638641   -3.7040155  
O   10.4784126   -1.5196876   -2.7940434  
C   10.1974927   -0.7796999   -5.0614181  
O   11.2802013   -1.5970944   -5.3123174  
C    9.5458027   -0.0359584   -6.0230182  
H    7.5588263    1.8727667   -7.3701734  
H    6.4946986    1.8009438   -3.3002674  
H   11.1770194   -1.9729208   -3.2837301  
H   11.4854443   -1.5504197   -6.2510937  
H    9.8751679   -0.0681380   -7.0549877  
H    5.8631754    2.8184623   -5.4995555  
C    4.7390840    0.0009613   -1.2727298  
C    5.7457108    0.0027336   -2.2103686  
C    6.9802492    0.0028847   -1.4958645  
C    6.6612413    0.0008588   -0.1137803  
N    5.2920917    0.0016812   -0.0135513  
C    7.6369656    0.0001205    0.8875936  
C    8.9588063    0.0011446    0.4864540  
O    9.9518660    0.0001378    1.4228541  
C    9.2971112    0.0035421   -0.8877229  
O   10.6560640    0.0047270   -1.1256049  
C    8.3350584    0.0045450   -1.8761454  
H    5.6072444    0.0048931   -3.2779900  
H    4.7730888   -0.0099119    0.8457991  
H    7.4003711   -0.0012777    1.9426874  
H   10.7862574    0.0014178    0.9359716  
H   10.7982731    0.0063054   -2.0771183  
C    3.2798077    0.0005856   -1.4499661  
C    2.5571132    0.0005565   -2.5996564  
C    1.1637425    0.0001547   -2.2210366  
C    1.1336959   -0.0000200   -0.7459475  
N    2.4483509   -0.0001429   -0.3402730  
C    0.0000000    0.0000000    0.0000000  
C   -1.2757370   -0.0000187   -0.6964411  
O   -2.3524597   -0.0000640   -0.1142306  
C   -1.2676502   -0.0000874   -2.2584078  
O   -2.3355774   -0.0004102   -2.8557287  
C    0.0181551    0.0001758   -2.9516297  
H    2.9547342    0.0006074   -3.5989118  
H    0.0150776    0.0003317   -4.0331632  
H    2.7563626    0.0012823    0.6148051  
C    2.5311839    2.1237619    3.0120429  
C    1.9795631    1.6616747    1.8395852  
C    0.9223175    0.7739173    2.1983588  
C    0.8753926    0.7337535    3.6154372  
N    1.8668922    1.5631002    4.0777464  
C   -0.0496243   -0.0427881    4.3197917  
C   -0.9437528   -0.7922060    3.5801400  
O   -1.8685244   -1.5680278    4.2172520  
C   -0.9124520   -0.7656372    2.1655264  
O   -1.8671164   -1.5663939    1.5732860  
C    0.0000000    0.0000000    1.4700000  
H    2.3005065    1.9304404    0.8477417  
H    2.0679347    1.7444845    5.0445261  
H   -0.0904770   -0.0778569    5.3997470  
H   -2.3849669   -2.0011402    3.5251786  
H   -1.7775064   -1.4909735    0.6183591  
H    3.3468514    2.8078103    3.1724291  
