62

C    6.4725946   -3.0291598   -5.2240817  
C    7.5164822   -2.9169764   -6.1130030  
C    7.5765699   -1.5494879   -6.5142076  
C    6.5359125   -0.8692852   -5.8313578  
N    5.8838798   -1.7974174   -5.0580267  
C    6.2978765    0.4996437   -5.9867982  
C    7.1256456    1.1946307   -6.8470139  
O    6.9377588    2.5333502   -7.0355384  
C    8.1691473    0.5335799   -7.5376161  
O    8.9057452    1.3631421   -8.3577347  
C    8.4043846   -0.8169332   -7.3849603  
H    8.1552955   -3.7219800   -6.4337529  
H    5.5063073    1.0239243   -5.4693529  
H    7.6129587    2.8178310   -7.6651734  
H    9.5889577    0.8386042   -8.7863180  
H    9.2111600   -1.2958526   -7.9273892  
H    6.1005026   -3.8906272   -4.6964647  
C    4.5551382   -2.0647519   -2.9129534  
C    3.4069298   -1.6070138   -2.3506643  
C    2.8049834   -0.7012746   -3.3004707  
C    3.7030475   -0.6686468   -4.4706017  
N    4.7450054   -1.5160901   -4.1721833  
C    3.4850373    0.0719021   -5.5867394  
C    2.2859706    0.8916868   -5.6389647  
O    2.0005474    1.5939522   -6.6000351  
C    1.3208823    0.8726932   -4.4109381  
O    0.3083944    1.5590471   -4.4433026  
C    1.6628945    0.0339172   -3.2649299  
H    3.0252948   -1.8733123   -1.3811007  
H    4.1564391    0.0814611   -6.4341104  
H    5.2786933   -2.7565743   -2.5132785  
C    1.1243410    0.0100105   -0.7919003  
C    0.7474072    0.0234665   -2.1148542  
C   -0.6787384    0.0234379   -2.1414698  
C   -1.1201748    0.0098411   -0.7935547  
N    0.0000000    0.0000000    0.0000000  
C   -2.4730818    0.0063307   -0.4408240  
C   -3.3971962    0.0170429   -1.4675058  
O   -4.7313520    0.0145490   -1.1793468  
C   -2.9763654    0.0303020   -2.8186325  
O   -4.0166484    0.0394464   -3.7247625  
C   -1.6418567    0.0334992   -3.1673480  
H   -2.8160166   -0.0041569    0.5845966  
H   -5.1938823    0.0230023   -2.0274386  
H   -3.6464680    0.0481700   -4.6127343  
H   -1.3497475    0.0435647   -4.2109234  
H    2.1062466    0.0053162   -0.3505405  
C    2.5528530    2.1414826    2.8079335  
C    2.0663498    1.7338582    4.0032312  
C    0.9804344    0.8229586    3.6752840  
C    0.9495562    0.7966882    2.1971295  
N    1.8690446    1.5676019    1.6831036  
C    0.0000000    0.0000000    1.4700000  
C   -0.8785127   -0.7372425    2.1869543  
O   -1.8187535   -1.5261249    1.6395491  
C   -0.8723269   -0.7321790    3.6796354  
O   -1.7010379   -1.4274584    4.2670412  
C    0.1115397    0.0933559    4.4024240  
H    2.4028853    2.0163452    4.9860947  
H   -2.2861435   -1.9184361    2.3990168  
H    0.0832434    0.0693689    5.4835595  
H    3.3664920    2.8238276    2.6198634  
