64

C    3.9370007    0.6238504   -8.6578168  
C    5.0283977   -0.2071057   -8.7618923  
C    5.4612773   -0.1577310  -10.1201186  
C    4.5885845    0.7275814  -10.8031665  
N    3.6737369    1.1828757   -9.8864470  
C    4.7188438    1.0171406  -12.1647758  
C    5.7490287    0.4020073  -12.8492516  
O    5.9220110    0.6495454  -14.1803477  
C    6.6298495   -0.4846821  -12.1853598  
O    7.6039939   -1.0173187  -13.0043125  
C    6.5017759   -0.7710132  -10.8421780  
H    5.4588340   -0.7793960   -7.9580260  
H    2.9346261    1.8346101  -10.0786426  
H    4.0569206    1.6908619  -12.6912365  
H    6.6855712    0.1270492  -14.4582665  
H    8.1557562   -1.6044282  -12.4785143  
H    7.1915351   -1.4544634  -10.3609228  
C    4.1066122   -0.7198885   -4.4477718  
C    3.0267438   -0.0008951   -3.9901699  
C    2.5093616    0.7266865   -5.1026180  
C    3.3209995    0.4088812   -6.2216217  
N    4.2823367   -0.4703596   -5.7887433  
C    3.1008512    0.9475209   -7.4929165  
C    2.0418866    1.8226951   -7.6372801  
O    1.7817962    2.3774851   -8.8569418  
C    1.2209708    2.1524233   -6.5326559  
O    0.2080045    3.0379820   -6.8376636  
C    1.4377316    1.6216300   -5.2781442  
H    4.9956199   -0.8800294   -6.3643990  
H    1.0124320    2.9495424   -8.7382251  
H   -0.2987951    3.2076336   -6.0376784  
H    0.7922748    1.8929860   -4.4509624  
H    4.7662578   -1.3898549   -3.9233937  
C    3.3003547    0.0005277   -1.4738986  
C    2.5232816    0.0003497   -2.6090746  
C    1.1623203   -0.0001319   -2.1820102  
C    1.1711884    0.0000584   -0.7636141  
N    2.4852301   -0.0014919   -0.3662359  
C    0.0000000    0.0000000    0.0000000  
C   -1.2020383    0.0000520   -0.6806479  
O   -2.3759248    0.0003493    0.0157745  
C   -1.2314655   -0.0005115   -2.0955511  
O   -2.5054388   -0.0008040   -2.6250184  
C   -0.0764513   -0.0007274   -2.8495195  
H    2.8036266    0.0088183    0.5858662  
H   -3.0835639    0.0000346   -0.6418822  
H   -2.4360043   -0.0011529   -3.5845924  
H   -0.1304091   -0.0013423   -3.9319089  
H    4.3715553    0.0004897   -1.3667133  
C    0.8400945    0.7047457    2.2710304  
C    0.0000000    0.0000000    1.4700000  
C   -0.8844236   -0.7423113    2.3369512  
C   -0.4878984   -0.4098547    3.7186280  
N    0.5629682    0.4714286    3.6095011  
C   -1.0836927   -0.9095027    4.8308716  
C   -2.1891196   -1.8367527    4.6554461  
O   -2.7906899   -2.3413415    5.5944904  
C   -2.6257283   -2.2031529    3.2011665  
O   -3.5549479   -2.9829990    3.0410059  
C   -1.9068976   -1.5999348    2.0816745  
H   -0.7774656   -0.6525820    5.8354244  
H   -2.2155208   -1.8586617    1.0779135  
H    1.6384792    1.3747609    1.9961646  
H    1.0518368    0.8833920    4.3830260  
