60

C    2.1409000   -2.4119883   -7.0661718  
C    1.7131570   -1.1094228   -7.1794268  
C    2.5575057   -0.4758325   -8.1387172  
C    3.4894837   -1.4496032   -8.5804334  
N    3.2097073   -2.6132337   -7.9078958  
C    4.4771926   -1.1746939   -9.5310359  
C    4.5247522    0.1064895  -10.0453178  
O    5.4690235    0.4289779  -10.9766429  
C    3.6038065    1.0919484   -9.6168929  
O    3.7810420    2.3189647  -10.2221717  
C    2.6293161    0.8215235   -8.6789350  
H    3.6998185   -3.4819436   -8.0224182  
H    5.1905591   -1.9124029   -9.8717662  
H    5.3277138    1.3586111  -11.1981761  
H    3.1195117    2.9265403   -9.8774502  
H    1.9379086    1.5968097   -8.3701237  
H    1.7690577   -3.2130244   -6.4505148  
C    0.2908560   -0.7259183   -5.1324811  
C    0.5947738   -0.5089631   -6.4380995  
C   -0.3866757    0.4179347   -6.9504009  
C   -1.2937770    0.7254250   -5.8281674  
N   -0.8287665    0.0000939   -4.7555305  
C   -2.3565462    1.5657074   -5.9065966  
C   -2.6250328    2.2100934   -7.1814363  
O   -3.5581917    2.9833442   -7.3534793  
C   -1.6774718    1.8988250   -8.3835369  
O   -1.8937523    2.4352001   -9.4618618  
C   -0.5642202    0.9759821   -8.1764506  
H   -3.0094333    1.7776982   -5.0713069  
H    0.0873206    0.7659220   -9.0137631  
H    0.7904799   -1.3552650   -4.4140186  
C    1.0672569   -0.0000698   -0.8321910  
C    0.0000000    0.0000000    0.0000000  
C   -1.1601223   -0.0000736   -0.8778472  
C   -0.5938729   -0.0000768   -2.2438435  
N    0.7113367   -0.0001553   -2.2234123  
C   -1.4286985   -0.0001877   -3.4135239  
C   -2.7683113   -0.0006798   -3.2270524  
O   -3.6653902   -0.0008302   -4.2276970  
C   -3.3702024   -0.0010610   -1.8610774  
O   -4.5974910   -0.0013779   -1.7662963  
C   -2.4926825   -0.0008943   -0.6770658  
H   -4.5324245   -0.0012258   -3.7833954  
H   -2.9677772   -0.0012974    0.2947961  
H    2.1134391   -0.0000547   -0.5705119  
C    2.5128556    2.1077716    2.9199648  
C    1.9592212    1.6432552    4.0696553  
C    0.8915788    0.7479214    3.6910360  
C    0.8684491    0.7287414    2.2159470  
N    1.8754542    1.5738793    1.8102719  
C    0.0000000    0.0000000    1.4700000  
C   -0.9772830   -0.8200135    2.1664417  
O   -1.8021297   -1.5120829    1.5842315  
C   -0.9711318   -0.8147624    3.7284083  
O   -1.7894187   -1.5009653    4.3257297  
C    0.0140216    0.0115358    4.4216297  
H    2.2638494    1.8988021    5.0689105  
H    0.0117648    0.0094386    5.5031631  
H    3.3327358    2.7953732    2.7900019  
H    2.1123206    1.7707734    0.8551938  
