60

C    9.2085263   -0.0056109    0.3420974  
C    9.8821890   -0.0055715   -0.8573387  
C   11.2755792   -0.0068587   -0.5522776  
C   11.3921540   -0.0079354    0.8613472  
N   10.1183952   -0.0051891    1.3733526  
C   12.6262707   -0.0096496    1.5184181  
C   13.7634202   -0.0105954    0.7341559  
O   14.9942818   -0.0126258    1.3240597  
C   13.6676324   -0.0091705   -0.6778070  
O   14.8898030   -0.0099466   -1.3178404  
C   12.4504795   -0.0072060   -1.3267003  
H    9.4254911   -0.0036146   -1.8322320  
H    9.8854151   -0.0157501    2.3498716  
H   12.7218731   -0.0103329    2.5954794  
H   15.6410028   -0.0126749    0.6064125  
H   14.7358000   -0.0089146   -2.2675169  
H   12.4085280   -0.0059665   -2.4096207  
C    5.6706436   -0.0000109   -2.2998306  
C    6.9366746   -0.0017183   -1.8086710  
C    6.8296106   -0.0022729   -0.3687500  
C    5.3870841   -0.0007669   -0.0590646  
N    4.7390840    0.0009613   -1.2727298  
C    4.8700559   -0.0011615    1.1956809  
C    5.7961368   -0.0029798    2.3159070  
O    5.4290430   -0.0034065    3.4836152  
C    7.3281306   -0.0043428    2.0112798  
O    8.1174235   -0.0055710    2.9463067  
C    7.7645007   -0.0040404    0.6172090  
H    7.8422120   -0.0023175   -2.3888562  
H    3.8085777   -0.0001651    1.4010418  
H    5.3397978    0.0008358   -3.3257109  
C    3.2798077    0.0005856   -1.4499661  
C    2.5571132    0.0005565   -2.5996564  
C    1.1637425    0.0001547   -2.2210366  
C    1.1336959   -0.0000200   -0.7459475  
N    2.4483509   -0.0001429   -0.3402730  
C    0.0000000    0.0000000    0.0000000  
C   -1.2757370   -0.0000187   -0.6964411  
O   -2.3524597   -0.0000640   -0.1142306  
C   -1.2676502   -0.0000874   -2.2584078  
O   -2.3355774   -0.0004102   -2.8557287  
C    0.0181551    0.0001758   -2.9516297  
H    2.9547342    0.0006074   -3.5989118  
H    0.0150776    0.0003317   -4.0331632  
H    2.7563626    0.0012823    0.6148051  
C    2.3971438    2.0127888    3.1728260  
C    1.9431056    1.6308205    1.9564670  
C    0.8496017    0.7127664    2.2356185  
C    0.7794028    0.6545384    3.7115134  
N    1.6840587    1.4146091    4.2663826  
C   -0.1885723   -0.1578550    4.3957118  
C   -1.0476298   -0.8789867    3.6398520  
O   -2.0015663   -1.6796266    4.1448486  
C   -1.0022026   -0.8410666    2.1483229  
O   -1.8147390   -1.5232959    1.5241687  
C    0.0000000    0.0000000    1.4700000  
H    2.3054237    1.9346118    0.9892483  
H   -0.2170646   -0.1815267    5.4753125  
H   -2.4487139   -2.0549881    3.3649027  
H    3.2048689    2.6911772    3.3971983  
