60

C   -0.1990739   -3.0307501  -10.4236363  
C   -0.2523907   -2.3478686   -9.2306165  
C   -0.5112120   -0.9807488   -9.5446152  
C   -0.6071592   -0.8890121  -10.9568133  
N   -0.4108017   -2.1512887  -11.4595262  
C   -0.8574010    0.3154739  -11.6211785  
C   -1.0139324    1.4479300  -10.8457959  
O   -1.2603726    2.6502445  -11.4430567  
C   -0.9213326    1.3766995   -9.4354177  
O   -1.1000491    2.5905819   -8.8046291  
C   -0.6742159    0.1888312   -8.7793463  
H   -0.1198240   -2.7815259   -8.2542146  
H   -0.4324131   -2.3983722  -12.4323898  
H   -0.9315453    0.3920739  -12.6972074  
H   -1.3345635    3.2987773  -10.7309005  
H   -1.0221733    2.4544649   -7.8554135  
H   -0.0253464   -4.0753198  -10.6176783  
C    2.0407259   -2.0139650   -6.1785238  
C    1.6287192   -1.6317253   -4.9473771  
C    0.5264171   -0.7135552   -5.1890257  
C    0.4056584   -0.6555640   -6.6616555  
N    1.2906467   -1.4158622   -7.2470885  
C   -0.5850929    0.1568589   -7.3123990  
C   -1.4176232    0.8782449   -6.5276508  
O   -2.3882008    1.6789420   -6.9997770  
C   -1.3210824    0.8405679   -5.0385497  
O   -2.1116406    1.5230226   -4.3870179  
C   -0.2963293   -0.0005341   -4.3948471  
H    2.0239474   -1.9354085   -3.9930991  
H   -2.8082867    2.0545009   -6.2050216  
H    2.8401847   -2.6925111   -6.4303447  
C    3.1301146   -0.0010313   -1.7028256  
C    2.5367765   -0.0002766   -0.4864669  
C    1.1089901    0.0001027   -0.7656184  
C    1.0177865   -0.0004150   -2.2415133  
N    2.1993571   -0.0011612   -2.7963824  
C   -0.2459219   -0.0002879   -2.9257116  
C   -1.3675326   -0.0000606   -2.1698520  
O   -2.6129318    0.0000865   -2.6748483  
C   -1.3083588    0.0000910   -0.6783229  
O   -2.3693264    0.0004206   -0.0541685  
C    0.0000000    0.0000000    0.0000000  
H    3.0096016   -0.0001007    0.4807518  
H   -3.1967444    0.0002093   -1.8949026  
H    4.1849275   -0.0015114   -1.9271979  
C    0.8681109    0.7263879    2.2709268  
C    0.6127770    0.5096195    3.5869401  
C   -0.4920590   -0.4175482    3.6542670  
C   -0.8620974   -0.7254003    2.2596025  
N    0.0000000    0.0000000    1.4700000  
C   -1.8641242   -1.5660088    1.8976294  
C   -2.6293522   -2.2103885    2.9520183  
O   -3.5512764   -2.9839180    2.7283916  
C   -2.2549728   -1.8987399    4.4361073  
O   -2.8923672   -2.4351063    5.3323774  
C   -1.1543735   -0.9755647    4.7012123  
H    1.1382914    0.9492124    4.4159191  
H   -2.1192137   -1.7782617    0.8686553  
H   -0.9013378   -0.7652422    5.7314848  
H    1.6172880    1.3558399    1.8188057  
