62

C    0.0000000    0.0000000    0.0000000  
C    1.0521664   -0.0011910   -0.8862344  
C    0.4917221   -0.0011961   -2.1979133  
C   -0.9187424    0.0003153   -2.0478684  
N   -1.1833170   -0.0009405   -0.7007913  
C   -1.7951700    0.0010360   -3.1372091  
C   -1.2375836    0.0005230   -4.4010425  
O   -2.0474213    0.0015368   -5.4997581  
C    0.1673585   -0.0013572   -4.5711964  
O    0.5673527   -0.0020697   -5.8915552  
C    1.0325770   -0.0023421   -3.4969893  
H    2.0953058   -0.0030663   -0.6200561  
H   -2.0989775    0.0102384   -0.2891824  
H   -1.4634880    0.0006503   -6.2693595  
H    1.5290712   -0.0033167   -5.9180044  
H    2.1042146   -0.0039627   -3.6584458  
C   -3.9705527    0.7070960   -2.0745741  
C   -3.2578652    0.0024056   -2.9908508  
C   -4.2093229   -0.7382534   -3.7851986  
C   -5.5443146   -0.4048878   -3.2527945  
N   -5.3302022    0.4752907   -2.2172602  
C   -6.7108610   -0.9029308   -3.7353172  
C   -6.6473139   -1.8292886   -4.8535110  
O   -7.6421018   -2.3324281   -5.3590295  
C   -5.2441054   -2.1966276   -5.4330570  
O   -5.1780534   -2.9757355   -6.3742735  
C   -4.0579914   -1.5951387   -4.8287424  
H   -7.6796705   -0.6453661   -3.3303750  
H   -3.0902100   -1.8545061   -5.2359914  
H   -3.6168787    1.3760929   -1.3069497  
C   -5.8163913    4.5317284   -0.6072066  
C   -6.9967634    4.3744343    0.0455223  
C   -7.4091713    3.0052027   -0.1543786  
C   -6.3648048    2.3731485   -0.9829899  
N   -5.4281303    3.3517820   -1.2234210  
C   -6.3857525    1.0791266   -1.3913688  
C   -7.5121777    0.2538728   -0.9880605  
O   -7.6227588   -0.9232414   -1.3050390  
C   -8.6298286    0.9025496   -0.1106329  
O   -9.5832044    0.2176921    0.2347736  
C   -8.4962029    2.3073444    0.2669217  
H   -7.5190510    5.1312686    0.6032237  
H   -9.2742435    2.7488865    0.8747188  
H   -5.1975902    5.4104232   -0.6900957  
H   -4.5904034    3.2273979   -1.7617415  
C    1.1243417   -0.0099156    2.2619005  
C    0.7474090   -0.0234034    3.5848544  
C   -0.6787367   -0.0234952    3.6114698  
C   -1.1201739   -0.0099357    2.2635546  
N    0.0000000    0.0000000    1.4700000  
C   -2.4730812   -0.0065396    1.9108239  
C   -3.3971947   -0.0173298    2.9375057  
O   -4.7313508   -0.0149487    2.6493466  
C   -2.9763630   -0.0305536    4.2886322  
O   -4.0166453   -0.0397858    5.1947621  
C   -1.6418541   -0.0336380    4.6373480  
H    1.4178735   -0.0310004    4.4271209  
H   -2.8160170    0.0039190    0.8854031  
H   -5.1938803   -0.0234410    3.4974381  
H   -3.6464643   -0.0484781    6.0827341  
H   -1.3497443   -0.0436789    5.6809233  
H    2.1062470   -0.0051382    1.8205408  
