62

C    3.3003534    0.0005274   -1.4739007  
C    2.5232795    0.0003494   -2.6090763  
C    1.1623184   -0.0001321   -2.1820108  
C    1.1711881    0.0000583   -0.7636147  
N    2.4852294   -0.0014920   -0.3662374  
C    0.0000000    0.0000000    0.0000000  
C   -1.2020395    0.0000519   -0.6806471  
O   -2.3759253    0.0003495    0.0157761  
C   -1.2314670   -0.0005113   -2.0955500  
O   -2.5054410   -0.0008038   -2.6250164  
C   -0.0764538   -0.0007274   -2.8495193  
H    2.8919930   -0.0005622   -3.6205318  
H    2.8036263    0.0088181    0.5858648  
H   -3.0835646    0.0000348   -0.6418799  
H   -2.4360077   -0.0011529   -3.5845907  
H   -0.1304117   -0.0013424   -3.9319085  
C    6.4260906    0.0030627   -4.5098945  
C    7.5522563    0.0028886   -3.7593416  
C    7.0848206    0.0018023   -2.3816614  
C    5.6099745    0.0015407   -2.4884923  
N    5.2179684    0.0021959   -3.7336108  
C    4.7630492    0.0004753   -1.3275432  
C    5.3622555   -0.0006827   -0.1149899  
O    4.6953718   -0.0017513    1.0517601  
C    6.8483156   -0.0008253    0.0256720  
O    7.3251007   -0.0017844    1.1605269  
C    7.6953843    0.0003255   -1.1803121  
H    8.5739818    0.0033401   -4.0986817  
H    5.3903108   -0.0024424    1.7345566  
H    6.3446794    0.0037689   -5.5852290  
C    9.1522011   -0.0000271   -0.9838840  
C   10.1414273    0.0010714   -1.9142101  
C   11.3943154    0.0000400   -1.1965025  
C   11.0514656   -0.0017917    0.2385031  
N    9.6769995   -0.0013440    0.2995975  
C   11.9604525   -0.0035675    1.2461960  
C   13.3705706   -0.0034562    0.8939171  
O   14.2657088   -0.0049085    1.7287982  
C   13.7565758   -0.0012787   -0.6196220  
O   14.9406074   -0.0008592   -0.9283795  
C   12.6871004    0.0002436   -1.6146456  
H   10.0086025    0.0026296   -2.9814351  
H   11.6878506   -0.0050235    2.2924253  
H   12.9627737    0.0015422   -2.6604595  
H    9.1381279   -0.0038513    1.1461543  
C    2.5285572    2.1210227    2.9438989  
C    1.9331703    1.6216660    4.0790748  
C    0.8903039    0.7472258    3.6520102  
C    0.8972198    0.7527806    2.2336141  
N    1.9028376    1.5986179    1.8362361  
C    0.0000000    0.0000000    1.4700000  
C   -0.9207814   -0.7726952    2.1506477  
O   -1.8198395   -1.5274828    1.4542253  
C   -0.9436862   -0.7911793    3.5655508  
O   -1.9197945   -1.6098497    4.0950179  
C   -0.0590329   -0.0485852    4.3195194  
H    2.2150357    1.8593692    5.0905303  
H    2.1533708    1.7953814    0.8841339  
H   -2.3621246   -1.9821033    2.1118817  
H   -1.8668290   -1.5649508    5.0545920  
H   -0.1007624   -0.0827977    5.4019087  
H    3.3491200    2.8096064    2.8367138  
