62

C   10.0413406    0.7085385   -1.6884108  
C   11.3284289    0.4577365   -1.2725133  
C   11.2421957   -0.4510168   -0.1764608  
C    9.8655932   -0.7215846    0.0325522  
N    9.1640960   -0.0000562   -0.9012111  
C    9.4075702   -1.5809164    1.0358230  
C   10.3565212   -2.1782248    1.8426017  
O    9.9642779   -3.0264027    2.8374642  
C   11.7346675   -1.9205277    1.6499278  
O   12.5544180   -2.5906310    2.5344137  
C   12.1872228   -1.0726777    0.6605493  
H   12.2197528    0.8789184   -1.7051115  
H    8.3597547   -1.7911721    1.2003738  
H   10.7719088   -3.3278066    3.2735299  
H   13.4675454   -2.3616292    2.3360201  
H   13.2490535   -0.8944874    0.5370889  
H    9.6795946    1.3379281   -2.4833739  
C    6.5323605    0.0028963   -4.4466863  
C    7.6043844    0.0022108   -3.6131162  
C    7.0889174    0.0013268   -2.2643657  
C    5.6181661    0.0015260   -2.3813332  
N    5.3453988    0.0028888   -3.7298454  
C    4.7630507    0.0004755   -1.3275395  
C    5.3290148   -0.0007199    0.0111981  
O    4.6424946   -0.0016578    1.0246035  
C    6.8840253   -0.0006991    0.1586663  
O    7.3720516   -0.0013932    1.2807581  
C    7.7018219    0.0002118   -1.0517303  
H    8.6382631    0.0024951   -3.9092720  
H    6.5095817    0.0036228   -5.5243557  
H    4.4257331    0.0017847   -4.1314188  
C    3.3003548    0.0005276   -1.4738982  
C    2.5232817    0.0003497   -2.6090743  
C    1.1623204   -0.0001319   -2.1820101  
C    1.1711886    0.0000583   -0.7636140  
N    2.4852302   -0.0014919   -0.3662356  
C    0.0000000    0.0000000    0.0000000  
C   -1.2020379    0.0000520   -0.6806479  
O   -2.3759249    0.0003495    0.0157742  
C   -1.2314652   -0.0005112   -2.0955511  
O   -2.5054384   -0.0008036   -2.6250184  
C   -0.0764510   -0.0007271   -2.8495195  
H    2.8919962   -0.0005619   -3.6205297  
H    2.8036267    0.0088181    0.5858667  
H   -3.0835636    0.0000348   -0.6418823  
H   -2.4360038   -0.0011526   -3.5845925  
H   -0.1304090   -0.0013420   -3.9319089  
C    0.0000000    0.0000000    1.4700000  
C    1.0662921    0.0000102    2.3034270  
C    0.4961870   -0.0000064    3.6418889  
C   -0.9663858    0.0000850    3.4240247  
N   -1.2632773    0.0000084    2.1528658  
C   -1.8985362    0.0000517    4.5177257  
C   -1.3925775   -0.0004564    5.7720543  
O   -2.1456383   -0.0005410    6.8851312  
C    0.0786232   -0.0009323    6.0245000  
O    0.4683759   -0.0012588    7.1921102  
C    1.0143166   -0.0008442    4.8859032  
H    2.1107198   -0.0000632    2.0421868  
H   -2.9622183    0.0003270    4.3293377  
H   -1.5042274   -0.0009692    7.6184419  
H    2.0724152   -0.0013148    5.1109744  
