62

C   -0.9836065    0.5332696   -0.8003809  
C    0.0000000    0.0000000    0.0000000  
C    0.9946722   -0.5412269   -0.8673524  
C    0.5599444   -0.3063491   -2.1969278  
N   -0.6454422    0.3461666   -2.1202241  
C    1.2967070   -0.7073601   -3.3154807  
C    2.4942843   -1.3570490   -3.0876857  
O    3.2536947   -1.7698871   -4.1440344  
C    2.9447547   -1.6009054   -1.7684324  
O    4.1559932   -2.2585610   -1.7073116  
C    2.2183079   -1.2058192   -0.6644815  
H    0.9708103   -0.5314628   -4.3313808  
H    4.0359892   -2.1944620   -3.7685123  
H    4.3877111   -2.3838282   -0.7819908  
H    2.5887888   -1.4066302    0.3339659  
H   -1.9003181    1.0310143   -0.5342071  
C   -3.0642315    3.9631418   -3.0853096  
C   -2.2724341    3.0894118   -2.4210561  
C   -2.1060538    1.9670064   -3.3315631  
C   -2.8863484    2.3409839   -4.5306729  
N   -3.4502236    3.5101109   -4.3921944  
C   -2.9761687    1.4811956   -5.6786203  
C   -2.3161483    0.3016033   -5.6309823  
O   -2.3128035   -0.5974551   -6.6298437  
C   -1.5199333   -0.1040792   -4.4353132  
O   -0.9449942   -1.1921930   -4.4612749  
C   -1.4432823    0.7952503   -3.2703001  
H   -1.8529941    3.1937323   -1.4350221  
H   -3.5537184    1.7797644   -6.5412921  
H   -1.7594800   -1.3295291   -6.3026528  
C   -3.3083683    5.8830934   -1.4441804  
C   -3.5501343    5.2728789   -2.6277203  
C   -4.4019976    6.1977552   -3.3594521  
C   -4.5793305    7.3451763   -2.4437217  
N   -3.9405051    7.1664579   -1.3194657  
C   -5.3701129    8.4900728   -2.8028340  
C   -5.9567440    8.4889264   -4.0215208  
O   -6.7217646    9.4908905   -4.4871944  
C   -5.7963654    7.3460770   -4.9682695  
O   -6.3590563    7.4127317   -6.0610440  
C   -4.9802175    6.1831357   -4.5766125  
H   -5.4827838    9.3144170   -2.1138699  
H   -6.9944170    9.2018515   -5.3767275  
H   -4.8886961    5.3758449   -5.2908497  
H   -2.7153014    5.5212494   -0.6193690  
C    2.5311839    2.1237619    3.0120429  
C    1.9795631    1.6616747    1.8395852  
C    0.9223175    0.7739173    2.1983588  
C    0.8753926    0.7337535    3.6154372  
N    1.8668922    1.5631002    4.0777464  
C   -0.0496243   -0.0427881    4.3197917  
C   -0.9437528   -0.7922060    3.5801400  
O   -1.8685244   -1.5680278    4.2172520  
C   -0.9124520   -0.7656372    2.1655264  
O   -1.8671164   -1.5663939    1.5732860  
C    0.0000000    0.0000000    1.4700000  
H    2.3005065    1.9304404    0.8477417  
H    2.0679347    1.7444845    5.0445261  
H   -0.0904770   -0.0778569    5.3997470  
H   -2.3849669   -2.0011402    3.5251786  
H   -1.7775064   -1.4909735    0.6183591  
H    3.3468514    2.8078103    3.1724291  
