62

C    9.7277244    0.7350141   -4.5709614  
C    9.0743432    0.0145832   -3.5980583  
C   10.0708852   -0.6990719   -2.8685361  
C   11.3241673   -0.3716800   -3.4464835  
N   11.0795517    0.4996189   -4.4787716  
C   12.5328930   -0.8956368   -2.9782505  
C   12.4754152   -1.7657115   -1.9068752  
O   13.6258373   -2.3062521   -1.4095239  
C   11.2345319   -2.1048373   -1.3169450  
O   11.3436999   -2.9836857   -0.2590928  
C   10.0416770   -1.5885319   -1.7785210  
H   11.7798516    0.9132374   -5.0673994  
H   13.4913729   -0.6501902   -3.4144516  
H   13.3641969   -2.8770582   -0.6753652  
H   10.4615529   -3.1604344    0.0817605  
H    9.1066747   -1.8668231   -1.3065012  
H    9.3362889    1.3970355   -5.3242644  
C    6.6682521    0.0023717   -4.3668309  
C    5.4175878    0.0024209   -3.7938519  
C    5.6072947    0.0015615   -2.3801296  
C    7.0065885    0.0012980   -2.1479616  
N    7.6213758   -0.0001474   -3.3754187  
C    7.5601874    0.0007874   -0.8640937  
C    6.6852682    0.0008454    0.2048753  
O    7.1721939    0.0007116    1.4799901  
C    5.2859247    0.0007309   -0.0064393  
O    4.5477721    0.0003833    1.1590968  
C    4.7390840    0.0009613   -1.2727298  
H    4.4834521    0.0018990   -4.3289999  
H    8.6257738    0.0004405   -0.6804408  
H    6.4039032    0.0004828    2.0656480  
H    3.6139329    0.0003545    0.9276925  
H    6.9558180    0.0024889   -5.4042627  
C    3.2798077    0.0005856   -1.4499661  
C    2.5571132    0.0005565   -2.5996564  
C    1.1637425    0.0001547   -2.2210366  
C    1.1336959   -0.0000200   -0.7459475  
N    2.4483509   -0.0001429   -0.3402730  
C    0.0000000    0.0000000    0.0000000  
C   -1.2757370   -0.0000187   -0.6964411  
O   -2.3524597   -0.0000640   -0.1142306  
C   -1.2676502   -0.0000874   -2.2584078  
O   -2.3355774   -0.0004102   -2.8557287  
C    0.0181551    0.0001758   -2.9516297  
H    2.9547342    0.0006074   -3.5989118  
H    0.0150776    0.0003317   -4.0331632  
H    2.7563626    0.0012823    0.6148051  
C    0.8175213    0.6860729    2.3021913  
C    0.0000000    0.0000000    1.4700000  
C   -0.8887526   -0.7456559    2.3478473  
C   -0.4549825   -0.3816753    3.7138435  
N    0.5448156    0.4573574    3.6934124  
C   -1.0945674   -0.9182058    4.8835240  
C   -2.1210866   -1.7789155    4.6970523  
O   -2.8083856   -2.3554314    5.6976972  
C   -2.5824069   -2.1655116    3.3310774  
O   -3.5227682   -2.9541547    3.2362962  
C   -1.9100805   -1.6015804    2.1470656  
H   -0.7567140   -0.6349833    5.8697035  
H   -3.4728268   -2.9124471    5.2533954  
H   -2.2742832   -1.9066565    1.1752040  
H    1.6189533    1.3585343    2.0405121  
