64

C    0.6936364   -0.7066092   -5.1527423  
C    0.3462075   -0.4553039   -6.4598788  
C   -0.7528349    0.4534785   -6.4312305  
C   -1.0341488    0.7235441   -5.0674660  
N   -0.1387078    0.0017020   -4.3179686  
C   -2.0601483    1.5827608   -4.6626688  
C   -2.8157353    2.1804681   -5.6526245  
O   -3.8298699    3.0285554   -5.3130769  
C   -2.5506562    1.9232747   -7.0187873  
O   -3.3906535    2.5937332   -7.8837924  
C   -1.5388172    1.0755385   -7.4188523  
H    0.8251967   -0.8761773   -7.3273058  
H   -2.2797241    1.7926347   -3.6249113  
H   -4.2227235    3.3302846   -6.1424690  
H   -3.1443863    2.3650610   -8.7852723  
H    1.4683925   -1.3361781   -4.7498095  
C    3.3041276    0.0001172   -1.5420425  
C    2.5845373   -0.0004780   -0.3695850  
C    1.2040005   -0.0000006   -0.7283594  
C    1.1422376    0.0006036   -2.1454376  
N    2.4348643    0.0026109   -2.6077465  
C   -0.0655178    0.0008799   -2.8497917  
C   -1.2321765    0.0002326   -2.1101405  
O   -2.4392812    0.0001152   -2.7472524  
C   -1.1911209   -0.0000006   -0.6955270  
O   -2.4371527   -0.0002315   -0.1032863  
C    0.0000000    0.0000000    0.0000000  
H    3.0031535   -0.0000663    0.6222585  
H    2.7054635   -0.0071100   -3.5745262  
H   -3.1132985   -0.0000644   -2.0551792  
H   -2.3200282   -0.0004068    0.8516404  
H    4.3686626    0.0004069   -1.7024289  
C   -0.4992278   -2.5991540   -9.6492711  
C   -0.4415923   -2.0339133  -10.9021270  
C   -0.7403642   -0.6477408  -10.7476582  
C   -0.9733421   -0.4235736   -9.3665731  
N   -0.8207815   -1.6295039   -8.7285489  
C   -1.2956341    0.8343652   -8.8483966  
C   -1.3840538    1.8852102   -9.7406320  
O   -1.6953360    3.1348042   -9.2882683  
C   -1.1554553    1.6814265  -11.1223097  
O   -1.2812530    2.8265775  -11.8813541  
C   -0.8377313    0.4406593  -11.6342409  
H   -0.2134760   -2.5566208  -11.8152169  
H   -0.9150082   -1.7792196   -7.7402733  
H   -1.7052150    3.7112110  -10.0634604  
H   -1.1112344    2.6019279  -12.8012613  
H   -0.6682943    0.3151427  -12.6972622  
H   -0.3378120   -3.6175459   -9.3397844  
C    2.5128556    2.1077716    2.9199648  
C    1.9592212    1.6432552    4.0696553  
C    0.8915788    0.7479214    3.6910360  
C    0.8684491    0.7287414    2.2159470  
N    1.8754542    1.5738793    1.8102719  
C    0.0000000    0.0000000    1.4700000  
C   -0.9772830   -0.8200135    2.1664417  
O   -1.8021297   -1.5120829    1.5842315  
C   -0.9711318   -0.8147624    3.7284083  
O   -1.7894187   -1.5009653    4.3257297  
C    0.0140216    0.0115358    4.4216297  
H    2.2638494    1.8988021    5.0689105  
H    0.0117648    0.0094386    5.5031631  
H    3.3327358    2.7953732    2.7900019  
H    2.1123206    1.7707734    0.8551938  
