64

C    5.0654065   -1.1519546   -8.8052509  
C    5.4306774   -0.7507498  -10.0694026  
C    5.1834161    0.6518037  -10.1488070  
C    4.6633597    1.0545505   -8.8921207  
N    4.6029063   -0.0653620   -8.1004393  
C    4.3054632    2.3763847   -8.6102438  
C    4.4759468    3.3086865   -9.6151959  
O    4.1428746    4.6136480   -9.3934970  
C    4.9930154    2.9262027  -10.8758165  
O    5.1029100    3.9698500  -11.7713985  
C    5.3460456    1.6223132  -11.1546844  
H    5.8256106   -1.3905081  -10.8399426  
H    3.9084228    2.6897400   -7.6545406  
H    4.3372698    5.0879649  -10.2123359  
H    5.4595232    3.6264588  -12.5963308  
H    5.7393482    1.3592329  -12.1296606  
H    5.0968528   -2.1274942   -8.3510565  
C    5.8833913   -2.1427755   -4.3709417  
C    5.8356981   -1.7363035   -5.6609362  
C    4.7031567   -0.8254390   -5.7255535  
C    4.1678915   -0.7979257   -4.3473961  
N    4.8557055   -1.5681393   -3.5488520  
C    3.0267438   -0.0008951   -3.9901699  
C    2.4469280    0.7354872   -4.9653056  
O    1.3760859    1.5245624   -4.7737362  
C    2.9639697    0.7291614   -6.3655872  
O    2.3865734    1.4237046   -7.2019147  
C    4.1358655   -0.0967023   -6.7069580  
H    6.4884971   -2.0195258   -6.4688436  
H    1.1970821    1.9160958   -5.6476998  
H    6.5833961   -2.8247269   -3.9149717  
C    3.3003547    0.0005277   -1.4738986  
C    2.5232816    0.0003497   -2.6090746  
C    1.1623203   -0.0001319   -2.1820102  
C    1.1711884    0.0000584   -0.7636141  
N    2.4852301   -0.0014919   -0.3662359  
C    0.0000000    0.0000000    0.0000000  
C   -1.2020383    0.0000520   -0.6806479  
O   -2.3759248    0.0003493    0.0157745  
C   -1.2314655   -0.0005115   -2.0955511  
O   -2.5054388   -0.0008040   -2.6250184  
C   -0.0764513   -0.0007274   -2.8495195  
H    2.8036266    0.0088183    0.5858662  
H   -3.0835639    0.0000346   -0.6418822  
H   -2.4360043   -0.0011529   -3.5845924  
H   -0.1304091   -0.0013423   -3.9319089  
H    4.3715553    0.0004897   -1.3667133  
C    2.5285572    2.1210227    2.9438989  
C    1.9331703    1.6216660    4.0790748  
C    0.8903039    0.7472258    3.6520102  
C    0.8972198    0.7527806    2.2336141  
N    1.9028376    1.5986179    1.8362361  
C    0.0000000    0.0000000    1.4700000  
C   -0.9207814   -0.7726952    2.1506477  
O   -1.8198395   -1.5274828    1.4542253  
C   -0.9436862   -0.7911793    3.5655508  
O   -1.9197945   -1.6098497    4.0950179  
C   -0.0590329   -0.0485852    4.3195194  
H    2.2150357    1.8593692    5.0905303  
H    2.1533708    1.7953814    0.8841339  
H   -2.3621246   -1.9821033    2.1118817  
H   -1.8668290   -1.5649508    5.0545920  
H   -0.1007624   -0.0827977    5.4019087  
H    3.3491200    2.8096064    2.8367138  
