64

C    9.0050234    0.0036227   -0.1812398  
C   10.1037473    0.0051511   -1.0090507  
C   11.2572396    0.0064868   -0.1699720  
C   10.7961580    0.0054019    1.1714185  
N    9.4240119    0.0056208    1.1286434  
C   11.6623946    0.0059474    2.2688813  
C   13.0187992    0.0073118    2.0074555  
O   13.9090358    0.0075457    3.0421013  
C   13.4982474    0.0087844    0.6759365  
O   14.8745758    0.0104578    0.5807433  
C   12.6442619    0.0085205   -0.4072230  
H   10.0771171    0.0063918   -2.0852862  
H    8.8184154   -0.0055473    1.9293365  
H   11.3173023    0.0052708    3.2936317  
H   14.7895574    0.0088549    2.6446784  
H   15.1150192    0.0113501   -0.3508090  
H   13.0408387    0.0098571   -1.4157879  
C    6.8064686    0.0000398   -4.0743113  
C    7.7887311    0.0006874   -3.1111768  
C    7.1308655    0.0013413   -1.8455493  
C    5.7357521    0.0007674   -2.1016434  
N    5.5736258    0.0019331   -3.4648494  
C    4.7795901    0.0008674   -1.0815733  
C    5.2401774    0.0012525    0.2207464  
O    4.3497073    0.0010154    1.2551915  
C    6.6282665    0.0022028    0.4964750  
O    6.9274445    0.0029068    1.8432620  
C    7.5721095    0.0023780   -0.5093509  
H    8.8489885    0.0017935   -3.2978477  
H    4.6916431   -0.0087004   -3.9444062  
H    4.8738765    0.0016565    2.0666784  
H    7.8844233    0.0034995    1.9422372  
H    6.8877383   -0.0001771   -5.1477883  
C    3.3321168    0.0004716   -1.3379341  
C    2.6974177    0.0000118   -2.5332316  
C    1.2800432   -0.0002116   -2.2052842  
C    1.2395033    0.0000644   -0.7271298  
N    2.4394059    0.0005460   -0.2131041  
C    0.0000000    0.0000000    0.0000000  
C   -1.1468704    0.0000635   -0.7169542  
O   -2.3742206    0.0000074   -0.1695488  
C   -1.1388774    0.0001608   -2.2096352  
O   -2.2206238    0.0000906   -2.7970409  
C    0.1454514    0.0001818   -2.9324241  
H    3.1367978   -0.0000649   -3.5160956  
H   -2.9844350    0.0001027   -0.9290164  
H    0.1083567    0.0003684   -4.0135594  
C    0.8576279    0.7185626    2.2703808  
C    0.0000000    0.0000000    1.4700000  
C   -0.8668858   -0.7285659    2.3373528  
C   -0.4876752   -0.4117774    3.6669281  
N    0.5635254    0.4678311    3.5902241  
C   -1.1297612   -0.9515493    4.7854808  
C   -2.1738724   -1.8268314    4.5576857  
O   -2.8357962   -2.3827064    5.6140350  
C   -2.5667212   -2.1555554    3.2384331  
O   -3.6226318   -3.0413663    3.1773122  
C   -1.9335634   -1.6236449    2.1344818  
H    1.0363952    0.8769718    4.3757045  
H   -0.8454472   -0.7142436    5.8013813  
H   -3.5178062   -2.9546422    5.2385129  
H   -3.8247440   -3.2102924    2.2519915  
H   -2.2566033   -1.8942483    1.1360343  
H    1.6567807    1.3889844    2.0042067  
