60

C    0.5908098   -2.7723121   -9.7054812  
C   -0.0602605   -1.8536280   -8.9151671  
C    0.0291073   -0.5948428   -9.5800526  
C    0.7518407   -0.8091645  -10.7815720  
N    1.0794799   -2.1415798  -10.8256258  
C    1.0300839    0.2165881  -11.6899776  
C    0.5700945    1.4816857  -11.3799539  
O    0.8135736    2.5197317  -12.2321237  
C   -0.1524821    1.7155230  -10.1857928  
O   -0.5420053    3.0285673  -10.0198725  
C   -0.4271068    0.7041193   -9.2890377  
H   -0.5395798   -2.0645668   -7.9745556  
H    1.5853937   -2.5905946  -11.5675277  
H    1.5805365    0.0597909  -12.6073751  
H    0.4122633    3.3018218  -11.8314348  
H   -1.0236412    3.1004055   -9.1901313  
H    0.7465073   -3.8272961   -9.5580808  
C    0.0063632   -0.7183650   -5.1315053  
C    0.1635205   -0.4995845   -6.4624867  
C   -0.8683531    0.4283168   -6.8613249  
C   -1.6451050    0.7344066   -5.6448723  
N   -1.0641734    0.0073898   -4.6315339  
C   -2.7096558    1.5750809   -5.6036142  
C   -3.1177654    2.2213966   -6.8398416  
O   -4.0639306    2.9951418   -6.9061054  
C   -2.3096737    1.9116343   -8.1401647  
O   -2.6441253    2.4496388   -9.1870427  
C   -1.1807017    0.9881992   -8.0592842  
H    0.9162680   -0.9383065   -7.0929690  
H   -3.2656673    1.7860234   -4.7006940  
H    0.5824087   -1.3488902   -4.4738586  
C    1.1319248    0.0015675   -0.8009270  
C    0.7969916    0.0034959   -2.1169404  
C   -0.6453336    0.0035703   -2.1842672  
C   -1.1266831    0.0015415   -0.7896027  
N    0.0000000    0.0000000    0.0000000  
C   -2.4346129    0.0013924   -0.4276297  
C   -3.4350110    0.0031352   -1.4820184  
O   -4.6384610    0.0030897   -1.2583919  
C   -2.9478958    0.0050460   -2.9661075  
O   -3.7809377    0.0062160   -3.8623775  
C   -1.5113821    0.0053068   -3.2312125  
H    1.4821240    0.0045436   -2.9459192  
H   -2.7664565    0.0000185    0.6013447  
H    2.1104318    0.0009428   -0.3488058  
C    2.4951002    2.0940188    2.9809380  
C    1.9440701    1.6314916    1.8291961  
C    0.8759964    0.7350050    2.2038498  
C    0.8497377    0.7130254    3.6788474  
N    1.8560616    1.5571714    4.0882609  
C   -0.0205033   -0.0168748    4.4215661  
C   -0.9962600   -0.8356168    3.7214979  
O   -1.8224391   -1.5286685    4.3006425  
C   -0.9864710   -0.8277881    2.1595606  
O   -1.8030528   -1.5133726    1.5592035  
C    0.0000000    0.0000000    1.4700000  
H    2.2509283    1.8888011    0.8310761  
H   -0.0229599   -0.0187323    5.5027230  
H    3.3143982    2.7817323    3.1139444  
H    2.0889452    1.7545833    5.0442112  
