60

C    3.4563083   -0.7177420   -2.8470533  
C    2.5562222   -0.0001542   -3.6002998  
C    3.3099822    0.7271499   -4.5685324  
C    4.6761873    0.4106312   -4.3558679  
N    4.7297760   -0.4676079   -3.3020927  
C    5.7069662    0.9493902   -5.1317700  
C    5.3520796    1.8233623   -6.1409306  
O    6.3186822    2.3782086   -6.9288638  
C    3.9944357    2.1517966   -6.3684186  
O    3.8034936    3.0362546   -7.4098688  
C    2.9770454    1.6208856   -5.6031889  
H    5.5676007   -0.8762676   -2.9292279  
H    6.7501838    0.7122837   -4.9746748  
H    5.8618777    2.9493258   -7.5600682  
H    2.8603065    3.2050726   -7.4964778  
H    1.9463687    1.8912366   -5.8009102  
H    3.2907748   -1.3870883   -2.0202927  
C    0.0000000    0.0000000    0.0000000  
C    1.0541691   -0.0001719   -0.8560389  
C    0.5103143   -0.0000448   -2.1935953  
C   -0.9576364    0.0002464   -2.0455731  
N   -1.2018458   -0.0001389   -0.6915972  
C   -1.8348303    0.0008322   -3.0810611  
C   -1.2972837    0.0009745   -4.4314603  
O   -2.0050658    0.0014276   -5.4301322  
C    0.2542633    0.0004194   -4.6117570  
O    0.7184681    0.0002269   -5.7439118  
C    1.0974560    0.0000881   -3.4189126  
H    2.0940754   -0.0005481   -0.5817976  
H   -2.1128195    0.0014913   -0.2706792  
C   -4.0214236    0.6873773   -1.9917553  
C   -3.2941065    0.0012879   -2.9038247  
C   -4.2729617   -0.7438334   -3.6804434  
C   -5.5765688   -0.3795575   -3.0850477  
N   -5.4354542    0.4591735   -2.0947920  
C   -6.8150142   -0.9155365   -3.5790769  
C   -6.7539654   -1.7760009   -4.6208104  
O   -7.8303751   -2.3520036   -5.1825960  
C   -5.4537085   -2.1628842   -5.2435582  
O   -5.4732681   -2.9512789   -6.1886890  
C   -4.1970791   -1.5995184   -4.7187476  
H   -7.7531675   -0.6321082   -3.1247130  
H   -7.4696169   -2.9089609   -5.8959014  
H   -3.2763235   -1.9047882   -5.1975477  
H   -3.6647948    1.3595209   -1.2275482  
C    0.0000000    0.0000000    1.4700000  
C    1.0541688    0.0001722    2.3260392  
C    0.5103138    0.0000454    3.6635956  
C   -0.9576371   -0.0002459    3.5155732  
N   -1.2018458    0.0001392    2.1615969  
C   -1.8348311   -0.0008317    4.5510609  
C   -1.2972847   -0.0009736    5.9014604  
O   -2.0050672   -0.0014265    6.9001319  
C    0.2542623   -0.0004184    6.0817573  
O    0.7184670   -0.0002256    7.2139121  
C    1.0974552   -0.0000873    4.8889129  
H    2.0940752    0.0005483    2.0517982  
H   -2.9081052   -0.0011668    4.4207061  
H    2.1707277    0.0000911    5.0223670  
H   -2.1128194   -0.0014912    1.7406791  
