62

C    9.7142130   -0.7336080    1.5918025  
C    9.0579928   -0.0133847    0.6206585  
C   10.0523803    0.7002674   -0.1117991  
C   11.3073356    0.3730876    0.4626271  
N   11.0657492   -0.4980874    1.4957324  
C   12.5146701    0.8971008   -0.0091193  
C   12.4540553    1.7670147   -1.0804520  
O   13.6030018    2.3076016   -1.5811528  
C   11.2114625    2.1059280   -1.6668977  
O   11.3175294    2.9846348   -2.7251829  
C   10.0199800    1.5895668   -1.2018549  
H   11.7677638   -0.9115490    2.0824247  
H   13.4744136    0.6518155    0.4243881  
H   13.3392136    2.8782748   -2.3146460  
H   10.4343988    3.1612438   -3.0635503  
H    9.0836096    1.8676939   -1.6712523  
H    9.3249918   -1.3955607    2.3463116  
C    6.6540977   -0.0013090    1.3962728  
C    5.4018076   -0.0015694    0.8268551  
C    5.5874909   -0.0008947   -0.5874014  
C    6.9861188   -0.0005211   -0.8235502  
N    7.6043962    0.0011647    0.4021523  
C    7.5360617   -0.0001392   -2.1089883  
C    6.6581048   -0.0004414   -3.1754633  
O    7.1413992   -0.0004418   -4.4519583  
C    5.2593677   -0.0004399   -2.9601678  
O    4.5179016   -0.0003364   -4.1235989  
C    4.7161325   -0.0005435   -1.6923264  
H    4.4691981   -0.0010660    1.3646588  
H    8.6011207    0.0002906   -2.2956726  
H    6.3714457   -0.0003764   -5.0354278  
H    3.5847247   -0.0003701   -3.8895380  
H    6.9446144   -0.0012468    2.4328822  
C    3.2573665   -0.0002920   -1.5109385  
C    2.5379463   -0.0001709   -0.3591964  
C    1.1435038    0.0000331   -0.7338500  
C    1.1092599   -0.0000083   -2.2088477  
N    2.4227553    0.0001909   -2.6182613  
C   -0.0265539   -0.0002524   -2.9515660  
C   -1.3003040   -0.0002640   -2.2514977  
O   -2.3786790   -0.0004133   -2.8306421  
C   -1.2877727    0.0000311   -0.6895603  
O   -2.3539959    0.0003306   -0.0892030  
C    0.0000000    0.0000000    0.0000000  
H    2.9384091   -0.0000367    0.6389234  
H   -0.0296303   -0.0004086   -4.0327229  
H    2.7280482   -0.0013407   -3.5742119  
C    0.8175213    0.6860729    2.3021913  
C    0.0000000    0.0000000    1.4700000  
C   -0.8887526   -0.7456559    2.3478473  
C   -0.4549825   -0.3816753    3.7138435  
N    0.5448156    0.4573574    3.6934124  
C   -1.0945674   -0.9182058    4.8835240  
C   -2.1210866   -1.7789155    4.6970523  
O   -2.8083856   -2.3554314    5.6976972  
C   -2.5824069   -2.1655116    3.3310774  
O   -3.5227682   -2.9541547    3.2362962  
C   -1.9100805   -1.6015804    2.1470656  
H   -0.7567140   -0.6349833    5.8697035  
H   -3.4728268   -2.9124471    5.2533954  
H   -2.2742832   -1.9066565    1.1752040  
H    1.6189533    1.3585343    2.0405121  
