64

C    3.8758974   -0.7315584   -4.5547714  
C    2.8310667   -0.0116218   -4.0232750  
C    2.2267735    0.7021014   -5.1003212  
C    2.9517242    0.3752583   -6.2748624  
N    3.9472877   -0.4957927   -5.9077927  
C    2.6324614    0.8994269   -7.5310901  
C    1.5616736    1.7691523   -7.6029843  
O    1.2064703    2.3098784   -8.8048412  
C    0.8263187    2.1077291   -6.4421938  
O   -0.2109555    2.9862818   -6.6778851  
C    1.1408834    1.5912148   -5.2025216  
H    3.1811278    0.6543984   -8.4300500  
H    0.4459253    2.8803801   -8.6334797  
H   -0.6557426    3.1626647   -5.8432249  
H    0.5594794    1.8690837   -4.3311797  
H    4.5767371   -1.3934618   -4.0755361  
C    3.3041274    0.0001178   -1.5420430  
C    2.5845373   -0.0004780   -0.3695856  
C    1.2040007   -0.0000008   -0.7283592  
C    1.1422377    0.0006036   -2.1454377  
N    2.4348641    0.0026109   -2.6077466  
C   -0.0655175    0.0008797   -2.8497922  
C   -1.2321767    0.0002322   -2.1101405  
O   -2.4392811    0.0001146   -2.7472530  
C   -1.1911208   -0.0000008   -0.6955268  
O   -2.4371526   -0.0002322   -0.1032864  
C    0.0000000    0.0000000    0.0000000  
H    3.0031533   -0.0000660    0.6222579  
H   -0.1193545    0.0014844   -3.9297475  
H   -3.1132988   -0.0000647   -2.0551789  
H   -2.3200282   -0.0004072    0.8516406  
H    4.3686628    0.0004071   -1.7024290  
C    5.3656443   -2.4037889   -6.7762989  
C    4.9266842   -1.1008305   -6.8219112  
C    5.6012770   -0.4720634   -7.9101098  
C    6.4459996   -1.4490466   -8.4965177  
N    6.2800213   -2.6098651   -7.7826766  
C    7.2629616   -1.1791926   -9.5985800  
C    7.2262894    0.1001443  -10.1183202  
O    8.0036670    0.4177222  -11.1943516  
C    6.3902604    1.0887501   -9.5468904  
O    6.4663331    2.3133723  -10.1776505  
C    5.5842461    0.8233128   -8.4595045  
H    6.7433050   -3.4798612   -7.9736120  
H    7.9091138   -1.9193689  -10.0500521  
H    7.8287816    1.3468561  -11.3928213  
H    5.8717984    2.9233345   -9.7303494  
H    4.9545085    1.6009181   -8.0432829  
H    5.0999048   -3.2020398   -6.1046312  
C    2.5528530    2.1414826    2.8079335  
C    2.0663498    1.7338582    4.0032312  
C    0.9804344    0.8229586    3.6752840  
C    0.9495562    0.7966882    2.1971295  
N    1.8690446    1.5676019    1.6831036  
C    0.0000000    0.0000000    1.4700000  
C   -0.8785127   -0.7372425    2.1869543  
O   -1.8187535   -1.5261249    1.6395491  
C   -0.8723269   -0.7321790    3.6796354  
O   -1.7010379   -1.4274584    4.2670412  
C    0.1115397    0.0933559    4.4024240  
H    2.4028853    2.0163452    4.9860947  
H   -2.2861435   -1.9184361    2.3990168  
H    0.0832434    0.0693689    5.4835595  
H    3.3664920    2.8238276    2.6198634  
