60

C    7.3756614   -3.6112601   -2.9903781  
C    8.4821762   -4.4168781   -3.1284793  
C    8.8942926   -4.3282174   -4.4911600  
C    7.9939342   -3.4461544   -5.1417334  
N    7.0833207   -3.0305128   -4.2022438  
C    8.0985726   -3.1236188   -6.4981303  
C    9.1311053   -3.7018209   -7.2106877  
O    9.2797519   -3.4210830   -8.5381287  
C   10.0393409   -4.5846642   -6.5794088  
O   11.0122239   -5.0785661   -7.4237459  
C    9.9365553   -4.9035162   -5.2413902  
H    8.9357726   -4.9979324   -2.3438642  
H    7.4154990   -2.4521765   -6.9999043  
H   10.0497249   -3.9212990   -8.8384485  
H   11.5833927   -5.6657063   -6.9191311  
H   10.6470023   -5.5830968   -4.7854145  
H    6.7709867   -3.4060804   -2.1236437  
C    5.9779324   -2.0928588   -4.4468283  
C    5.0400348   -1.6304881   -3.5804347  
C    4.1859901   -0.7341815   -4.3234535  
C    4.7069268   -0.7121366   -5.7036458  
N    5.7934739   -1.5560768   -5.7119686  
C    4.1728098    0.0176376   -6.7155012  
C    3.0072073    0.8361658   -6.4258168  
O    2.4535601    1.5290921   -7.2693975  
C    2.4388220    0.8282646   -4.9709350  
O    1.4580059    1.5136694   -4.7150422  
C    3.1006054    0.0006263   -3.9654951  
H    4.9561724   -1.8877887   -2.5395805  
H    4.5702538    0.0195463   -7.7209583  
H    6.3633292   -1.7534002   -6.5140761  
C    3.2798083    0.0005857   -1.4499652  
C    2.5571142    0.0005565   -2.5996556  
C    1.1637432    0.0001548   -2.2210361  
C    1.1336964   -0.0000200   -0.7459473  
N    2.4483512   -0.0001428   -0.3402723  
C    0.0000000    0.0000000    0.0000000  
C   -1.2757368   -0.0000186   -0.6964415  
O   -2.3524598   -0.0000639   -0.1142311  
C   -1.2676497   -0.0000872   -2.2584083  
O   -2.3355766   -0.0004101   -2.8557295  
C    0.0181558    0.0001758   -2.9516296  
H    0.0150788    0.0003319   -4.0331631  
H    4.3498547    0.0008612   -1.3200026  
H    2.7563626    0.0012823    0.6148059  
C    0.0000000    0.0000000    1.4700000  
C    1.0541688    0.0001722    2.3260392  
C    0.5103138    0.0000454    3.6635956  
C   -0.9576371   -0.0002459    3.5155732  
N   -1.2018458    0.0001392    2.1615969  
C   -1.8348311   -0.0008317    4.5510609  
C   -1.2972847   -0.0009736    5.9014604  
O   -2.0050672   -0.0014265    6.9001319  
C    0.2542623   -0.0004184    6.0817573  
O    0.7184670   -0.0002256    7.2139121  
C    1.0974552   -0.0000873    4.8889129  
H    2.0940752    0.0005483    2.0517982  
H   -2.9081052   -0.0011668    4.4207061  
H    2.1707277    0.0000911    5.0223670  
H   -2.1128194   -0.0014912    1.7406791  
