60

C   -0.7338934    0.5615264   -9.1025138  
C    0.2497713   -0.2782975   -9.5710932  
C    0.1734362   -0.2551119  -10.9952545  
C   -0.8845376    0.6240995  -11.3410941  
N   -1.4152646    1.1011075  -10.1683154  
C   -1.2450412    0.8893733  -12.6656527  
C   -0.5242018    0.2557773  -13.6591937  
O   -0.8339480    0.4792781  -14.9695825  
C    0.5345874   -0.6251940  -13.3341207  
O    1.1553910   -1.1782449  -14.4350662  
C    0.8906072   -0.8875708  -12.0276232  
H    0.9370011   -0.8395394   -8.9614082  
H   -2.1744603    1.7543228  -10.0982266  
H   -2.0504653    1.5583229  -12.9358414  
H   -0.2184112   -0.0529530  -15.4902648  
H    1.8575727   -1.7598798  -14.1280716  
H    1.7060472   -1.5672079  -11.8093822  
C    0.9070721   -0.7042926   -5.2310443  
C    0.0950446    0.0004351   -4.4015596  
C   -0.8184767    0.7430224   -5.2375492  
C   -0.4696130    0.4107474   -6.6320662  
N    0.5842464   -0.4707051   -6.5591866  
C   -1.1031223    0.9106725   -7.7231417  
C   -2.2017456    1.8380502   -7.5097580  
O   -2.8350875    2.3428871   -8.4275373  
C   -2.5881743    2.2042619   -6.0413008  
O   -3.5112394    2.9842132   -5.8492396  
C   -1.8314681    1.6007480   -4.9472170  
H   -2.1054514    1.8593458   -3.9334203  
H    1.7143130   -1.3744694   -4.9838299  
H    1.0462413   -0.8826049   -7.3490886  
C    3.3321173    0.0004713   -1.3379338  
C    2.6974181    0.0000116   -2.5332314  
C    1.2800438   -0.0002119   -2.2052841  
C    1.2395034    0.0000643   -0.7271299  
N    2.4394062    0.0005460   -0.2131038  
C    0.0000000    0.0000000    0.0000000  
C   -1.1468702    0.0000634   -0.7169543  
O   -2.3742203    0.0000074   -0.1695487  
C   -1.1388770    0.0001607   -2.2096355  
O   -2.2206234    0.0000905   -2.7970411  
C    0.1454522    0.0001815   -2.9324241  
H    3.1367984   -0.0000653   -3.5160950  
H   -2.9844346    0.0001026   -0.9290167  
H    4.3940038    0.0007618   -1.1498640  
C    0.8681109    0.7263879    2.2709268  
C    0.6127770    0.5096195    3.5869401  
C   -0.4920590   -0.4175482    3.6542670  
C   -0.8620974   -0.7254003    2.2596025  
N    0.0000000    0.0000000    1.4700000  
C   -1.8641242   -1.5660088    1.8976294  
C   -2.6293522   -2.2103885    2.9520183  
O   -3.5512764   -2.9839180    2.7283916  
C   -2.2549728   -1.8987399    4.4361073  
O   -2.8923672   -2.4351063    5.3323774  
C   -1.1543735   -0.9755647    4.7012123  
H    1.1382914    0.9492124    4.4159191  
H   -2.1192137   -1.7782617    0.8686553  
H   -0.9013378   -0.7652422    5.7314848  
H    1.6172880    1.3558399    1.8188057  
