64

C    1.3215106   -0.9795709   -9.4459513  
C    0.8277617    0.0958840   -8.7444689  
C    0.9543632    1.2378959   -9.5896800  
C    1.5366161    0.7940638  -10.8045541  
N    1.7485233   -0.5568391  -10.6830077  
C    1.8077977    1.6551531  -11.8721563  
C    1.4850438    2.9885251  -11.7105174  
O    1.7282291    3.8727061  -12.7215071  
C    0.9038230    3.4505807  -10.5057352  
O    0.6408315    4.8048832  -10.4990818  
C    0.6362656    2.6017079   -9.4520010  
H    2.1413570   -1.1488098  -11.3923966  
H    2.2515593    1.3231525  -12.8006247  
H    1.4330833    4.7366183  -12.4055811  
H    0.2498476    5.0346222   -9.6505807  
H    0.1906690    2.9846240   -8.5413436  
H    1.4041833   -2.0144827   -9.1612036  
C    2.0818086   -2.1200044   -5.0693006  
C    2.0013922   -1.6205814   -6.3485880  
C    0.8747655   -0.7464877   -6.3842578  
C    0.3022093   -0.7523126   -5.0865395  
N    1.0583530   -1.5979707   -4.3134121  
C   -0.8287665    0.0000939   -4.7555305  
C   -1.3918308    0.7726859   -5.7526456  
O   -2.4970631    1.5271116   -5.4837280  
C   -0.8353008    0.7914353   -7.0536990  
O   -1.5105881    1.6099590   -7.9353732  
C    0.2802630    0.0492103   -7.3810303  
H    2.6715814   -1.8580190   -7.1569591  
H    0.8985640   -1.7948529   -3.3419770  
H   -2.7238718    1.9817206   -6.3054050  
H   -1.0706022    1.5652576   -8.7897836  
H    2.7873940   -2.8084002   -4.6366114  
C    1.0672569   -0.0000698   -0.8321910  
C    0.0000000    0.0000000    0.0000000  
C   -1.1601223   -0.0000736   -0.8778472  
C   -0.5938729   -0.0000768   -2.2438435  
N    0.7113367   -0.0001553   -2.2234123  
C   -1.4286985   -0.0001877   -3.4135239  
C   -2.7683113   -0.0006798   -3.2270524  
O   -3.6653902   -0.0008302   -4.2276970  
C   -3.3702024   -0.0010610   -1.8610774  
O   -4.5974910   -0.0013779   -1.7662963  
C   -2.4926825   -0.0008943   -0.6770658  
H   -4.5324245   -0.0012258   -3.7833954  
H   -2.9677772   -0.0012974    0.2947961  
H    2.1134391   -0.0000547   -0.5705119  
C    0.8576279    0.7185626    2.2703808  
C    0.0000000    0.0000000    1.4700000  
C   -0.8668858   -0.7285659    2.3373528  
C   -0.4876752   -0.4117774    3.6669281  
N    0.5635254    0.4678311    3.5902241  
C   -1.1297612   -0.9515493    4.7854808  
C   -2.1738724   -1.8268314    4.5576857  
O   -2.8357962   -2.3827064    5.6140350  
C   -2.5667212   -2.1555554    3.2384331  
O   -3.6226318   -3.0413663    3.1773122  
C   -1.9335634   -1.6236449    2.1344818  
H    1.0363952    0.8769718    4.3757045  
H   -0.8454472   -0.7142436    5.8013813  
H   -3.5178062   -2.9546422    5.2385129  
H   -3.8247440   -3.2102924    2.2519915  
H   -2.2566033   -1.8942483    1.1360343  
H    1.6567807    1.3889844    2.0042067  
