62

C   -0.2036977   -1.1130378   -9.5454068  
C   -0.3588475   -0.0127536   -8.7343753  
C   -0.6011917    1.1034304   -9.5887770  
C   -0.5826044    0.6189797  -10.9217771  
N   -0.3368384   -0.7302234  -10.8595892  
C   -0.7867146    1.4464744  -12.0301010  
C   -1.0140259    2.7873934  -11.7883493  
O   -1.2197902    3.6398810  -12.8342650  
C   -1.0359505    3.2897626  -10.4654892  
O   -1.2742015    4.6465557  -10.3900465  
C   -0.8344009    2.4740463   -9.3716366  
H   -0.2774417   -1.3463467  -11.6500598  
H   -0.7736339    1.0834414  -13.0485494  
H   -1.3563772    4.5156103  -12.4499393  
H   -1.2728146    4.9045260   -9.4631956  
H   -0.8567220    2.8874884   -8.3701155  
H   -0.0071776   -2.1403436   -9.2904917  
C    2.2882816   -2.1097767   -5.8897962  
C    1.6780090   -1.6459960   -7.0107556  
C    0.6303821   -0.7506084   -6.5799497  
C    0.6807209   -0.7305951   -5.1055495  
N    1.7068259   -1.5753508   -4.7500430  
C   -0.1496415   -0.0015615   -4.3176961  
C   -1.1605341    0.8179096   -4.9650744  
O   -1.9554938    1.5101850   -4.3429046  
C   -1.2321584    0.8117733   -6.5254067  
O   -2.0792931    1.4975140   -7.0816287  
C   -0.2825939   -0.0147697   -7.2663562  
H    1.9325532   -1.9020639   -8.0237955  
H    3.1137390   -2.7971810   -5.8004316  
H    1.9909865   -1.7716676   -3.8078329  
C    3.3003543    0.0005276   -1.4738987  
C    2.5232814    0.0003497   -2.6090747  
C    1.1623200   -0.0001320   -2.1820103  
C    1.1711883    0.0000582   -0.7636140  
N    2.4852300   -0.0014919   -0.3662360  
C    0.0000000    0.0000000    0.0000000  
C   -1.2020384    0.0000519   -0.6806477  
O   -2.3759249    0.0003493    0.0157743  
C   -1.2314656   -0.0005115   -2.0955510  
O   -2.5054392   -0.0008039   -2.6250180  
C   -0.0764516   -0.0007274   -2.8495195  
H    2.8919955   -0.0005620   -3.6205304  
H    2.8036267    0.0088183    0.5858662  
H   -3.0835638    0.0000347   -0.6418818  
H   -2.4360047   -0.0011529   -3.5845921  
H    4.3715549    0.0004895   -1.3667136  
C    2.5128556    2.1077716    2.9199648  
C    1.9592212    1.6432552    4.0696553  
C    0.8915788    0.7479214    3.6910360  
C    0.8684491    0.7287414    2.2159470  
N    1.8754542    1.5738793    1.8102719  
C    0.0000000    0.0000000    1.4700000  
C   -0.9772830   -0.8200135    2.1664417  
O   -1.8021297   -1.5120829    1.5842315  
C   -0.9711318   -0.8147624    3.7284083  
O   -1.7894187   -1.5009653    4.3257297  
C    0.0140216    0.0115358    4.4216297  
H    2.2638494    1.8988021    5.0689105  
H    0.0117648    0.0094386    5.5031631  
H    3.3327358    2.7953732    2.7900019  
H    2.1123206    1.7707734    0.8551938  
