62

C   -2.6509565    0.0011008   -8.7508984  
C   -3.8081930    0.0018435   -8.0070769  
C   -4.8961019    0.0021495   -8.9296043  
C   -4.3365532    0.0012750  -10.2329957  
N   -2.9713862    0.0026042  -10.0883102  
C   -5.1187867    0.0009913  -11.3918325  
C   -6.4908758    0.0012944  -11.2319882  
O   -7.3017149    0.0006873  -12.3299649  
C   -7.0680079    0.0025406   -9.9398062  
O   -8.4476046    0.0031169   -9.9472165  
C   -6.2969276    0.0030944   -8.7961452  
H   -3.8616639    0.0032346   -6.9318414  
H   -2.3079204   -0.0081721  -10.8417543  
H   -4.6984524    0.0004698  -12.3880848  
H   -8.2093510    0.0013349  -11.9991158  
H   -8.7566498    0.0039271   -9.0361216  
H   -6.7674010    0.0042325   -7.8198610  
C   -0.8287671    0.0000935   -4.7555305  
C    0.4829789    0.0003529   -5.1068098  
C    0.5323568    0.0005978   -6.5498617  
C   -0.8681899    0.0004881   -7.0138230  
N   -1.6437154   -0.0002183   -5.8774035  
C   -1.2464066    0.0010495   -8.3171476  
C   -0.2045436    0.0015866   -9.3305861  
O   -0.4431247    0.0020510  -10.5311609  
C    1.2854921    0.0014598   -8.8619719  
O    2.1713296    0.0016018   -9.7060996  
C    1.5684482    0.0011144   -7.4288675  
H    1.3204182    0.0001883   -4.4320442  
H    2.6027354    0.0012340   -7.1126813  
H   -2.6471544    0.0011001   -5.8649186  
C    1.0672566   -0.0000698   -0.8321912  
C    0.0000000    0.0000000    0.0000000  
C   -1.1601226   -0.0000736   -0.8778472  
C   -0.5938732   -0.0000770   -2.2438435  
N    0.7113365   -0.0001555   -2.2234123  
C   -1.4286989   -0.0001880   -3.4135239  
C   -2.7683117   -0.0006800   -3.2270522  
O   -3.6653907   -0.0008306   -4.2276967  
C   -3.3702026   -0.0010611   -1.8610771  
O   -4.5974909   -0.0013781   -1.7662957  
C   -2.4926826   -0.0008944   -0.6770655  
H   -4.5324249   -0.0012263   -3.7833950  
H   -2.9677773   -0.0012975    0.2947963  
H    2.1134390   -0.0000546   -0.5705121  
C    2.5285572    2.1210227    2.9438989  
C    1.9331703    1.6216660    4.0790748  
C    0.8903039    0.7472258    3.6520102  
C    0.8972198    0.7527806    2.2336141  
N    1.9028376    1.5986179    1.8362361  
C    0.0000000    0.0000000    1.4700000  
C   -0.9207814   -0.7726952    2.1506477  
O   -1.8198395   -1.5274828    1.4542253  
C   -0.9436862   -0.7911793    3.5655508  
O   -1.9197945   -1.6098497    4.0950179  
C   -0.0590329   -0.0485852    4.3195194  
H    2.2150357    1.8593692    5.0905303  
H    2.1533708    1.7953814    0.8841339  
H   -2.3621246   -1.9821033    2.1118817  
H   -1.8668290   -1.5649508    5.0545920  
H   -0.1007624   -0.0827977    5.4019087  
H    3.3491200    2.8096064    2.8367138  
