66

C    2.4353746   -1.8210744   -7.7378657  
C    3.5304168   -2.6273219   -7.9459884  
C    3.8706991   -2.5190889   -9.3269633  
C    2.9403669   -1.6249893   -9.9160254  
N    2.0817371   -1.2213039   -8.9238517  
C    2.9747080   -1.2822221  -11.2710615  
C    3.9664626   -1.8521949  -12.0454856  
O    4.0461320   -1.5517705  -13.3745493  
C    4.9036453   -2.7468024  -11.4761151  
O    5.8291936   -3.2303378  -12.3777232  
C    4.8702013   -3.0856126  -10.1394721  
H    4.0226487   -3.2213408   -7.1950931  
H    1.3211877   -0.5765294   -9.0413737  
H    2.2684712   -0.6015239  -11.7261241  
H    4.7975984   -2.0493393  -13.7223836  
H    6.4241117   -3.8265020  -11.9126809  
H    5.6013414   -3.7738239   -9.7317010  
C    1.9332185   -2.1183846   -5.2802479  
C    1.0132700   -1.6573356   -4.3672339  
C    0.1425864   -0.7692373   -5.0656547  
C    0.5838244   -0.7278054   -6.4130661  
N    1.6739347   -1.5567575   -6.5085374  
C   -0.0442371    0.0493837   -7.3909745  
C   -1.1378297    0.7981571   -7.0016524  
O   -1.7886904    1.5745663   -7.9163019  
C   -1.5929068    0.7703230   -5.6618963  
O   -2.6929018    1.5705681   -5.4317602  
C   -0.9736297    0.0040464   -4.6965763  
H    0.9751831   -1.9269942   -3.3256838  
H    0.2872455    0.0854191   -8.4195762  
H   -2.5110530    2.0070699   -7.4425945  
H   -2.9357433    1.4942922   -4.5039597  
H    2.7546832   -2.8023054   -5.1521543  
C    1.1188642    0.0008222   -0.8003808  
C    0.0000000    0.0000000    0.0000000  
C   -1.1323862    0.0008899   -0.8673528  
C   -0.6382663    0.0019679   -2.1969280  
N    0.7324016    0.0038481   -2.1202242  
C   -1.4770914    0.0027318   -3.3154808  
C   -2.8395473    0.0020945   -3.0876857  
O   -3.7039201    0.0024425   -4.1440349  
C   -3.3517868    0.0013931   -1.7684331  
O   -4.7300497    0.0012366   -1.7073121  
C   -2.5248543    0.0009123   -0.6644817  
H    1.3576314   -0.0056167   -2.9057046  
H   -4.5940032    0.0021826   -3.7685128  
H   -4.9934602    0.0007259   -0.7819913  
H   -2.9462577    0.0005603    0.3339659  
H    2.1619895    0.0009355   -0.5342068  
C    0.8576279    0.7185626    2.2703808  
C    0.0000000    0.0000000    1.4700000  
C   -0.8668858   -0.7285659    2.3373528  
C   -0.4876752   -0.4117774    3.6669281  
N    0.5635254    0.4678311    3.5902241  
C   -1.1297612   -0.9515493    4.7854808  
C   -2.1738724   -1.8268314    4.5576857  
O   -2.8357962   -2.3827064    5.6140350  
C   -2.5667212   -2.1555554    3.2384331  
O   -3.6226318   -3.0413663    3.1773122  
C   -1.9335634   -1.6236449    2.1344818  
H    1.0363952    0.8769718    4.3757045  
H   -0.8454472   -0.7142436    5.8013813  
H   -3.5178062   -2.9546422    5.2385129  
H   -3.8247440   -3.2102924    2.2519915  
H   -2.2566033   -1.8942483    1.1360343  
H    1.6567807    1.3889844    2.0042067  
