64

C   -4.7630506   -0.0017261   -1.3275389  
C   -5.7496382   -0.0041248   -2.2862394  
C   -6.9989995   -0.0038895   -1.5979835  
C   -6.7092697   -0.0009933   -0.2094684  
N   -5.3425445   -0.0016914   -0.0803276  
C   -7.7059384    0.0003208    0.7710617  
C   -9.0190065   -0.0010117    0.3420785  
O  -10.0316333    0.0005299    1.2572836  
C   -9.3281955   -0.0042756   -1.0389385  
O  -10.6818176   -0.0056693   -1.3054849  
C   -8.3454697   -0.0058468   -2.0068093  
H   -5.5886403   -0.0069392   -3.3506946  
H   -4.8418176    0.0104574    0.7897908  
H   -7.4916930    0.0023831    1.8309189  
H  -10.8555486   -0.0010899    0.7528775  
H  -10.8038881   -0.0078436   -2.2597896  
C   -3.3003548   -0.0013941   -1.4738977  
C   -2.5232815   -0.0010120   -2.6090739  
C   -1.1623206   -0.0001731   -2.1820097  
C   -1.1711886   -0.0003658   -0.7636136  
N   -2.4852304    0.0008394   -0.3662353  
C    0.0000000    0.0000000    0.0000000  
C    1.2020380    0.0002638   -0.6806477  
O    2.3759255    0.0002744    0.0157743  
C    1.2314650    0.0008347   -2.0955509  
O    2.5054380    0.0014616   -2.6250181  
C    0.0764505    0.0007474   -2.8495190  
H   -2.8919962   -0.0001972   -3.6205292  
H   -2.8036244   -0.0095543    0.5858671  
H    3.0835632    0.0007749   -0.6418820  
H    2.4360040    0.0017925   -3.5845923  
H    0.1304089    0.0013765   -3.9319086  
C   -6.6340078   -2.1367376   -5.5451512  
C   -6.8796817   -1.6718191   -4.2739461  
C   -7.9934102   -0.7850873   -4.3629154  
C   -8.3884984   -0.7484381   -5.7247121  
N   -7.5410821   -1.5788007   -6.4153648  
C   -9.4592556    0.0262395   -6.1809375  
C  -10.1438329    0.7773726   -5.2453461  
O  -11.1977633    1.5514970   -5.6364662  
C   -9.7645035    0.7543104   -3.8821165  
O  -10.5441484    1.5564094   -3.0745679  
C   -8.7081089   -0.0094864   -3.4313725  
H   -6.3237792   -1.9380874   -3.3912983  
H   -7.5846180   -1.7625526   -7.4014283  
H   -9.7652890    0.0586291   -7.2175166  
H  -11.5278323    1.9862557   -4.8394072  
H  -10.2216793    1.4833650   -2.1710848  
H   -5.8826142   -2.8210772   -5.9001805  
C    0.0000000    0.0000000    1.4700000  
C    1.0662921    0.0000102    2.3034270  
C    0.4961870   -0.0000064    3.6418889  
C   -0.9663858    0.0000850    3.4240247  
N   -1.2632773    0.0000084    2.1528658  
C   -1.8985362    0.0000517    4.5177257  
C   -1.3925775   -0.0004564    5.7720543  
O   -2.1456383   -0.0005410    6.8851312  
C    0.0786232   -0.0009323    6.0245000  
O    0.4683759   -0.0012588    7.1921102  
C    1.0143166   -0.0008442    4.8859032  
H    2.1107198   -0.0000632    2.0421868  
H   -2.9622183    0.0003270    4.3293377  
H   -1.5042274   -0.0009692    7.6184419  
H    2.0724152   -0.0013148    5.1109744  
