60

C    6.0690172   -2.4108786   -2.6849808  
C    5.9083931   -1.1080617   -3.0964844  
C    7.1808976   -0.4744081   -2.9789483  
C    8.0869835   -1.4484012   -2.4867373  
N    7.3788502   -2.6122204   -2.3173573  
C    9.4369658   -1.1734991   -2.2484768  
C    9.8804029    0.1079056   -2.5121873  
O   11.1892118    0.4303977   -2.2976379  
C    8.9915551    1.0935881   -3.0033063  
O    9.5849239    2.3208087   -3.2158780  
C    7.6595779    0.8231702   -3.2383323  
H    7.7602227   -3.4811031   -1.9893644  
H   10.1326339   -1.9113771   -1.8732645  
H   11.2848677    1.3602012   -2.5417256  
H    8.9165822    2.9285274   -3.5469383  
H    7.0026332    1.5986303   -3.6145807  
H    5.3525678   -3.2120340   -2.6232667  
C    3.4164202   -0.7248682   -3.0395956  
C    4.6504341   -0.5074352   -3.5630530  
C    4.4860923    0.4201599   -4.6573081  
C    3.0448509    0.7275385   -4.7289413  
N    2.4521483    0.0014840   -3.7217481  
C    2.4820245    1.5683503   -5.6333562  
C    3.3539019    2.2134650   -6.6009271  
O    2.9430837    2.9872291   -7.4558060  
C    4.8835155    1.9023268   -6.5436549  
O    5.6273691    2.4393134   -7.3533394  
C    5.3721315    0.9788706   -5.5227069  
H    1.4224202    1.7802478   -5.6686835  
H    6.4325777    0.7689052   -5.4896580  
H    3.1302861   -1.3547866   -2.2130247  
C    0.0000000    0.0000000    0.0000000  
C    1.0662923   -0.0000101   -0.8334270  
C    0.4961873    0.0000065   -2.1718887  
C   -0.9663854   -0.0000848   -1.9540250  
N   -1.2632773   -0.0000083   -0.6828660  
C   -1.8985359   -0.0000514   -3.0477261  
C   -1.3925770    0.0004566   -4.3020547  
O   -2.1456378    0.0005414   -5.4151314  
C    0.0786240    0.0009326   -4.5545000  
O    0.4683767    0.0012591   -5.7221100  
C    1.0143171    0.0008444   -3.4159031  
H    2.1107200    0.0000633   -0.5721865  
H   -2.9622181   -0.0003268   -2.8593381  
H   -1.5042265    0.0009697   -6.1484419  
C    3.2798086   -0.0005857    2.9199648  
C    2.5571146   -0.0005566    4.0696553  
C    1.1637436   -0.0001548    3.6910360  
C    1.1336965    0.0000200    2.2159470  
N    2.4483514    0.0001428    1.8102719  
C    0.0000000    0.0000000    1.4700000  
C   -1.2757367    0.0000186    2.1664417  
O   -2.3524596    0.0000640    1.5842315  
C   -1.2676493    0.0000873    3.7284083  
O   -2.3355761    0.0004100    4.3257297  
C    0.0181563   -0.0001760    4.4216297  
H    2.9547357   -0.0006076    5.0689105  
H    0.0150794   -0.0003319    5.5031631  
H    4.3498549   -0.0008612    2.7900019  
H    2.7563627   -0.0012824    0.8551938  
