64

C    3.8662948   -0.6764235   -9.0669898  
C    4.5221668   -0.6175419  -10.2748116  
C    4.4415138    0.7328749  -10.7269944  
C    3.7189025    1.4580793   -9.7452422  
N    3.3829524    0.5719742   -8.7519786  
C    3.4482091    2.8248334   -9.8614238  
C    3.9157626    3.4713376  -10.9890780  
O    3.6798414    4.8057046  -11.1528410  
C    4.6383483    2.7649281  -11.9798723  
O    5.0359118    3.5491630  -13.0430094  
C    4.9055276    1.4165276  -11.8660444  
H    4.9990129   -1.4462283  -10.7696747  
H    2.8978929    3.3832658   -9.1167720  
H    4.0855717    5.0535229  -11.9938136  
H    5.5169855    2.9958705  -13.6659388  
H    5.4613105    0.9022006  -12.6413192  
H    3.7037935   -1.5104582   -8.4059774  
C    3.8706495   -0.7380873   -4.5561747  
C    2.8310662   -0.0116220   -4.0232752  
C    2.2320926    0.7087007   -5.0988989  
C    2.9547295    0.3789711   -6.2740584  
N    3.9438705   -0.5000826   -5.9087061  
C    2.6394081    0.9080274   -7.5292317  
C    1.5750118    1.7857016   -7.5994172  
O    1.2238667    2.3314669   -8.8001889  
C    0.8420571    2.1272692   -6.4379844  
O   -0.1887493    3.0138602   -6.6719458  
C    1.1527385    1.6059342   -5.1993506  
H    4.6097923   -0.9169122   -6.5338321  
H    0.4674984    2.9071601   -8.6277095  
H   -0.6323026    3.1917814   -5.8369559  
H    0.5733105    1.8862625   -4.3274805  
H    4.5665939   -1.4060743   -4.0782487  
C    3.3041270    0.0001177   -1.5420434  
C    2.5845372   -0.0004781   -0.3695856  
C    1.2040006   -0.0000008   -0.7283592  
C    1.1422371    0.0006037   -2.1454375  
N    2.4348636    0.0026109   -2.6077467  
C   -0.0655183    0.0008798   -2.8497920  
C   -1.2321770    0.0002326   -2.1101400  
O   -2.4392818    0.0001147   -2.7472520  
C   -1.1911210   -0.0000007   -0.6955263  
O   -2.4371527   -0.0002320   -0.1032859  
C    0.0000000    0.0000000    0.0000000  
H    3.0031533   -0.0000660    0.6222577  
H   -0.1193553    0.0014844   -3.9297472  
H   -3.1132989   -0.0000648   -2.0551784  
H   -2.3200282   -0.0004069    0.8516410  
H    4.3686624    0.0004070   -1.7024294  
C    2.3971438    2.0127888    3.1728260  
C    1.9431056    1.6308205    1.9564670  
C    0.8496017    0.7127664    2.2356185  
C    0.7794028    0.6545384    3.7115134  
N    1.6840587    1.4146091    4.2663826  
C   -0.1885723   -0.1578550    4.3957118  
C   -1.0476298   -0.8789867    3.6398520  
O   -2.0015663   -1.6796266    4.1448486  
C   -1.0022026   -0.8410666    2.1483229  
O   -1.8147390   -1.5232959    1.5241687  
C    0.0000000    0.0000000    1.4700000  
H    2.3054237    1.9346118    0.9892483  
H   -0.2170646   -0.1815267    5.4753125  
H   -2.4487139   -2.0549881    3.3649027  
H    3.2048689    2.6911772    3.3971983  
