60

C    0.6987138   -2.9477370   -9.3944758  
C    1.3350799   -2.5118040  -10.5335399  
C    1.0591876   -1.1178041  -10.6570200  
C    0.2430548   -0.7558170   -9.5548317  
N    0.0416839   -1.8907836   -8.8092325  
C   -0.2220856    0.5472886   -9.3539618  
C    0.1435622    1.5024330  -10.2824968  
O   -0.2826680    2.7906137  -10.1344041  
C    0.9569314    1.1606548  -11.3890396  
O    1.2337045    2.2229898  -12.2246137  
C    1.4159429   -0.1247468  -11.5879802  
H    1.9246029   -3.1235448  -11.1947733  
H   -0.4910140   -1.9401257   -7.9596558  
H    0.0802219    3.2857491  -10.8803376  
H    1.7872989    1.9069610  -12.9452118  
H    2.0373274   -0.3566066  -12.4450679  
H    0.6603314   -3.9292883   -8.9539738  
C   -0.0323134   -0.6779777   -5.1766170  
C   -1.0641734    0.0073898   -4.6315339  
C   -1.6436470    0.7548044   -5.7370117  
C   -0.8149132    0.3925081   -6.9068520  
N    0.1311772   -0.4471328   -6.5845079  
C   -1.0682723    0.9310665   -8.2148468  
C   -2.1027597    1.7921066   -8.3481908  
O   -2.4529912    2.3704387   -9.5096168  
C   -2.9577285    2.1770345   -7.1867179  
O   -3.8822556    2.9660878   -7.3813055  
C   -2.6775427    1.6110359   -5.8551526  
H   -3.2210373    2.9272097   -9.2876634  
H   -3.3201087    1.9149462   -5.0396906  
H    0.6514401   -1.3512741   -4.6845539  
C    1.1319248    0.0015675   -0.8009270  
C    0.7969916    0.0034959   -2.1169404  
C   -0.6453336    0.0035703   -2.1842672  
C   -1.1266831    0.0015415   -0.7896027  
N    0.0000000    0.0000000    0.0000000  
C   -2.4346129    0.0013924   -0.4276297  
C   -3.4350110    0.0031352   -1.4820184  
O   -4.6384610    0.0030897   -1.2583919  
C   -2.9478958    0.0050460   -2.9661075  
O   -3.7809377    0.0062160   -3.8623775  
C   -1.5113821    0.0053068   -3.2312125  
H    1.4821240    0.0045436   -2.9459192  
H   -2.7664565    0.0000185    0.6013447  
H    2.1104318    0.0009428   -0.3488058  
C    2.3971438    2.0127888    3.1728260  
C    1.9431056    1.6308205    1.9564670  
C    0.8496017    0.7127664    2.2356185  
C    0.7794028    0.6545384    3.7115134  
N    1.6840587    1.4146091    4.2663826  
C   -0.1885723   -0.1578550    4.3957118  
C   -1.0476298   -0.8789867    3.6398520  
O   -2.0015663   -1.6796266    4.1448486  
C   -1.0022026   -0.8410666    2.1483229  
O   -1.8147390   -1.5232959    1.5241687  
C    0.0000000    0.0000000    1.4700000  
H    2.3054237    1.9346118    0.9892483  
H   -0.2170646   -0.1815267    5.4753125  
H   -2.4487139   -2.0549881    3.3649027  
H    3.2048689    2.6911772    3.3971983  
