62

C    8.0714402   -0.7122676    1.2272920  
C    8.7000668   -0.4638653    2.4254545  
C    9.7661473    0.4446333    2.1558199  
C    9.7384922    0.7175258    0.7641691  
N    8.6986734   -0.0024333    0.2302651  
C   10.6499589    1.5772858    0.1438226  
C   11.6065847    2.1726402    0.9429465  
O   12.5209314    3.0211349    0.3888339  
C   11.6506120    1.9126096    2.3333648  
O   12.6619195    2.5809554    2.9920864  
C   10.7519138    1.0643360    2.9459819  
H    8.4248635   -0.8864426    3.3766038  
H   10.6342913    1.7893094   -0.9163672  
H   13.0880313    3.3209680    1.1111646  
H   12.6213481    2.3504336    3.9252627  
H   10.8104771    0.8843383    4.0130567  
H    7.2261712   -1.3407320    1.0047806  
C    4.7577216    0.0005129   -1.7610467  
C    5.7612594   -0.0009794   -0.8461782  
C    7.0028639    0.0003071   -1.5832342  
C    6.6377954    0.0027176   -3.0127479  
N    5.2625469    0.0023275   -3.0525141  
C    7.5310407    0.0048719   -4.0344193  
C    8.9464549    0.0045866   -3.7040572  
O    9.8285342    0.0063491   -4.5527232  
C    9.3558923    0.0017980   -2.1966892  
O   10.5445700    0.0012269   -1.9063361  
C    8.3019807   -0.0000941   -1.1851958  
H    5.6450064   -0.0029588    0.2229780  
H    7.2422420    0.0067506   -5.0762937  
H    4.7106081    0.0051843   -3.8906086  
C    3.3041270    0.0001177   -1.5420435  
C    2.5845370   -0.0004780   -0.3695856  
C    1.2040004   -0.0000007   -0.7283590  
C    1.1422370    0.0006038   -2.1454373  
N    2.4348634    0.0026110   -2.6077469  
C   -0.0655187    0.0008799   -2.8497918  
C   -1.2321769    0.0002326   -2.1101398  
O   -2.4392822    0.0001149   -2.7472517  
C   -1.1911211   -0.0000007   -0.6955263  
O   -2.4371526   -0.0002319   -0.1032858  
C    0.0000000    0.0000000    0.0000000  
H    3.0031534   -0.0000661    0.6222578  
H    2.7054623   -0.0071098   -3.5745266  
H   -0.1193555    0.0014846   -3.9297472  
H   -3.1132992   -0.0000646   -2.0551783  
H   -2.3200279   -0.0004070    0.8516411  
C    0.8681109    0.7263879    2.2709268  
C    0.6127770    0.5096195    3.5869401  
C   -0.4920590   -0.4175482    3.6542670  
C   -0.8620974   -0.7254003    2.2596025  
N    0.0000000    0.0000000    1.4700000  
C   -1.8641242   -1.5660088    1.8976294  
C   -2.6293522   -2.2103885    2.9520183  
O   -3.5512764   -2.9839180    2.7283916  
C   -2.2549728   -1.8987399    4.4361073  
O   -2.8923672   -2.4351063    5.3323774  
C   -1.1543735   -0.9755647    4.7012123  
H    1.1382914    0.9492124    4.4159191  
H   -2.1192137   -1.7782617    0.8686553  
H   -0.9013378   -0.7652422    5.7314848  
H    1.6172880    1.3558399    1.8188057  
