62

C   -0.2111155   -1.0786110   -9.5372804  
C   -0.3348080   -0.7024485  -10.8547283  
C   -0.5936456    0.7002288  -10.8646887  
C   -0.6165105    1.1288552   -9.5127700  
N   -0.3826699    0.0235705   -8.7328456  
C   -0.8457999    2.4580086   -9.1445765  
C   -1.0555317    3.3711552  -10.1596400  
O   -1.2837993    4.6821970   -9.8562002  
C   -1.0368847    2.9627406  -11.5145081  
O   -1.2628495    3.9895815  -12.4077496  
C   -0.8110151    1.6516165  -11.8784620  
H   -0.2501168   -1.3585514  -11.7040515  
H   -0.8646196    2.7910550   -8.1160200  
H   -1.4031353    5.1405583  -10.6981793  
H   -1.2336892    3.6291069  -13.2992724  
H   -0.8027290    1.3685225  -12.9245332  
H   -0.0155128   -2.0461743   -9.1077232  
C    2.2783848   -2.0910257   -5.9524491  
C    1.7853127   -1.6292412   -4.7744381  
C    0.6997750   -0.7327360   -5.0949402  
C    0.6001070   -0.7099364   -6.5667883  
N    1.5849254   -1.5536735   -7.0262771  
C   -0.3061439    0.0202236   -7.2648431  
C   -1.2459581    0.8383996   -6.5165965  
O   -2.1000519    1.5316274   -7.0534957  
C   -1.1584127    0.8296992   -4.9570889  
O   -1.9441938    1.5148020   -4.3164307  
C   -0.1387079    0.0017019   -4.3179684  
H    2.1415245   -1.8870541   -3.7929803  
H    3.0901479   -2.7785183   -6.1264730  
H    1.7699542   -1.7505092   -7.9927487  
C    3.3041273    0.0001178   -1.5420428  
C    2.5845373   -0.0004780   -0.3695851  
C    1.2040007   -0.0000007   -0.7283589  
C    1.1422374    0.0006038   -2.1454372  
N    2.4348641    0.0026111   -2.6077464  
C   -0.0655179    0.0008799   -2.8497918  
C   -1.2321766    0.0002325   -2.1101402  
O   -2.4392814    0.0001148   -2.7472522  
C   -1.1911209   -0.0000007   -0.6955266  
O   -2.4371528   -0.0002320   -0.1032862  
C    0.0000000    0.0000000    0.0000000  
H    3.0031533   -0.0000660    0.6222584  
H    2.7054631   -0.0071097   -3.5745261  
H   -3.1132988   -0.0000648   -2.0551787  
H   -2.3200282   -0.0004072    0.8516409  
H    4.3686625    0.0004073   -1.7024290  
C    0.0000000    0.0000000    1.4700000  
C    1.0541688    0.0001722    2.3260392  
C    0.5103138    0.0000454    3.6635956  
C   -0.9576371   -0.0002459    3.5155732  
N   -1.2018458    0.0001392    2.1615969  
C   -1.8348311   -0.0008317    4.5510609  
C   -1.2972847   -0.0009736    5.9014604  
O   -2.0050672   -0.0014265    6.9001319  
C    0.2542623   -0.0004184    6.0817573  
O    0.7184670   -0.0002256    7.2139121  
C    1.0974552   -0.0000873    4.8889129  
H    2.0940752    0.0005483    2.0517982  
H   -2.9081052   -0.0011668    4.4207061  
H    2.1707277    0.0000911    5.0223670  
H   -2.1128194   -0.0014912    1.7406791  
