64

C    3.0101949    1.7471393   -2.9866277  
C    1.8467206    1.6645382   -3.7159920  
C    1.9001411    2.6929357   -4.7029798  
C    3.1303994    3.3763190   -4.5258410  
N    3.7790207    2.7778959   -3.4742721  
C    3.5194902    4.4534591   -5.3278179  
C    2.6509540    4.8477186   -6.3270088  
O    2.9813985    5.8936286   -7.1393464  
C    1.4187797    4.1786652   -6.5191800  
O    0.6642805    4.6899431   -7.5548779  
C    1.0341614    3.1161368   -5.7282134  
H    4.6819244    3.0417652   -3.1233889  
H    2.2474516    6.0011536   -7.7582365  
H   -0.1505894    4.1822710   -7.6170077  
H    0.0841719    2.6233954   -5.8991048  
H    3.3518139    1.1532637   -2.1562262  
C    0.0000000    0.0000000    0.0000000  
C    0.7810571    0.7049876   -0.8862340  
C    0.3654495    0.3289968   -2.1979133  
C   -0.6815263   -0.6161246   -2.0478686  
N   -0.8768845   -0.7945523   -0.7007912  
C   -1.3319444   -1.2035615   -3.1372092  
C   -0.9181097   -0.8298721   -4.4010425  
O   -1.5193435   -1.3724177   -5.4997579  
C    0.1250177    0.1112708   -4.5711966  
O    0.4221203    0.3790884   -5.8915552  
C    0.7673015    0.6909921   -3.4969890  
H    1.5558779    1.4034102   -0.6200564  
H   -1.5634131   -1.4005541   -0.2891825  
H   -2.1304953   -1.9246216   -3.0295516  
H   -1.0857196   -0.9813305   -6.2693595  
H    1.1361411    1.0233546   -5.9180048  
C    7.5956712    3.0161077   -4.3909880  
C    8.2189849    4.2424624   -4.3918536  
C    7.2194874    5.2173195   -4.6838438  
C    5.9954414    4.5207825   -4.8525849  
N    6.2597708    3.1860934   -4.6699581  
C    4.7922854    5.1673723   -5.1511233  
C    4.8253409    6.5421862   -5.2813979  
O    3.6790463    7.2237864   -5.5719884  
C    6.0369195    7.2548508   -5.1170694  
O    5.9058514    8.6187019   -5.2785478  
C    7.2242918    6.6176016   -4.8228128  
H    9.2655549    4.4132788   -4.2060951  
H    5.5807812    2.4481008   -4.7181374  
H    3.9210593    8.1578986   -5.6181317  
H    6.7688949    9.0243704   -5.1512934  
H    8.1366215    7.1900846   -4.7028325  
H    7.9985952    2.0334630   -4.2148605  
C    1.0672568    0.0000697    2.3021913  
C    0.0000000    0.0000000    1.4700000  
C   -1.1601224    0.0000736    2.3478473  
C   -0.5938729    0.0000769    3.7138435  
N    0.7113367    0.0001554    3.6934124  
C   -1.4286986    0.0001879    4.8835240  
C   -2.7683114    0.0006799    4.6970523  
O   -3.6653903    0.0008304    5.6976972  
C   -3.3702025    0.0010610    3.3310774  
O   -4.5974910    0.0013779    3.2362962  
C   -2.4926826    0.0008943    2.1470656  
H   -0.9878360   -0.0000190    5.8697035  
H   -4.5324246    0.0012261    5.2533954  
H   -2.9677772    0.0012974    1.1752040  
H    2.1134392    0.0000545    2.0405121  
