62

C    5.6685267    0.0002157   -2.2869307  
C    4.7390844    0.0009612   -1.2727295  
C    5.4635795    0.0004225   -0.0440283  
C    6.8430309   -0.0003722   -0.3742384  
N    6.9321468   -0.0024287   -1.7441550  
C    7.8522875   -0.0007544    0.5933305  
C    7.4618846   -0.0000194    1.9183826  
O    8.4063108    0.0000012    2.9038117  
C    6.0904959    0.0004035    2.2678240  
O    5.8636452    0.0007017    3.6286626  
C    5.0942999    0.0005074    1.3138219  
H    7.7872777    0.0071654   -2.2701206  
H    8.9054278   -0.0015041    0.3481836  
H    7.9262132    0.0002667    3.7421253  
H    4.9133156    0.0010058    3.7785865  
H    4.0523283    0.0006524    1.6117690  
H    5.5300628   -0.0000848   -3.3545385  
C    3.2798077    0.0005856   -1.4499659  
C    2.5571132    0.0005565   -2.5996562  
C    1.1637425    0.0001548   -2.2210364  
C    1.1336957   -0.0000200   -0.7459472  
N    2.4483508   -0.0001429   -0.3402728  
C    0.0000000    0.0000000    0.0000000  
C   -1.2757370   -0.0000187   -0.6964410  
O   -2.3524597   -0.0000640   -0.1142306  
C   -1.2676501   -0.0000873   -2.2584079  
O   -2.3355772   -0.0004101   -2.8557287  
C    0.0181552    0.0001759   -2.9516296  
H    2.9547343    0.0006074   -3.5989115  
H    2.7563624    0.0012823    0.6148054  
C    2.5229081   -2.1069159   -5.8790370  
C    1.9659570   -1.6422907   -7.0270805  
C    0.8993044   -0.7471215   -6.6452956  
C    0.8803702   -0.7281566   -5.1701439  
N    1.8886122   -1.5732491   -4.7674581  
C    0.0139724    0.0003878   -4.4216237  
C   -0.9653725    0.8204011   -5.1151632  
O   -1.7886303    1.5123016   -4.5305084  
C   -0.9636653    0.8153758   -6.6771420  
O   -1.7837190    1.5015806   -7.2720336  
C    0.0195963   -0.0107209   -7.3732829  
H    2.2677669   -1.8976620   -8.0272354  
H    0.0142618   -0.0084680   -8.4548052  
H    3.3432254   -2.7944518   -5.7515069  
H    2.1282155   -1.7702565   -3.8130863  
C    0.8576279    0.7185626    2.2703808  
C    0.0000000    0.0000000    1.4700000  
C   -0.8668858   -0.7285659    2.3373528  
C   -0.4876752   -0.4117774    3.6669281  
N    0.5635254    0.4678311    3.5902241  
C   -1.1297612   -0.9515493    4.7854808  
C   -2.1738724   -1.8268314    4.5576857  
O   -2.8357962   -2.3827064    5.6140350  
C   -2.5667212   -2.1555554    3.2384331  
O   -3.6226318   -3.0413663    3.1773122  
C   -1.9335634   -1.6236449    2.1344818  
H    1.0363952    0.8769718    4.3757045  
H   -0.8454472   -0.7142436    5.8013813  
H   -3.5178062   -2.9546422    5.2385129  
H   -3.8247440   -3.2102924    2.2519915  
H   -2.2566033   -1.8942483    1.1360343  
H    1.6567807    1.3889844    2.0042067  
