62

C    0.6827523   -0.7107513   -5.1516729  
C    0.3353053   -0.4609409   -6.4590916  
C   -0.7638021    0.4477941   -6.4314643  
C   -1.0451356    0.7193730   -5.0680044  
N   -0.1496426   -0.0015617   -4.3176960  
C   -2.0711966    1.5789710   -4.6641734  
C   -2.8268263    2.1755102   -5.6548006  
O   -3.8410220    3.0239061   -5.3162067  
C   -2.5617293    1.9167998   -7.0206739  
O   -3.4017744    2.5862250   -7.8864316  
C   -1.5498296    1.0686867   -7.4197847  
H    0.8143244   -0.8827551   -7.3260440  
H   -2.2907869    1.7899956   -3.6266525  
H   -4.2338974    3.3246745   -6.1459368  
H   -3.1554909    2.3565568   -8.7876540  
H   -1.3705342    0.8897138   -8.4734928  
H    1.4575534   -1.3398112   -4.7480325  
C    3.3003539    0.0005272   -1.4738994  
C    2.5232807    0.0003493   -2.6090753  
C    1.1623195   -0.0001323   -2.1820106  
C    1.1711880    0.0000582   -0.7636143  
N    2.4852298   -0.0014922   -0.3662365  
C    0.0000000    0.0000000    0.0000000  
C   -1.2020387    0.0000519   -0.6806475  
O   -2.3759248    0.0003494    0.0157747  
C   -1.2314661   -0.0005114   -2.0955507  
O   -2.5054400   -0.0008040   -2.6250174  
C   -0.0764524   -0.0007276   -2.8495195  
H    2.8919944   -0.0005625   -3.6205309  
H    2.8036264    0.0088180    0.5858657  
H   -3.0835644    0.0000351   -0.6418811  
H   -2.4360058   -0.0011530   -3.5845915  
C    6.5907945    0.0037339   -4.4182877  
C    5.3731474    0.0029864   -3.8171136  
C    5.6071043    0.0014764   -2.3922987  
C    7.0713635    0.0014340   -2.2113696  
N    7.6095190    0.0024381   -3.4775758  
C    7.6973065    0.0005988   -1.0072521  
C    6.8738982   -0.0005458    0.1904676  
O    7.3427985   -0.0014167    1.3211454  
C    5.3209694   -0.0007741    0.0224870  
O    4.6174387   -0.0020409    1.0236381  
C    4.7630501    0.0004753   -1.3275413  
H    4.4198583    0.0032588   -4.3149620  
H    8.7727859    0.0007140   -0.8965478  
H    6.8296397    0.0049054   -5.4694017  
H    8.5911153    0.0042190   -3.6861729  
C    2.5128556    2.1077716    2.9199648  
C    1.9592212    1.6432552    4.0696553  
C    0.8915788    0.7479214    3.6910360  
C    0.8684491    0.7287414    2.2159470  
N    1.8754542    1.5738793    1.8102719  
C    0.0000000    0.0000000    1.4700000  
C   -0.9772830   -0.8200135    2.1664417  
O   -1.8021297   -1.5120829    1.5842315  
C   -0.9711318   -0.8147624    3.7284083  
O   -1.7894187   -1.5009653    4.3257297  
C    0.0140216    0.0115358    4.4216297  
H    2.2638494    1.8988021    5.0689105  
H    0.0117648    0.0094386    5.5031631  
H    3.3327358    2.7953732    2.7900019  
H    2.1123206    1.7707734    0.8551938  
