60

C   11.1023057    2.1221223   -2.5450429  
C    9.8506014    1.6606507   -2.2092673  
C   10.0162498    0.7744002   -1.1039526  
C   11.4025839    0.7344794   -0.8066145  
N   12.0333681    1.5625133   -1.7016502  
C   11.9317894   -0.0406946    0.2296458  
C   11.0453155   -0.7889689    0.9795973  
O   11.5083868   -1.5634318    2.0037005  
C    9.6586372   -0.7626211    0.6980917  
O    8.9065093   -1.5621318    1.5338124  
C    9.1358927    0.0016669   -0.3242234  
H    8.9313558    1.9288478   -2.7012538  
H   13.0204943    1.7437407   -1.7284527  
H   12.9874115   -0.0755712    0.4612643  
H   10.7357003   -1.9959171    2.3899362  
H    7.9825806   -1.4869554    1.2763072  
H   11.4047702    2.8050630   -3.3203280  
C    6.7793184   -0.0000203   -4.0582541  
C    7.7853564    0.0004709   -3.1461341  
C    7.1695416    0.0010648   -1.8401453  
C    5.7118176    0.0008488   -2.0678072  
N    5.5416283    0.0005848   -3.4330637  
C    4.7795901    0.0008674   -1.0815733  
C    5.2428765    0.0013429    0.2960697  
O    4.4818131    0.0014587    1.2547580  
C    6.7823177    0.0018304    0.5605058  
O    7.1842444    0.0025394    1.7162372  
C    7.6891545    0.0014823   -0.5847012  
H    8.8386419    0.0006050   -3.3633967  
H    6.8379580   -0.0005569   -5.1345677  
H    4.6549021   -0.0011625   -3.9029158  
C    3.3321168    0.0004716   -1.3379341  
C    2.6974177    0.0000118   -2.5332316  
C    1.2800432   -0.0002116   -2.2052842  
C    1.2395033    0.0000644   -0.7271298  
N    2.4394059    0.0005460   -0.2131041  
C    0.0000000    0.0000000    0.0000000  
C   -1.1468704    0.0000635   -0.7169542  
O   -2.3742206    0.0000074   -0.1695488  
C   -1.1388774    0.0001608   -2.2096352  
O   -2.2206238    0.0000906   -2.7970409  
C    0.1454514    0.0001818   -2.9324241  
H    3.1367978   -0.0000649   -3.5160956  
H   -2.9844350    0.0001027   -0.9290164  
H    0.1083567    0.0003684   -4.0135594  
C    0.0000000    0.0000000    1.4700000  
C    1.0541688    0.0001722    2.3260392  
C    0.5103138    0.0000454    3.6635956  
C   -0.9576371   -0.0002459    3.5155732  
N   -1.2018458    0.0001392    2.1615969  
C   -1.8348311   -0.0008317    4.5510609  
C   -1.2972847   -0.0009736    5.9014604  
O   -2.0050672   -0.0014265    6.9001319  
C    0.2542623   -0.0004184    6.0817573  
O    0.7184670   -0.0002256    7.2139121  
C    1.0974552   -0.0000873    4.8889129  
H    2.0940752    0.0005483    2.0517982  
H   -2.9081052   -0.0011668    4.4207061  
H    2.1707277    0.0000911    5.0223670  
H   -2.1128194   -0.0014912    1.7406791  
