62

C    0.9120301   -1.0367503   -7.3644729  
C    1.9299111   -1.9239902   -7.1014319  
C    2.5971719   -2.1705871   -8.3377786  
C    1.9366375   -1.3995007   -9.3282563  
N    0.9172040   -0.7246140   -8.7038358  
C    2.3281566   -1.3970169  -10.6704541  
C    3.4063084   -2.1871029  -11.0190663  
O    3.8307908   -2.2216666  -12.3158447  
C    4.0780621   -2.9637953  -10.0452533  
O    5.1318934   -3.6975385  -10.5496356  
C    3.6921966   -2.9669413   -8.7210085  
H    2.1621513   -2.3428832   -6.1372814  
H    0.2815880   -0.0896368   -9.1519171  
H    1.8288123   -0.8116710  -11.4302090  
H    4.5839485   -2.8261551  -12.3405875  
H    5.5306907   -4.1929016   -9.8277080  
H    4.2259507   -3.5722764   -7.9977154  
C   -0.1938790   -0.6741369   -5.1271795  
C   -0.0850125   -0.4444583   -6.4611476  
C   -1.1306712    0.4863340   -6.8147844  
C   -1.8628855    0.7822437   -5.5685537  
N   -1.2456329    0.0471727   -4.5828766  
C   -2.9252662    1.6222122   -5.4819268  
C   -3.3778762    2.2784579   -6.6972545  
O   -4.3258397    3.0524144   -6.7229068  
C   -2.6173787    1.9795699   -8.0284624  
O   -2.9895222    2.5259874   -9.0581220  
C   -1.4861958    1.0558678   -7.9960423  
H   -3.4482321    1.8256053   -4.5577797  
H   -0.9648575    0.8544227   -8.9219748  
H    0.4056115   -1.3098200   -4.4959843  
C    1.1243410    0.0099923   -0.7919003  
C    0.7474076    0.0234544   -2.1148543  
C   -0.6787381    0.0234490   -2.1414700  
C   -1.1201745    0.0098592   -0.7935546  
N    0.0000000    0.0000000    0.0000000  
C   -2.4730816    0.0063709   -0.4408240  
C   -3.3971958    0.0170982   -1.4675058  
O   -4.7313517    0.0146259   -1.1793471  
C   -2.9763648    0.0303504   -2.8186324  
O   -4.0166480    0.0395118   -3.7247624  
C   -1.6418562    0.0335260   -3.1673481  
H    1.4178717    0.0310972   -2.9571209  
H   -2.8160166   -0.0041111    0.5845966  
H   -5.1938818    0.0230867   -2.0274384  
H   -3.6464675    0.0482293   -4.6127343  
H    2.1062467    0.0052819   -0.3505407  
C    0.8175213    0.6860729    2.3021913  
C    0.0000000    0.0000000    1.4700000  
C   -0.8887526   -0.7456559    2.3478473  
C   -0.4549825   -0.3816753    3.7138435  
N    0.5448156    0.4573574    3.6934124  
C   -1.0945674   -0.9182058    4.8835240  
C   -2.1210866   -1.7789155    4.6970523  
O   -2.8083856   -2.3554314    5.6976972  
C   -2.5824069   -2.1655116    3.3310774  
O   -3.5227682   -2.9541547    3.2362962  
C   -1.9100805   -1.6015804    2.1470656  
H   -0.7567140   -0.6349833    5.8697035  
H   -3.4728268   -2.9124471    5.2533954  
H   -2.2742832   -1.9066565    1.1752040  
H    1.6189533    1.3585343    2.0405121  
