62

C    5.7628300   -0.0004871   -2.0437087  
C    4.7795897    0.0008677   -1.0815734  
C    5.4361691    0.0009685    0.1847220  
C    6.8315416   -0.0000818   -0.0699538  
N    6.9950513   -0.0028992   -1.4329922  
C    7.7866665    0.0000164    0.9510879  
C    7.3247556    0.0015035    2.2529380  
O    8.2141752    0.0020178    3.2882866  
C    5.9363884    0.0021922    2.5272558  
O    5.6358413    0.0032536    3.8737380  
C    4.9935670    0.0018226    1.5204719  
H    7.8775303    0.0063591   -1.9116633  
H    8.8515841   -0.0009246    0.7635968  
H    7.6891817    0.0027716    4.0992401  
H    4.6787630    0.0036911    3.9717400  
H    3.9369292    0.0021876    1.7612928  
H    5.6826508   -0.0013696   -3.1172679  
C    3.3321166    0.0004717   -1.3379342  
C    2.6974176    0.0000121   -2.5332317  
C    1.2800432   -0.0002115   -2.2052842  
C    1.2395033    0.0000645   -0.7271297  
N    2.4394059    0.0005461   -0.2131042  
C    0.0000000    0.0000000    0.0000000  
C   -1.1468704    0.0000636   -0.7169540  
O   -2.3742206    0.0000073   -0.1695488  
C   -1.1388774    0.0001610   -2.2096351  
O   -2.2206238    0.0000908   -2.7970408  
C    0.1454514    0.0001820   -2.9324241  
H    3.1367977   -0.0000646   -3.5160953  
H   -2.9844351    0.0001027   -0.9290163  
C    2.6001984   -2.1411811   -5.8266044  
C    2.0730542   -1.7332808   -7.0044478  
C    0.9991586   -0.8222825   -6.6393045  
C    1.0189893   -0.7962628   -5.1609559  
N    1.9554486   -1.5673966   -4.6788912  
C    0.0950440    0.0004357   -4.4015596  
C   -0.8074272    0.7379275   -5.0878438  
O   -1.7282267    1.5268499   -4.5083867  
C   -0.8524309    0.7331206   -6.5798599  
O   -1.7006936    1.4286199   -7.1383865  
C    0.1059493   -0.0924302   -7.3360990  
H    2.3756466   -2.0156464   -7.9983205  
H   -2.2213262    1.9193589   -5.2513152  
H    0.0406002   -0.0682526   -8.4156246  
H    3.4197063   -2.8236747   -5.6666593  
C    2.5311839    2.1237619    3.0120429  
C    1.9795631    1.6616747    1.8395852  
C    0.9223175    0.7739173    2.1983588  
C    0.8753926    0.7337535    3.6154372  
N    1.8668922    1.5631002    4.0777464  
C   -0.0496243   -0.0427881    4.3197917  
C   -0.9437528   -0.7922060    3.5801400  
O   -1.8685244   -1.5680278    4.2172520  
C   -0.9124520   -0.7656372    2.1655264  
O   -1.8671164   -1.5663939    1.5732860  
C    0.0000000    0.0000000    1.4700000  
H    2.3005065    1.9304404    0.8477417  
H    2.0679347    1.7444845    5.0445261  
H   -0.0904770   -0.0778569    5.3997470  
H   -2.3849669   -2.0011402    3.5251786  
H   -1.7775064   -1.4909735    0.6183591  
H    3.3468514    2.8078103    3.1724291  
