60

C    0.0715038   -0.5269449   -9.6457131  
C    0.7330370   -0.4178408  -10.8469366  
C    0.6400067    0.9469485  -11.2510350  
C   -0.0956430    1.6287564  -10.2480972  
N   -0.4271068    0.7041193   -9.2890377  
C   -0.3806463    2.9958075  -10.3169031  
C    0.0857373    3.6872332  -11.4180826  
O   -0.1638916    5.0239956  -11.5353997  
C    0.8212036    3.0245301  -12.4293840  
O    1.2157571    3.8505297  -13.4615628  
C    1.1025045    1.6758663  -12.3622948  
H    1.2215102   -1.2231206  -11.3683890  
H   -0.9409437    3.5212949   -9.5558955  
H    0.2435235    5.3060909  -12.3646771  
H    1.7061200    3.3250801  -14.1011337  
H    1.6679469    1.1956083  -13.1522976  
H   -0.0853454   -1.3857961   -9.0158465  
C    0.0063632   -0.7183650   -5.1315053  
C    0.1635205   -0.4995845   -6.4624867  
C   -0.8683531    0.4283168   -6.8613249  
C   -1.6451050    0.7344066   -5.6448723  
N   -1.0641734    0.0073898   -4.6315339  
C   -2.7096558    1.5750809   -5.6036142  
C   -3.1177654    2.2213966   -6.8398416  
O   -4.0639306    2.9951418   -6.9061054  
C   -2.3096737    1.9116343   -8.1401647  
O   -2.6441253    2.4496388   -9.1870427  
C   -1.1807017    0.9881992   -8.0592842  
H    0.9162680   -0.9383065   -7.0929690  
H   -3.2656673    1.7860234   -4.7006940  
H    0.5824087   -1.3488902   -4.4738586  
C    1.1319248    0.0015675   -0.8009270  
C    0.7969916    0.0034959   -2.1169404  
C   -0.6453336    0.0035703   -2.1842672  
C   -1.1266831    0.0015415   -0.7896027  
N    0.0000000    0.0000000    0.0000000  
C   -2.4346129    0.0013924   -0.4276297  
C   -3.4350110    0.0031352   -1.4820184  
O   -4.6384610    0.0030897   -1.2583919  
C   -2.9478958    0.0050460   -2.9661075  
O   -3.7809377    0.0062160   -3.8623775  
C   -1.5113821    0.0053068   -3.2312125  
H    1.4821240    0.0045436   -2.9459192  
H   -2.7664565    0.0000185    0.6013447  
H    2.1104318    0.0009428   -0.3488058  
C    2.3971438    2.0127888    3.1728260  
C    1.9431056    1.6308205    1.9564670  
C    0.8496017    0.7127664    2.2356185  
C    0.7794028    0.6545384    3.7115134  
N    1.6840587    1.4146091    4.2663826  
C   -0.1885723   -0.1578550    4.3957118  
C   -1.0476298   -0.8789867    3.6398520  
O   -2.0015663   -1.6796266    4.1448486  
C   -1.0022026   -0.8410666    2.1483229  
O   -1.8147390   -1.5232959    1.5241687  
C    0.0000000    0.0000000    1.4700000  
H    2.3054237    1.9346118    0.9892483  
H   -0.2170646   -0.1815267    5.4753125  
H   -2.4487139   -2.0549881    3.3649027  
H    3.2048689    2.6911772    3.3971983  
