64

C   -0.4696769    0.0864361   -8.6251231  
C    0.2536841   -0.5614859   -9.5995014  
C   -0.2880493   -0.1600255  -10.8564634  
C   -1.3485830    0.7415402  -10.5837486  
N   -1.4331418    0.8674552   -9.2193398  
C   -2.1111491    1.3392598  -11.5917241  
C   -1.7971994    1.0212923  -12.8988239  
O   -2.5096629    1.5768005  -13.9219660  
C   -0.7428690    0.1236292  -13.1910651  
O   -0.5540603   -0.0915530  -14.5406549  
C    0.0096642   -0.4666177  -12.1971695  
H    1.0705262   -1.2408543   -9.4256600  
H   -2.0876039    1.4505470   -8.7297847  
H   -2.9208280    2.0270930  -11.3904570  
H   -2.1326505    1.2258921  -14.7392727  
H    0.1755557   -0.7088641  -14.6510683  
H    0.8109789   -1.1504559  -12.4516068  
C    2.3020059   -2.1258165   -5.9826638  
C    1.8093622   -1.6631472   -4.7844542  
C    0.7354063   -0.7757530   -5.0906400  
C    0.6179776   -0.7364004   -6.5036468  
N    1.5853777   -1.5658598   -7.0142844  
C   -0.3410999    0.0396022   -7.1615059  
C   -1.1974268    0.7893049   -6.3786729  
O   -2.1529117    1.5646261   -6.9693855  
C   -1.0957281    0.7635435   -4.9673579  
O   -2.0198646    1.5644923   -4.3287681  
C   -0.1496415   -0.0015615   -4.3176961  
H    2.1793383   -1.9313018   -3.8096702  
H    1.7380683   -1.7477623   -7.9897732  
H   -2.6343333    1.9980531   -6.2526992  
H   -1.8828075    1.4896274   -3.3794448  
H    3.1087988   -2.8098333   -6.1830798  
C    3.3003543    0.0005276   -1.4738987  
C    2.5232814    0.0003497   -2.6090747  
C    1.1623200   -0.0001320   -2.1820103  
C    1.1711883    0.0000582   -0.7636140  
N    2.4852300   -0.0014919   -0.3662360  
C    0.0000000    0.0000000    0.0000000  
C   -1.2020384    0.0000519   -0.6806477  
O   -2.3759249    0.0003493    0.0157743  
C   -1.2314656   -0.0005115   -2.0955510  
O   -2.5054392   -0.0008039   -2.6250180  
C   -0.0764516   -0.0007274   -2.8495195  
H    2.8919955   -0.0005620   -3.6205304  
H    2.8036267    0.0088183    0.5858662  
H   -3.0835638    0.0000347   -0.6418818  
H   -2.4360047   -0.0011529   -3.5845921  
H    4.3715549    0.0004895   -1.3667136  
C    2.4951002    2.0940188    2.9809380  
C    1.9440701    1.6314916    1.8291961  
C    0.8759964    0.7350050    2.2038498  
C    0.8497377    0.7130254    3.6788474  
N    1.8560616    1.5571714    4.0882609  
C   -0.0205033   -0.0168748    4.4215661  
C   -0.9962600   -0.8356168    3.7214979  
O   -1.8224391   -1.5286685    4.3006425  
C   -0.9864710   -0.8277881    2.1595606  
O   -1.8030528   -1.5133726    1.5592035  
C    0.0000000    0.0000000    1.4700000  
H    2.2509283    1.8888011    0.8310761  
H   -0.0229599   -0.0187323    5.5027230  
H    3.3143982    2.7817323    3.1139444  
H    2.0889452    1.7545833    5.0442112  
