60

C    7.5835348   -0.5427618   -4.6722026  
C    8.9516224   -0.4356836   -4.5755821  
C    9.2815112    0.9284578   -4.8303201  
C    8.0635385    1.6119769   -5.0778501  
N    7.0524862    0.6889361   -4.9759409  
C    8.0085371    2.9789462   -5.3662231  
C    9.2048399    3.6685297   -5.4051306  
O    9.2086674    5.0051278   -5.6817215  
C   10.4303570    3.0041023   -5.1612867  
O   11.5340994    3.8283793   -5.2365361  
C   10.4853919    1.6555173   -4.8770049  
H    9.6286477   -1.2418643   -4.3504076  
H    7.0834971    3.5057325   -5.5559571  
H   10.1327858    5.2858297   -5.6598750  
H   12.3195689    3.3018363   -5.0593523  
H   11.4389818    1.1739131   -4.6947890  
H    6.9446578   -1.4005709   -4.5498972  
C    3.4580103   -0.7268405   -2.8377751  
C    4.7325012   -0.5102402   -3.2535076  
C    4.6631580    0.4171276   -4.3580508  
C    3.2335495    0.7252806   -4.5531175  
N    2.5562217   -0.0001543   -3.6003001  
C    2.7508573    1.5661405   -5.5026795  
C    3.7028851    2.2104925   -6.3920543  
O    3.3673539    2.9842354   -7.2792080  
C    5.2217703    1.8985276   -6.2037144  
O    6.0326417    2.4348679   -6.9467404  
C    5.6204823    0.9750982   -5.1443947  
H    5.6199071   -0.9500704   -2.8343736  
H    1.6983101    1.7786118   -5.6288155  
H    3.1016697   -1.3563613   -2.0386413  
C    0.0000000    0.0000000    0.0000000  
C    1.0541688   -0.0001719   -0.8560391  
C    0.5103141   -0.0000449   -2.1935955  
C   -0.9576367    0.0002461   -2.0455733  
N   -1.2018459   -0.0001392   -0.6915970  
C   -1.8348306    0.0008319   -3.0810611  
C   -1.2972842    0.0009739   -4.4314605  
O   -2.0050664    0.0014267   -5.4301321  
C    0.2542628    0.0004190   -4.6117571  
O    0.7184677    0.0002263   -5.7439119  
C    1.0974556    0.0000880   -3.4189127  
H    2.0940752   -0.0005479   -0.5817978  
H   -2.9081050    0.0011669   -2.9507065  
H   -2.1128195    0.0014911   -0.2706793  
C    3.2573670    0.0002920    2.9809380  
C    2.5379467    0.0001709    1.8291961  
C    1.1435042   -0.0000331    2.2038498  
C    1.1092607    0.0000083    3.6788474  
N    2.4227561   -0.0001909    4.0882609  
C   -0.0265533    0.0002524    4.4215661  
C   -1.3003036    0.0002640    3.7214979  
O   -2.3786784    0.0004133    4.3006425  
C   -1.2877726   -0.0000311    2.1595606  
O   -2.3539958   -0.0003306    1.5592035  
C    0.0000000    0.0000000    1.4700000  
H    2.9384090    0.0000368    0.8310761  
H   -0.0296291    0.0004086    5.5027230  
H    4.3270393    0.0004765    3.1139444  
H    2.7280493    0.0013407    5.0442112  
