62

C    3.4139327   -0.7157106   -3.0486430  
C    2.4521480    0.0014830   -3.7217483  
C    3.1196678    0.7293942   -4.7509045  
C    4.4992575    0.4136353   -4.6562809  
N    4.6435344   -0.4647552   -3.6111822  
C    5.4593789    0.9531296   -5.5176186  
C    5.0187445    1.8270698   -6.4924252  
O    5.9138847    2.3826163   -7.3602413  
C    3.6464060    2.1547521   -6.6025488  
O    3.3663363    3.0392793   -7.6235855  
C    2.6987037    1.6231153   -5.7529906  
H    5.5104848   -0.8729912   -3.3116471  
H    6.5123601    0.7166040   -5.4506373  
H    5.4042989    2.9535767   -7.9498100  
H    2.4191006    3.2075626   -7.6289354  
H    1.6547132    1.8928996   -5.8615160  
H    3.3203042   -1.3852968   -2.2108799  
C    0.0000000    0.0000000    0.0000000  
C    1.0662921   -0.0000106   -0.8334269  
C    0.4961870    0.0000059   -2.1718889  
C   -0.9663856   -0.0000854   -1.9540246  
N   -1.2632773   -0.0000087   -0.6828657  
C   -1.8985362   -0.0000522   -3.0477258  
C   -1.3925773    0.0004558   -4.3020541  
O   -2.1456384    0.0005402   -5.4151311  
C    0.0786236    0.0009315   -4.5544999  
O    0.4683762    0.0012578   -5.7221098  
C    1.0143167    0.0008435   -3.4159031  
H    2.1107198    0.0000631   -0.5721865  
H   -1.5042271    0.0009682   -6.1484419  
C   -3.9847102    0.7177360   -1.8071033  
C   -3.3460094   -0.0004268   -2.7913647  
C   -4.3510978   -0.7290158   -3.4939000  
C   -5.5942323   -0.4126528   -2.8885435  
N   -5.3355650    0.4667353   -1.8665919  
C   -6.8075073   -0.9525631   -3.3258652  
C   -6.7651064   -1.8275488   -4.3939381  
O   -7.9205868   -2.3835420   -4.8616453  
C   -5.5345116   -2.1558471   -5.0109265  
O   -5.6582861   -3.0414013   -6.0615537  
C   -4.3371704   -1.6237997   -4.5798521  
H   -6.0266286    0.8755679   -1.2638742  
H   -7.7583065   -0.7155812   -2.8686758  
H   -7.6696379   -2.9552265   -5.5988474  
H   -4.7823571   -3.2100453   -6.4219857  
H   -3.4103025   -1.8940748   -5.0721388  
H   -3.5833883    1.3880432   -1.0664359  
C    0.0000000    0.0000000    1.4700000  
C    1.0662921    0.0000102    2.3034270  
C    0.4961870   -0.0000064    3.6418889  
C   -0.9663858    0.0000850    3.4240247  
N   -1.2632773    0.0000084    2.1528658  
C   -1.8985362    0.0000517    4.5177257  
C   -1.3925775   -0.0004564    5.7720543  
O   -2.1456383   -0.0005410    6.8851312  
C    0.0786232   -0.0009323    6.0245000  
O    0.4683759   -0.0012588    7.1921102  
C    1.0143166   -0.0008442    4.8859032  
H    2.1107198   -0.0000632    2.0421868  
H   -2.9622183    0.0003270    4.3293377  
H   -1.5042274   -0.0009692    7.6184419  
H    2.0724152   -0.0013148    5.1109744  
