62

C   10.0302567    0.7192931   -1.5066994  
C    9.1301371    0.0017080   -0.7534916  
C    9.8838622   -0.7256849    0.2147015  
C   11.2500818   -0.4092205    0.0020537  
N   11.3037127    0.4690730   -1.0516737  
C   12.2808348   -0.9480712    0.7779265  
C   11.9259062   -1.8220809    1.7870402  
O   12.8924822   -2.3770165    2.5749432  
C   10.5682465   -2.1504621    2.0145103  
O   10.3772620   -3.0349673    3.0559123  
C    9.5508824   -1.6194606    1.2493095  
H   12.1415579    0.8777126   -1.4245164  
H   13.3240638   -0.7110065    0.6208438  
H   12.4356503   -2.9481459    3.2061166  
H    9.4340664   -3.2037445    3.1425128  
H    8.5201923   -1.8897727    1.4470165  
H    9.8647559    1.3886923   -2.3334237  
C    6.5739136    0.0018720   -4.3537910  
C    7.6280828    0.0019468   -3.4977523  
C    7.0842286    0.0017734   -2.1601960  
C    5.6162776    0.0015610   -2.3082181  
N    5.3720683    0.0020314   -3.6621936  
C    4.7390840    0.0009613   -1.2727298  
C    5.2766310    0.0007200    0.0776696  
O    4.5688485    0.0002469    1.0763412  
C    6.8281778    0.0011905    0.2579659  
O    7.2923826    0.0012993    1.3901205  
C    7.6713704    0.0015458   -0.9348787  
H    8.6679891    0.0022876   -3.7719937  
H    6.5739136    0.0019304   -5.4317014  
H    4.4610946    0.0004679   -4.0831118  
C    3.2798077    0.0005856   -1.4499661  
C    2.5571132    0.0005565   -2.5996564  
C    1.1637425    0.0001547   -2.2210366  
C    1.1336959   -0.0000200   -0.7459475  
N    2.4483509   -0.0001429   -0.3402730  
C    0.0000000    0.0000000    0.0000000  
C   -1.2757370   -0.0000187   -0.6964411  
O   -2.3524597   -0.0000640   -0.1142306  
C   -1.2676502   -0.0000874   -2.2584078  
O   -2.3355774   -0.0004102   -2.8557287  
C    0.0181551    0.0001758   -2.9516297  
H    2.9547342    0.0006074   -3.5989118  
H    0.0150776    0.0003317   -4.0331632  
H    2.7563626    0.0012823    0.6148051  
C    0.8576279    0.7185626    2.2703808  
C    0.0000000    0.0000000    1.4700000  
C   -0.8668858   -0.7285659    2.3373528  
C   -0.4876752   -0.4117774    3.6669281  
N    0.5635254    0.4678311    3.5902241  
C   -1.1297612   -0.9515493    4.7854808  
C   -2.1738724   -1.8268314    4.5576857  
O   -2.8357962   -2.3827064    5.6140350  
C   -2.5667212   -2.1555554    3.2384331  
O   -3.6226318   -3.0413663    3.1773122  
C   -1.9335634   -1.6236449    2.1344818  
H    1.0363952    0.8769718    4.3757045  
H   -0.8454472   -0.7142436    5.8013813  
H   -3.5178062   -2.9546422    5.2385129  
H   -3.8247440   -3.2102924    2.2519915  
H   -2.2566033   -1.8942483    1.1360343  
H    1.6567807    1.3889844    2.0042067  
