64

C   -0.2785566    0.7073463   -7.1705415  
C   -1.5143927    0.4579282   -7.7209661  
C   -1.3133455   -0.4525930   -8.8003785  
C    0.0772307   -0.7256151   -8.8610708  
N    0.6764065   -0.0037870   -7.8587883  
C    0.6381424   -1.5871551   -9.8086555  
C   -0.2204021   -2.1841887  -10.7112237  
O    0.2742267   -3.0344601  -11.6574762  
C   -1.6107928   -1.9240591  -10.6669251  
O   -2.3327120   -2.5942046  -11.6328871  
C   -2.1648056   -1.0740303   -9.7325562  
H   -2.4460377    0.8811424   -7.3864216  
H    1.6971689   -1.7992874   -9.8602737  
H   -0.4828226   -3.3352565  -12.1767675  
H   -3.2613955   -2.3634856  -11.5332831  
H   -3.2334415   -0.8940030   -9.7232457  
H   -0.0025546    1.3373577   -6.3423705  
C    2.8699641   -0.0020527   -4.0185824  
C    4.1418710   -0.0047335   -4.5427132  
C    4.0070334   -0.0066676   -5.9627187  
C    2.6177780   -0.0047433   -6.2488846  
N    1.9559319   -0.0039085   -5.0461476  
C    2.1142957   -0.0055709   -7.5532210  
C    3.0299396   -0.0080856   -8.5875167  
O    2.5927428   -0.0086428   -9.8805252  
C    4.4200515   -0.0104086   -8.3221859  
O    5.2027699   -0.0131881   -9.4582708  
C    4.9174610   -0.0098667   -7.0356759  
H    5.0545874   -0.0063386   -3.9718023  
H    0.9584584    0.0080180   -4.9326303  
H    3.3831278   -0.0107804  -10.4360002  
H    6.1269493   -0.0146009   -9.1908871  
H    5.9874217   -0.0118732   -6.8634591  
C    3.2573673   -0.0002921   -1.5109381  
C    2.5379469   -0.0001710   -0.3591962  
C    1.1435042    0.0000332   -0.7338498  
C    1.1092607   -0.0000083   -2.2088474  
N    2.4227562    0.0001908   -2.6182610  
C   -0.0265532   -0.0002523   -2.9515663  
C   -1.3003033   -0.0002639   -2.2514979  
O   -2.3786784   -0.0004132   -2.8306425  
C   -1.2877726    0.0000312   -0.6895609  
O   -2.3539956    0.0003308   -0.0892035  
C    0.0000000    0.0000000    0.0000000  
H    2.9384091   -0.0000368    0.6389240  
H   -0.0296292   -0.0004086   -4.0327231  
H    4.3270395   -0.0004765   -1.6439444  
C    0.8676693    0.7151171    2.2619005  
C    0.5875920    0.4624972    3.5848544  
C   -0.5048400   -0.4542819    3.6114698  
C   -0.8517165   -0.7276451    2.2635546  
N    0.0000000    0.0000000    1.4700000  
C   -1.8902865   -1.5946756    1.9108239  
C   -2.5912627   -2.1969500    2.9375057  
O   -3.6148162   -3.0527051    2.6493466  
C   -2.2603868   -1.9365747    4.2886322  
O   -3.0513550   -2.6123276    5.1947621  
C   -1.2361111   -1.0811317    4.6373480  
H    1.1060808    0.8876438    4.4271209  
H   -2.1597133   -1.8070987    0.8854031  
H   -3.9636755   -3.3565188    3.4974381  
H   -2.7621927   -2.3810384    6.0827341  
H   -1.0058879   -0.9010589    5.6809233  
H    1.6167816    1.3499334    1.8205408  
