64

C   -3.2578652    0.0024039   -2.9908507  
C   -4.0349370    0.0043587   -1.8556754  
C   -5.3958972    0.0056179   -2.2827405  
C   -5.3870307    0.0040490   -3.7011356  
N   -4.0729884    0.0040658   -4.0985152  
C   -6.5582193    0.0043937   -4.4647492  
C   -7.7602567    0.0060510   -3.7841021  
O   -8.9341432    0.0061072   -4.4805238  
C   -7.7896818    0.0080075   -2.3692002  
O   -9.0636546    0.0099261   -1.8397339  
C   -6.6346677    0.0079419   -1.6152323  
H   -3.6662213    0.0059254   -0.8442213  
H   -3.7546020   -0.0074429   -5.0506068  
H   -6.5582194    0.0033485   -5.5460456  
H   -9.6417813    0.0076765   -3.8228683  
H   -8.9942189    0.0111418   -0.8801607  
H   -6.6886244    0.0096502   -0.5328440  
C    0.0000000    0.0000000    0.0000000  
C    1.0521668   -0.0011902   -0.8862340  
C    0.4917219   -0.0011956   -2.1979129  
C   -0.9187425    0.0003149   -2.0478680  
N   -1.1833171   -0.0009411   -0.7007913  
C   -1.7951698    0.0010351   -3.1372090  
C   -1.2375834    0.0005226   -4.4010421  
O   -2.0474212    0.0015361   -5.4997584  
C    0.1673583   -0.0013565   -4.5711959  
O    0.5673528   -0.0020685   -5.8915549  
C    1.0325773   -0.0023411   -3.4969889  
H    2.0953059   -0.0030649   -0.6200560  
H   -2.0989777    0.0102372   -0.2891824  
H   -1.4634882    0.0006499   -6.2693595  
H    1.5290714   -0.0033151   -5.9180044  
C    3.4064222   -0.7320817   -2.9766971  
C    4.6700261   -0.5172923   -3.4253015  
C    4.5733650    0.4097222   -4.5280871  
C    3.1395901    0.7196411   -4.6862992  
N    2.4861705   -0.0045381   -3.7159918  
C    2.6336098    1.5607428   -5.6234422  
C    3.5631732    2.2035102   -6.5373877  
O    3.2058303    2.9773300   -7.4159153  
C    5.0860152    1.8896615   -6.3882048  
O    5.8781109    2.4246579   -7.1521573  
C    5.5107729    0.9661425   -5.3391358  
H    5.5673982   -0.9580991   -3.0290363  
H    1.5784288    1.7745214   -5.7224436  
H    6.5669348    0.7542922   -5.2423588  
H    3.0700350   -1.3608222   -2.1683540  
C    0.0000000    0.0000000    1.4700000  
C    1.0521667    0.0011902    2.3562342  
C    0.4917218    0.0011957    3.6679131  
C   -0.9187428   -0.0003148    3.5178682  
N   -1.1833171    0.0009411    2.1707914  
C   -1.7951701   -0.0010350    4.6072090  
C   -1.2375837   -0.0005224    5.8710424  
O   -2.0474215   -0.0015360    6.9697579  
C    0.1673580    0.0013566    6.0411963  
O    0.5673524    0.0020687    7.3615553  
C    1.0325770    0.0023412    4.9669890  
H    2.0953057    0.0030649    2.0900562  
H   -2.0989778   -0.0102372    1.7591824  
H   -2.8710934   -0.0020419    4.4995513  
H   -1.4634884   -0.0006497    7.7393593  
H    1.5290710    0.0033153    7.3880045  
H    2.1042148    0.0039609    5.1284455  
