64

C   -0.0334878   -0.9793477   -9.5597557  
C   -0.1685664    0.0961883   -8.7127348  
C   -0.4255773    1.2382756   -9.5277093  
C   -0.4362092    0.7944036  -10.8748504  
N   -0.1929861   -0.5565954  -10.8586750  
C   -0.6611110    1.6555467  -11.9531084  
C   -0.8795554    2.9890146  -11.6661882  
O   -1.1047367    3.8732517  -12.6812909  
C   -0.8724214    3.4511113  -10.3285675  
O   -1.1052339    4.8055099  -10.2071333  
C   -0.6503492    2.6021853   -9.2643607  
H   -0.1518504   -1.1486088  -11.6684947  
H   -0.6703346    1.3235160  -12.9821239  
H   -1.2308037    4.7372272  -12.2678691  
H   -1.0837553    5.0352709   -9.2731359  
H   -0.6505762    2.9851345   -8.2505423  
H    0.1654315   -2.0143313   -9.3402135  
C    2.5712577   -2.1206951   -5.9616534  
C    1.9373695   -1.6210575   -7.0756615  
C    0.9098907   -0.7465417   -6.6129414  
C    0.9654398   -0.7523422   -5.1956172  
N    1.9839667   -1.5983919   -4.8330982  
C    0.0950446    0.0004351   -4.4015596  
C   -0.8484203    0.7733794   -5.0501034  
O   -1.7229561    1.5281752   -4.3231349  
C   -0.9198270    0.7921109   -6.4633859  
O   -1.9133951    1.6110120   -6.9589329  
C   -0.0616587    0.0495203   -7.2473711  
H    2.1843498   -1.8586263   -8.0962283  
H    2.2669716   -1.7953553   -3.8901799  
H   -2.2874065    1.9829869   -4.9617323  
H   -1.8933722    1.5662712   -7.9197660  
H    3.3949109   -2.8094146   -5.8827842  
C    3.3321173    0.0004713   -1.3379338  
C    2.6974181    0.0000116   -2.5332314  
C    1.2800438   -0.0002119   -2.2052841  
C    1.2395034    0.0000643   -0.7271299  
N    2.4394062    0.0005460   -0.2131038  
C    0.0000000    0.0000000    0.0000000  
C   -1.1468702    0.0000634   -0.7169543  
O   -2.3742203    0.0000074   -0.1695487  
C   -1.1388770    0.0001607   -2.2096355  
O   -2.2206234    0.0000905   -2.7970411  
C    0.1454522    0.0001815   -2.9324241  
H    3.1367984   -0.0000653   -3.5160950  
H   -2.9844346    0.0001026   -0.9290167  
H    4.3940038    0.0007618   -1.1498640  
C    0.8576279    0.7185626    2.2703808  
C    0.0000000    0.0000000    1.4700000  
C   -0.8668858   -0.7285659    2.3373528  
C   -0.4876752   -0.4117774    3.6669281  
N    0.5635254    0.4678311    3.5902241  
C   -1.1297612   -0.9515493    4.7854808  
C   -2.1738724   -1.8268314    4.5576857  
O   -2.8357962   -2.3827064    5.6140350  
C   -2.5667212   -2.1555554    3.2384331  
O   -3.6226318   -3.0413663    3.1773122  
C   -1.9335634   -1.6236449    2.1344818  
H    1.0363952    0.8769718    4.3757045  
H   -0.8454472   -0.7142436    5.8013813  
H   -3.5178062   -2.9546422    5.2385129  
H   -3.8247440   -3.2102924    2.2519915  
H   -2.2566033   -1.8942483    1.1360343  
H    1.6567807    1.3889844    2.0042067  
