60

C    0.1047827   -3.2805739  -10.4415384  
C    0.0504412   -2.5981392   -9.2483088  
C   -0.2097762   -1.2311966   -9.5619246  
C   -0.3054799   -1.1391025  -10.9741168  
N   -0.1076412   -2.4010025  -11.4771926  
C   -0.5568578    0.0653301  -11.6381492  
C   -0.7147966    1.1973638  -10.8624348  
O   -0.9623871    2.3996074  -11.4593641  
C   -0.6224621    1.1257728   -9.4520570  
O   -0.8026388    2.3392561   -8.8209176  
C   -0.3742253   -0.0620427   -8.7963141  
H    0.1832383   -3.0319726   -8.2720159  
H   -0.1287507   -2.6477920  -12.4501413  
H   -0.6308237    0.1422014  -12.7141699  
H   -1.0374487    3.0478270  -10.7470148  
H   -0.7248466    2.2029135   -7.8717268  
H    0.2796822   -4.3248924  -10.6358774  
C    2.2088376   -2.1426205   -5.8191636  
C    1.6816910   -1.7351242   -6.9971456  
C    0.6077899   -0.8240080   -6.6323121  
C    0.6276207   -0.7974855   -5.1539730  
N    1.5640846   -1.5684500   -4.6716456  
C   -0.2963293   -0.0005341   -4.3948471  
C   -1.1988048    0.7367190   -5.0813825  
O   -2.1196088    1.5258329   -4.5021932  
C   -1.2438086    0.7314045   -6.5733969  
O   -2.0920753    1.4267087   -7.1321599  
C   -0.2854235   -0.0943979   -7.3293552  
H    1.9842853   -2.0178258   -7.9909228  
H   -2.6127106    1.9180864   -5.2452551  
H    3.0283493   -2.8250551   -5.6589865  
C    3.1301146   -0.0010313   -1.7028256  
C    2.5367765   -0.0002766   -0.4864669  
C    1.1089901    0.0001027   -0.7656184  
C    1.0177865   -0.0004150   -2.2415133  
N    2.1993571   -0.0011612   -2.7963824  
C   -0.2459219   -0.0002879   -2.9257116  
C   -1.3675326   -0.0000606   -2.1698520  
O   -2.6129318    0.0000865   -2.6748483  
C   -1.3083588    0.0000910   -0.6783229  
O   -2.3693264    0.0004206   -0.0541685  
C    0.0000000    0.0000000    0.0000000  
H    3.0096016   -0.0001007    0.4807518  
H   -3.1967444    0.0002093   -1.8949026  
H    4.1849275   -0.0015114   -1.9271979  
C    0.8400945    0.7047457    2.2710304  
C    0.0000000    0.0000000    1.4700000  
C   -0.8844236   -0.7423113    2.3369512  
C   -0.4878984   -0.4098547    3.7186280  
N    0.5629682    0.4714286    3.6095011  
C   -1.0836927   -0.9095027    4.8308716  
C   -2.1891196   -1.8367527    4.6554461  
O   -2.7906899   -2.3413415    5.5944904  
C   -2.6257283   -2.2031529    3.2011665  
O   -3.5549479   -2.9829990    3.0410059  
C   -1.9068976   -1.5999348    2.0816745  
H   -0.7774656   -0.6525820    5.8354244  
H   -2.2155208   -1.8586617    1.0779135  
H    1.6384792    1.3747609    1.9961646  
H    1.0518368    0.8833920    4.3830260  
