60

C   -3.3187311    0.0147082   -8.3998563  
C   -4.3862191    0.0146700   -7.5321373  
C   -5.5698355    0.0166086   -8.3281583  
C   -5.1584733    0.0174888   -9.6856216  
N   -3.7856822    0.0182476   -9.6934148  
C   -6.0645435    0.0191020  -10.7504329  
C   -7.4103998    0.0195330  -10.4392228  
O   -8.3381416    0.0207415  -11.4403762  
C   -7.8404804    0.0190454   -9.0909475  
O   -9.2123693    0.0199956   -8.9451234  
C   -6.9471795    0.0177274   -8.0399787  
H   -4.3199670    0.0145062   -6.4576126  
H   -3.2099847    0.0083962  -10.5158839  
H   -5.7574301    0.0199236  -11.7871984  
H   -9.2034280    0.0211452  -11.0107897  
H   -9.4183371    0.0195576   -8.0053465  
H   -7.3063386    0.0175647   -7.0174906  
C   -1.0641738    0.0073911   -4.6315339  
C    0.2004555    0.0078179   -5.1262946  
C    0.0892946    0.0101556   -6.5659030  
C   -1.3541083    0.0110915   -6.8714806  
N   -1.9986532    0.0089309   -5.6559784  
C   -1.8747039    0.0136543   -8.1247479  
C   -0.9518136    0.0153961   -9.2476043  
O   -1.3222287    0.0176752  -10.4142606  
C    0.5810414    0.0141933   -8.9473387  
O    1.3676713    0.0153340   -9.8846081  
C    1.0213764    0.0116822   -7.5545178  
H    1.1076404    0.0064482   -4.5486899  
H    2.0843764    0.0110681   -7.3551324  
H   -2.9945001    0.0104952   -5.5321487  
C    1.1319245    0.0015656   -0.8009271  
C    0.7969914    0.0034943   -2.1169404  
C   -0.6453340    0.0035712   -2.1842672  
C   -1.1266833    0.0015434   -0.7896027  
N    0.0000000    0.0000000    0.0000000  
C   -2.4346131    0.0013965   -0.4276296  
C   -3.4350110    0.0031409   -1.4820182  
O   -4.6384610    0.0030975   -1.2583916  
C   -2.9478961    0.0050507   -2.9661073  
O   -3.7809383    0.0062220   -3.8623773  
C   -1.5113824    0.0053091   -3.2312124  
H    1.4821237    0.0045409   -2.9459193  
H   -2.7664564    0.0000233    0.6013449  
H    2.1104315    0.0009392   -0.3488061  
C    0.0000000    0.0000000    1.4700000  
C    1.0541688    0.0001722    2.3260392  
C    0.5103138    0.0000454    3.6635956  
C   -0.9576371   -0.0002459    3.5155732  
N   -1.2018458    0.0001392    2.1615969  
C   -1.8348311   -0.0008317    4.5510609  
C   -1.2972847   -0.0009736    5.9014604  
O   -2.0050672   -0.0014265    6.9001319  
C    0.2542623   -0.0004184    6.0817573  
O    0.7184670   -0.0002256    7.2139121  
C    1.0974552   -0.0000873    4.8889129  
H    2.0940752    0.0005483    2.0517982  
H   -2.9081052   -0.0011668    4.4207061  
H    2.1707277    0.0000911    5.0223670  
H   -2.1128194   -0.0014912    1.7406791  
