60

C    2.5432474   -2.1201839   -5.9711738  
C    1.9944233   -1.6589125   -4.7970838  
C    0.9351222   -0.7723427   -5.1527170  
C    0.8841191   -0.7320295   -6.5696505  
N    1.8752704   -1.5601472   -7.0349012  
C   -0.0438064    0.0435294   -7.2712560  
C   -0.9367047    0.7917924   -6.5289536  
O   -1.8641931    1.5666222   -7.1633176  
C   -0.9013486    0.7650563   -5.1144385  
O   -1.8552613    1.5646082   -4.5193668  
C    0.0139746    0.0003883   -4.4216235  
H    2.3185015   -1.9274449   -3.8061970  
H    2.0737737   -1.7411560   -8.0022747  
H   -0.0877729    0.0787063   -8.3510857  
H   -2.3791717    1.9990292   -6.4697144  
H   -1.7628468    1.4891551   -3.5647096  
H    3.3592557   -2.8032527   -6.1339813  
C    3.2798087    0.0005858   -1.4499643  
C    2.5571149    0.0005569   -2.5996548  
C    1.1637440    0.0001551   -2.2210358  
C    1.1336966   -0.0000198   -0.7459468  
N    2.4483512   -0.0001426   -0.3402714  
C    0.0000000    0.0000000    0.0000000  
C   -1.2757369   -0.0000185   -0.6964416  
O   -2.3524599   -0.0000639   -0.1142315  
C   -1.2676492   -0.0000870   -2.2584080  
O   -2.3355760   -0.0004099   -2.8557298  
C    0.0181565    0.0001762   -2.9516296  
H    2.9547360    0.0006079   -3.5989102  
H    2.7563627    0.0012824    0.6148067  
C    6.6317386    0.0027581   -4.3241585  
C    5.4016588    0.0020956   -3.7488515  
C    5.6054528    0.0015088   -2.3194099  
C    7.0655613    0.0019157   -2.1075768  
N    7.6303551    0.0022720   -3.3621277  
C    7.6659175    0.0019600   -0.8904996  
C    6.8173811    0.0013554    0.2895518  
O    7.2622818    0.0012827    1.4298867  
C    5.2683492    0.0006651    0.0887905  
O    4.5438183   -0.0001539    1.0748507  
C    4.7390849    0.0009618   -1.2727274  
H    4.4591036    0.0018436   -4.2667349  
H    8.7388162    0.0023916   -0.7570919  
H    6.8927439    0.0033438   -5.3699912  
H    8.6161405    0.0041529   -3.5499348  
C    2.4951002    2.0940188    2.9809380  
C    1.9440701    1.6314916    1.8291961  
C    0.8759964    0.7350050    2.2038498  
C    0.8497377    0.7130254    3.6788474  
N    1.8560616    1.5571714    4.0882609  
C   -0.0205033   -0.0168748    4.4215661  
C   -0.9962600   -0.8356168    3.7214979  
O   -1.8224391   -1.5286685    4.3006425  
C   -0.9864710   -0.8277881    2.1595606  
O   -1.8030528   -1.5133726    1.5592035  
C    0.0000000    0.0000000    1.4700000  
H    2.2509283    1.8888011    0.8310761  
H   -0.0229599   -0.0187323    5.5027230  
H    3.3143982    2.7817323    3.1139444  
H    2.0889452    1.7545833    5.0442112  
