60

C    5.0827105   -4.2303526   -7.2635722  
C    5.5603997   -4.8960745   -6.1585414  
C    4.7359243   -4.5197436   -5.0570810  
C    3.7636813   -3.6148962   -5.5549977  
N    4.0040335   -3.4596927   -6.8976665  
C    2.7815116   -3.0383984   -4.7439604  
C    2.7806151   -3.3818261   -3.4059638  
O    1.8433899   -2.8482986   -2.5693206  
C    3.7426619   -4.2825972   -2.8903146  
O    3.6099238   -4.5237706   -1.5384421  
C    4.7120542   -4.8514989   -3.6897866  
H    6.4005150   -5.5691849   -6.1474609  
H    3.4670919   -2.8838192   -7.5205991  
H    2.0198125   -3.2142818   -1.6928528  
H    4.2972345   -5.1414741   -1.2707660  
H    5.4358543   -5.5380537   -3.2664282  
H    5.4269805   -4.2431713   -8.2835100  
C    1.7704311   -2.0997828   -5.2515196  
C    1.5928577   -1.6333161   -6.5144339  
C    0.4607450   -0.7379004   -6.4771953  
C   -0.0100427   -0.7207974   -5.0790333  
N    0.8257125   -1.5670937   -4.3875237  
C   -1.0641734    0.0073898   -4.6315339  
C   -1.7831605    0.8289565   -5.5910241  
O   -2.7459477    1.5206786   -5.2862916  
C   -1.3021146    0.8259153   -7.0770899  
O   -1.8998129    1.5134388   -7.8939917  
C   -0.1528633    0.0000288   -7.4390073  
H    2.1870125   -1.8876235   -7.3740392  
H    0.1740146    0.0036602   -8.4699587  
H    0.7607707   -1.7654786   -3.4059568  
C    1.1319248    0.0015675   -0.8009270  
C    0.7969916    0.0034959   -2.1169404  
C   -0.6453336    0.0035703   -2.1842672  
C   -1.1266831    0.0015415   -0.7896027  
N    0.0000000    0.0000000    0.0000000  
C   -2.4346129    0.0013924   -0.4276297  
C   -3.4350110    0.0031352   -1.4820184  
O   -4.6384610    0.0030897   -1.2583919  
C   -2.9478958    0.0050460   -2.9661075  
O   -3.7809377    0.0062160   -3.8623775  
C   -1.5113821    0.0053068   -3.2312125  
H    1.4821240    0.0045436   -2.9459192  
H   -2.7664565    0.0000185    0.6013447  
H    2.1104318    0.0009428   -0.3488058  
C    2.3971438    2.0127888    3.1728260  
C    1.9431056    1.6308205    1.9564670  
C    0.8496017    0.7127664    2.2356185  
C    0.7794028    0.6545384    3.7115134  
N    1.6840587    1.4146091    4.2663826  
C   -0.1885723   -0.1578550    4.3957118  
C   -1.0476298   -0.8789867    3.6398520  
O   -2.0015663   -1.6796266    4.1448486  
C   -1.0022026   -0.8410666    2.1483229  
O   -1.8147390   -1.5232959    1.5241687  
C    0.0000000    0.0000000    1.4700000  
H    2.3054237    1.9346118    0.9892483  
H   -0.2170646   -0.1815267    5.4753125  
H   -2.4487139   -2.0549881    3.3649027  
H    3.2048689    2.6911772    3.3971983  
