66

C    4.2805096   -1.0448023   -8.9571073  
C    4.5323848   -0.6427567  -10.2483808  
C    4.2805957    0.7601254  -10.3042725  
C    3.8747739    1.1621964   -9.0059753  
N    3.8837075    0.0415857   -8.2130253  
C    3.5448189    2.4841250   -8.6922491  
C    3.6263109    3.4172177   -9.7075698  
O    3.3157129    4.7223068   -9.4560048  
C    4.0288288    3.0354169  -11.0095012  
O    4.0598191    4.0798117  -11.9104028  
C    4.3542240    1.7314344  -11.3197818  
H    4.8565384   -1.2821781  -11.0515362  
H    3.2346682    2.7969681   -7.7047594  
H    3.4370620    5.1972112  -10.2884738  
H    4.3412964    3.7368486  -12.7640712  
H    4.6589947    1.4688889  -12.3260936  
H    4.3511334   -2.0208097   -8.5083539  
C    5.6573111   -2.1473680   -4.7413590  
C    5.3913273   -1.6588958   -5.9995775  
C    4.2744195   -0.7801340   -5.8775348  
C    3.8987699   -0.7719569   -4.5097819  
N    4.7576801   -1.6141266   -3.8482379  
C    2.8310662   -0.0116220   -4.0232752  
C    2.1299947    0.7546478   -4.9340480  
O    1.0786366    1.5163391   -4.5127576  
C    2.4893424    0.7594366   -6.3028664  
O    1.6943743    1.5731552   -7.0833993  
C    3.5423736    0.0093841   -6.7835666  
H    5.9347035   -1.9064424   -6.8953777  
H    4.7417700   -1.8017169   -2.8620645  
H    0.7349588    1.9646893   -5.2964234  
H    2.0038823    1.5189562   -7.9927233  
H    6.4166733   -2.8350609   -4.4105910  
C    3.3041270    0.0001177   -1.5420434  
C    2.5845372   -0.0004781   -0.3695856  
C    1.2040006   -0.0000008   -0.7283592  
C    1.1422371    0.0006037   -2.1454375  
N    2.4348636    0.0026109   -2.6077467  
C   -0.0655183    0.0008798   -2.8497920  
C   -1.2321770    0.0002326   -2.1101400  
O   -2.4392818    0.0001147   -2.7472520  
C   -1.1911210   -0.0000007   -0.6955263  
O   -2.4371527   -0.0002320   -0.1032859  
C    0.0000000    0.0000000    0.0000000  
H    3.0031533   -0.0000660    0.6222577  
H   -0.1193553    0.0014844   -3.9297472  
H   -3.1132989   -0.0000648   -2.0551784  
H   -2.3200282   -0.0004069    0.8516410  
H    4.3686624    0.0004070   -1.7024294  
C    0.8576279    0.7185626    2.2703808  
C    0.0000000    0.0000000    1.4700000  
C   -0.8668858   -0.7285659    2.3373528  
C   -0.4876752   -0.4117774    3.6669281  
N    0.5635254    0.4678311    3.5902241  
C   -1.1297612   -0.9515493    4.7854808  
C   -2.1738724   -1.8268314    4.5576857  
O   -2.8357962   -2.3827064    5.6140350  
C   -2.5667212   -2.1555554    3.2384331  
O   -3.6226318   -3.0413663    3.1773122  
C   -1.9335634   -1.6236449    2.1344818  
H    1.0363952    0.8769718    4.3757045  
H   -0.8454472   -0.7142436    5.8013813  
H   -3.5178062   -2.9546422    5.2385129  
H   -3.8247440   -3.2102924    2.2519915  
H   -2.2566033   -1.8942483    1.1360343  
H    1.6567807    1.3889844    2.0042067  
