60

C    4.2355494   -2.1228030    3.1213130  
C    5.1053494   -1.6606106    2.1609520  
C    6.0118979   -0.7729839    2.8127871  
C    5.6432154   -0.7330047    4.1818741  
N    4.5599245   -1.5623309    4.3345730  
C    6.3224307    0.0433728    5.1256397  
C    7.3935275    0.7928132    4.6792434  
O    8.0921332    1.5684796    5.5586213  
C    7.7764346    0.7664277    3.3170745  
O    8.8624127    1.5671830    3.0293472  
C    7.1066610    0.0009523    2.3854224  
H    5.0878315   -1.9292239    1.1185827  
H    4.0854779   -1.7438221    5.2005654  
H    6.0463282    0.0783006    6.1705075  
H    8.7880870    2.0016390    5.0474601  
H    9.0553902    1.4918917    2.0898288  
H    3.4085570   -2.8068063    3.0365691  
C    4.7390840    0.0009613   -1.2727298  
C    5.6949931    0.0015506   -2.2307576  
C    6.9549534    0.0016801   -1.5034347  
C    6.5623380    0.0012139   -0.0777990  
N    5.2646567    0.0007106    0.0636644  
C    7.5356720    0.0011400    0.9794176  
C    8.8418533    0.0011261    0.6283828  
O    9.8560149    0.0010676    1.5101523  
C    9.2698380    0.0012197   -0.8016485  
O   10.4759225    0.0013251   -1.0477805  
C    8.2523630    0.0013382   -1.8677951  
H    5.5615837    0.0017690   -3.2990633  
H   10.6613103    0.0010471    0.9618351  
H    8.6033668    0.0012881   -2.8910384  
C    3.2798077    0.0005856   -1.4499661  
C    2.5571132    0.0005565   -2.5996564  
C    1.1637425    0.0001547   -2.2210366  
C    1.1336959   -0.0000200   -0.7459475  
N    2.4483509   -0.0001429   -0.3402730  
C    0.0000000    0.0000000    0.0000000  
C   -1.2757370   -0.0000187   -0.6964411  
O   -2.3524597   -0.0000640   -0.1142306  
C   -1.2676502   -0.0000874   -2.2584078  
O   -2.3355774   -0.0004102   -2.8557287  
C    0.0181551    0.0001758   -2.9516297  
H    2.9547342    0.0006074   -3.5989118  
H    0.0150776    0.0003317   -4.0331632  
H    2.7563626    0.0012823    0.6148051  
C    2.5128556    2.1077716    2.9199648  
C    1.9592212    1.6432552    4.0696553  
C    0.8915788    0.7479214    3.6910360  
C    0.8684491    0.7287414    2.2159470  
N    1.8754542    1.5738793    1.8102719  
C    0.0000000    0.0000000    1.4700000  
C   -0.9772830   -0.8200135    2.1664417  
O   -1.8021297   -1.5120829    1.5842315  
C   -0.9711318   -0.8147624    3.7284083  
O   -1.7894187   -1.5009653    4.3257297  
C    0.0140216    0.0115358    4.4216297  
H    2.2638494    1.8988021    5.0689105  
H    0.0117648    0.0094386    5.5031631  
H    3.3327358    2.7953732    2.7900019  
H    2.1123206    1.7707734    0.8551938  
