62

C    3.3041271    0.0001181   -1.5420437  
C    2.5845371   -0.0004776   -0.3695862  
C    1.2040005   -0.0000005   -0.7283593  
C    1.1422370    0.0006041   -2.1454376  
N    2.4348637    0.0026117   -2.6077472  
C   -0.0655185    0.0008803   -2.8497919  
C   -1.2321770    0.0002328   -2.1101399  
O   -2.4392817    0.0001152   -2.7472520  
C   -1.1911210   -0.0000005   -0.6955265  
O   -2.4371527   -0.0002321   -0.1032863  
C    0.0000000    0.0000000    0.0000000  
H    3.0031537   -0.0000659    0.6222573  
H    2.7054627   -0.0071092   -3.5745266  
H   -3.1132989   -0.0000648   -2.0551787  
H   -2.3200280   -0.0004074    0.8516410  
H    4.3686617    0.0004076   -1.7024302  
C    2.2805259   -2.0884661   -5.9525551  
C    1.7869808   -1.6272468   -4.7745209  
C    0.7005260   -0.7318372   -5.0949775  
C    0.6008349   -0.7090642   -6.5668244  
N    1.5865170   -1.5517692   -7.0263555  
C   -0.3061627    0.0202033   -7.2648422  
C   -1.2468145    0.8373785   -6.5165544  
O   -2.1016174    1.5297590   -7.0534175  
C   -1.1592606    0.8286880   -4.9570472  
O   -1.9457428    1.5129533   -4.3163538  
C   -0.1387088    0.0017024   -4.3179686  
H    2.1434560   -1.8847448   -3.7930760  
H   -0.3624485    0.0226623   -8.3445351  
H    1.7717475   -1.7483659   -7.9928371  
C    3.3885277   -3.0248887   -6.1899273  
C    4.1852281   -3.6545647   -5.2883448  
C    5.1152822   -4.4630664   -6.0407804  
C    4.7928233   -4.2512601   -7.4648415  
N    3.7369124   -3.3695303   -7.4870741  
C    5.4475589   -4.8403513   -8.4973124  
C    6.5427963   -5.7434265   -8.1851522  
O    7.1940574   -6.3227038   -9.0445708  
C    6.9014337   -5.9826747   -6.6838377  
O    7.8214106   -6.7411200   -6.4087681  
C    6.1233656   -5.2904316   -5.6595033  
H    4.1278065   -3.5632439   -4.2183087  
H    5.1951956   -4.6713012   -9.5349272  
H    6.3781654   -5.4613358   -4.6223953  
H    3.2897062   -3.0273593   -8.3177202  
C    2.5311839    2.1237619    3.0120429  
C    1.9795631    1.6616747    1.8395852  
C    0.9223175    0.7739173    2.1983588  
C    0.8753926    0.7337535    3.6154372  
N    1.8668922    1.5631002    4.0777464  
C   -0.0496243   -0.0427881    4.3197917  
C   -0.9437528   -0.7922060    3.5801400  
O   -1.8685244   -1.5680278    4.2172520  
C   -0.9124520   -0.7656372    2.1655264  
O   -1.8671164   -1.5663939    1.5732860  
C    0.0000000    0.0000000    1.4700000  
H    2.3005065    1.9304404    0.8477417  
H    2.0679347    1.7444845    5.0445261  
H   -0.0904770   -0.0778569    5.3997470  
H   -2.3849669   -2.0011402    3.5251786  
H   -1.7775064   -1.4909735    0.6183591  
H    3.3468514    2.8078103    3.1724291  
