66

C   -0.4691887    0.0990878   -8.6244976  
C    0.2535239   -0.5485086   -9.5995734  
C   -0.2891524   -0.1467560  -10.8560353  
C   -1.3495666    0.7546444  -10.5823104  
N   -1.4331502    0.8801839   -9.2178075  
C   -2.1129122    1.3525699  -11.5895736  
C   -1.7998800    1.0349821  -12.8969862  
O   -2.5131305    1.5907048  -13.9194632  
C   -0.7456835    0.1374893  -13.1902303  
O   -0.5578315   -0.0773124  -14.5400141  
C    0.0076187   -0.4529607  -12.1970382  
H    1.0705500   -1.2278533   -9.4265056  
H   -2.0873084    1.4630868   -8.7276213  
H   -2.9225050    2.0402786  -11.3875368  
H   -2.1366786    1.2400496  -14.7371367  
H    0.1717576   -0.6945307  -14.6511234  
H    0.8088083   -1.1366609  -12.4522386  
C    2.3136486   -2.1180443   -5.9171369  
C    1.6624056   -1.6181592   -7.0209780  
C    0.6419641   -0.7441443   -6.5420234  
C    0.7194929   -0.7504913   -5.1257342  
N    1.7437760   -1.5963708   -4.7793978  
C   -0.1387079    0.0017019   -4.3179684  
C   -1.0923525    0.7746131   -4.9514883  
O   -1.9557351    1.5288505   -4.2107386  
C   -1.1856783    0.7938844   -6.3634860  
O   -2.1870610    1.6126762   -6.8432319  
C   -0.3395499    0.0518702   -7.1609864  
H    1.8935978   -1.8552464   -8.0453476  
H    2.0414324   -1.7936221   -3.8410621  
H   -2.5301602    1.9837419   -4.8403212  
H   -2.1819310    1.5683238   -7.8042785  
H    3.1386337   -2.8065408   -5.8513307  
C    3.3041273    0.0001178   -1.5420428  
C    2.5845373   -0.0004780   -0.3695851  
C    1.2040007   -0.0000007   -0.7283589  
C    1.1422374    0.0006038   -2.1454372  
N    2.4348641    0.0026111   -2.6077464  
C   -0.0655179    0.0008799   -2.8497918  
C   -1.2321766    0.0002325   -2.1101402  
O   -2.4392814    0.0001148   -2.7472522  
C   -1.1911209   -0.0000007   -0.6955266  
O   -2.4371528   -0.0002320   -0.1032862  
C    0.0000000    0.0000000    0.0000000  
H    3.0031533   -0.0000660    0.6222584  
H    2.7054631   -0.0071097   -3.5745261  
H   -3.1132988   -0.0000648   -2.0551787  
H   -2.3200282   -0.0004072    0.8516409  
H    4.3686625    0.0004073   -1.7024290  
C    2.5285572    2.1210227    2.9438989  
C    1.9331703    1.6216660    4.0790748  
C    0.8903039    0.7472258    3.6520102  
C    0.8972198    0.7527806    2.2336141  
N    1.9028376    1.5986179    1.8362361  
C    0.0000000    0.0000000    1.4700000  
C   -0.9207814   -0.7726952    2.1506477  
O   -1.8198395   -1.5274828    1.4542253  
C   -0.9436862   -0.7911793    3.5655508  
O   -1.9197945   -1.6098497    4.0950179  
C   -0.0590329   -0.0485852    4.3195194  
H    2.2150357    1.8593692    5.0905303  
H    2.1533708    1.7953814    0.8841339  
H   -2.3621246   -1.9821033    2.1118817  
H   -1.8668290   -1.5649508    5.0545920  
H   -0.1007624   -0.0827977    5.4019087  
H    3.3491200    2.8096064    2.8367138  
