64

C    3.7987072   -3.6357482    0.4625232  
C    4.6933491   -3.0387594   -0.3951994  
C    5.9920179   -3.5036794   -0.0320073  
C    5.8257098   -4.3896833    1.0631024  
N    4.4820866   -4.4456932    1.3390672  
C    6.8992693   -5.0377917    1.6813374  
C    8.1637204   -4.7871498    1.1848300  
O    9.2473745   -5.3938978    1.7510113  
C    8.3500105   -3.9060385    0.0931541  
O    9.6688525   -3.7601647   -0.2846286  
C    7.2914037   -3.2661076   -0.5170649  
H    4.0604415   -5.0027343    2.0601095  
H    6.7791867   -5.7140985    2.5164364  
H   10.0203262   -5.0853634    1.2604845  
H    9.7067766   -3.1496118   -1.0271853  
H    7.4650332   -2.5965029   -1.3513069  
H    2.7273445   -3.5467751    0.5193075  
C    4.3489003   -2.1006738   -1.4732768  
C    3.1285974   -1.6364578   -1.8466932  
C    3.3412599   -0.7405808   -2.9589047  
C    4.7959153   -0.7207993   -3.2046241  
N    5.3494458   -1.5655063   -2.2702989  
C    5.4017633    0.0079523   -4.1760004  
C    4.5653390    0.8276900   -5.0367904  
O    5.0159492    1.5198389   -5.9402175  
C    3.0222816    0.8221878   -4.7944084  
O    2.3079739    1.5086269   -5.5126188  
C    2.4861704   -0.0045255   -3.7159919  
H    2.1869569   -1.8922660   -1.3944885  
H    6.4704902    0.0081996   -4.3395029  
H    6.3291330   -1.7643306   -2.1823805  
C    0.0000000    0.0000000    0.0000000  
C    1.0521669   -0.0011848   -0.8862341  
C    0.4917221   -0.0011931   -2.1979130  
C   -0.9187427    0.0003100   -2.0478683  
N   -1.1833170   -0.0009472   -0.7007915  
C   -1.7951698    0.0010259   -3.1372090  
C   -1.2375835    0.0005161   -4.4010425  
O   -2.0474208    0.0015256   -5.4997580  
C    0.1673584   -0.0013557   -4.5711962  
O    0.5673529   -0.0020659   -5.8915551  
C    1.0325773   -0.0023359   -3.4969890  
H    2.0953059   -0.0030542   -0.6200560  
H   -2.0989777    0.0102265   -0.2891825  
H   -2.8710930    0.0020274   -3.0295514  
H   -1.4634881    0.0006427   -6.2693593  
H    1.5290715   -0.0033076   -5.9180042  
C    1.1188642   -0.0008217    2.2703808  
C    0.0000000    0.0000000    1.4700000  
C   -1.1323862   -0.0008904    2.3373528  
C   -0.6382662   -0.0019682    3.6669281  
N    0.7324016   -0.0038477    3.5902241  
C   -1.4770914   -0.0027325    4.7854808  
C   -2.8395474   -0.0020958    4.5576857  
O   -3.7039201   -0.0024443    5.6140350  
C   -3.3517868   -0.0013946    3.2384331  
O   -4.7300496   -0.0012389    3.1773122  
C   -2.5248543   -0.0009135    2.1344818  
H    1.3576314    0.0056174    4.3757045  
H   -1.1067570   -0.0036993    5.8013813  
H   -4.5940033   -0.0021850    5.2385129  
H   -4.9934601   -0.0007286    2.2519915  
H   -2.9462578   -0.0005617    1.1360343  
H    2.1619896   -0.0009344    2.0042067  
