64

C   -0.9836065    0.5332696   -0.8003809  
C    0.0000000    0.0000000    0.0000000  
C    0.9946722   -0.5412269   -0.8673524  
C    0.5599444   -0.3063491   -2.1969278  
N   -0.6454422    0.3461666   -2.1202241  
C    1.2967070   -0.7073601   -3.3154807  
C    2.4942843   -1.3570490   -3.0876857  
O    3.2536947   -1.7698871   -4.1440344  
C    2.9447547   -1.6009054   -1.7684324  
O    4.1559932   -2.2585610   -1.7073116  
C    2.2183079   -1.2058192   -0.6644815  
H    0.9708103   -0.5314628   -4.3313808  
H    4.0359892   -2.1944620   -3.7685123  
H    4.3877111   -2.3838282   -0.7819908  
H    2.5887888   -1.4066302    0.3339659  
H   -1.9003181    1.0310143   -0.5342071  
C   -3.0642315    3.9631418   -3.0853096  
C   -2.2724341    3.0894118   -2.4210561  
C   -2.1060538    1.9670064   -3.3315631  
C   -2.8863484    2.3409839   -4.5306729  
N   -3.4502236    3.5101109   -4.3921944  
C   -2.9761687    1.4811956   -5.6786203  
C   -2.3161483    0.3016033   -5.6309823  
O   -2.3128035   -0.5974551   -6.6298437  
C   -1.5199333   -0.1040792   -4.4353132  
O   -0.9449942   -1.1921930   -4.4612749  
C   -1.4432823    0.7952503   -3.2703001  
H   -1.8529941    3.1937323   -1.4350221  
H   -3.5537184    1.7797644   -6.5412921  
H   -1.7594800   -1.3295291   -6.3026528  
C   -3.2735865    5.8480135   -1.4090291  
C   -3.5501343    5.2728789   -2.6277203  
C   -4.3858794    6.1845720   -3.3383154  
C   -4.5869757    7.3079429   -2.4959823  
N   -3.8994396    7.0701790   -1.3317746  
C   -5.3635036    8.4073945   -2.8741328  
C   -5.9474196    8.3723037   -4.1255276  
O   -6.7154200    9.4196576   -4.5453339  
C   -5.7588142    7.2601942   -4.9801963  
O   -6.4058668    7.3753399   -6.1932123  
C   -4.9931005    6.1750910   -4.6076917  
H   -3.8486605    7.6972536   -0.5493555  
H   -5.5207656    9.2665630   -2.2367158  
H   -7.0220787    9.1946756   -5.4333701  
H   -6.2271409    6.5835243   -6.7096314  
H   -4.8668346    5.3374855   -5.2836752  
H   -2.6805928    5.4824979   -0.5882266  
C    0.8576279    0.7185626    2.2703808  
C    0.0000000    0.0000000    1.4700000  
C   -0.8668858   -0.7285659    2.3373528  
C   -0.4876752   -0.4117774    3.6669281  
N    0.5635254    0.4678311    3.5902241  
C   -1.1297612   -0.9515493    4.7854808  
C   -2.1738724   -1.8268314    4.5576857  
O   -2.8357962   -2.3827064    5.6140350  
C   -2.5667212   -2.1555554    3.2384331  
O   -3.6226318   -3.0413663    3.1773122  
C   -1.9335634   -1.6236449    2.1344818  
H    1.0363952    0.8769718    4.3757045  
H   -0.8454472   -0.7142436    5.8013813  
H   -3.5178062   -2.9546422    5.2385129  
H   -3.8247440   -3.2102924    2.2519915  
H   -2.2566033   -1.8942483    1.1360343  
H    1.6567807    1.3889844    2.0042067  
