64

C    0.6936372   -0.7066098   -5.1527421  
C    0.3462083   -0.4553046   -6.4598787  
C   -0.7528342    0.4534776   -6.4312306  
C   -1.0341482    0.7235432   -5.0674658  
N   -0.1387070    0.0017013   -4.3179684  
C   -2.0601479    1.5827598   -4.6626690  
C   -2.8157351    2.1804671   -5.6526247  
O   -3.8298697    3.0285541   -5.3130773  
C   -2.5506555    1.9232734   -7.0187878  
O   -3.3906528    2.5937316   -7.8837928  
C   -1.5388163    1.0755371   -7.4188522  
H   -2.2797240    1.7926340   -3.6249113  
H   -4.2227231    3.3302832   -6.1424691  
H   -3.1443855    2.3650593   -8.7852724  
H   -1.3595338    0.8977364   -8.4727604  
H    1.4683932   -1.3361784   -4.7498089  
C    3.3041277    0.0001175   -1.5420422  
C    2.5845373   -0.0004777   -0.3695845  
C    1.2040010   -0.0000009   -0.7283586  
C    1.1422380    0.0006035   -2.1454370  
N    2.4348647    0.0026109   -2.6077458  
C   -0.0655174    0.0008795   -2.8497917  
C   -1.2321761    0.0002322   -2.1101407  
O   -2.4392807    0.0001143   -2.7472526  
C   -1.1911206   -0.0000008   -0.6955265  
O   -2.4371526   -0.0002321   -0.1032868  
C    0.0000000    0.0000000    0.0000000  
H    3.0031533   -0.0000657    0.6222591  
H    2.7054639   -0.0071099   -3.5745255  
H   -3.1132983   -0.0000652   -2.0551796  
H   -2.3200280   -0.0004072    0.8516408  
H    4.3686629    0.0004073   -1.7024280  
C    1.4428749   -2.3275155   -7.7531632  
C    2.0162242   -2.5090292   -8.9904147  
C    1.9248432   -1.2629272   -9.6785130  
C    1.2810446   -0.3506629   -8.8037427  
N    1.0002456   -1.0299874   -7.6443086  
C    1.0230752    0.9782865   -9.1532204  
C    1.4225620    1.3939640  -10.4085289  
O    1.1955873    2.6814190  -10.8008994  
C    2.0659983    0.4985084  -11.2956418  
O    2.4020436    1.0632481  -12.5086900  
C    2.3205698   -0.8127442  -10.9516426  
H    2.4463154   -3.4269836   -9.3528698  
H    0.5326652    1.6785173   -8.4911204  
H    1.5469993    2.7596319  -11.6973685  
H    2.8316961    0.3922773  -13.0479489  
H    2.8150030   -1.4754044  -11.6522820  
H    1.3133647   -3.0213343   -6.9402661  
C    0.0000000    0.0000000    1.4700000  
C    1.0541688    0.0001722    2.3260392  
C    0.5103138    0.0000454    3.6635956  
C   -0.9576371   -0.0002459    3.5155732  
N   -1.2018458    0.0001392    2.1615969  
C   -1.8348311   -0.0008317    4.5510609  
C   -1.2972847   -0.0009736    5.9014604  
O   -2.0050672   -0.0014265    6.9001319  
C    0.2542623   -0.0004184    6.0817573  
O    0.7184670   -0.0002256    7.2139121  
C    1.0974552   -0.0000873    4.8889129  
H    2.0940752    0.0005483    2.0517982  
H   -2.9081052   -0.0011668    4.4207061  
H    2.1707277    0.0000911    5.0223670  
H   -2.1128194   -0.0014912    1.7406791  
