62

C    6.5860086   -0.0008870    1.4009375  
C    7.6166236   -0.0011135    0.4897300  
C    7.0248897   -0.0012667   -0.8081339  
C    5.6184275   -0.0008356   -0.6243128  
N    5.3862300   -0.0025642    0.7287201  
C    4.7161324   -0.0005436   -1.6923263  
C    5.2432558   -0.0003826   -2.9691656  
O    4.4073059    0.0002540   -4.0481475  
C    6.6437146   -0.0011825   -3.1729575  
O    7.0119354   -0.0013267   -4.5025276  
C    7.5344423   -0.0017440   -2.1198051  
H    8.6658465   -0.0022673    0.7308197  
H    4.4806936    0.0078491    1.1621678  
H    4.9726184   -0.0000404   -4.8315290  
H    7.9727441   -0.0018529   -4.5520289  
H    8.6019008   -0.0025340   -2.3069101  
H    6.6118211   -0.0011076    2.4771772  
C    3.2573666   -0.0002920   -1.5109384  
C    2.5379463   -0.0001710   -0.3591964  
C    1.1435039    0.0000331   -0.7338498  
C    1.1092600   -0.0000083   -2.2088476  
N    2.4227554    0.0001909   -2.6182613  
C   -0.0265538   -0.0002524   -2.9515660  
C   -1.3003040   -0.0002640   -2.2514976  
O   -2.3786789   -0.0004133   -2.8306420  
C   -1.2877727    0.0000311   -0.6895603  
O   -2.3539960    0.0003306   -0.0892032  
C    0.0000000    0.0000000    0.0000000  
H    2.9384090   -0.0000368    0.6389236  
H    2.7280484   -0.0013407   -3.5742118  
C    0.8351665   -0.7268793   -5.2248488  
C    0.5760667   -0.5103271   -6.5401615  
C   -0.5290519    0.4167175   -6.6044785  
C   -0.8951521    0.7247331   -5.2088109  
N   -0.0307367   -0.0004647   -4.4215603  
C   -1.8962314    1.5652910   -4.8441090  
C   -2.6645229    2.2094397   -5.8964091  
O   -3.5858868    2.9829069   -5.6702716  
C   -2.2943358    1.8976154   -7.3815124  
O   -2.9343332    2.4337868   -8.2760426  
C   -1.1944003    0.9745148   -7.6496152  
H    1.0992654   -0.9499858   -7.3705696  
H   -2.1484137    1.7776663   -3.8144438  
H   -0.9442756    0.7640694   -8.6805737  
H    1.5856920   -1.3561889   -4.7747709  
C    2.5285572    2.1210227    2.9438989  
C    1.9331703    1.6216660    4.0790748  
C    0.8903039    0.7472258    3.6520102  
C    0.8972198    0.7527806    2.2336141  
N    1.9028376    1.5986179    1.8362361  
C    0.0000000    0.0000000    1.4700000  
C   -0.9207814   -0.7726952    2.1506477  
O   -1.8198395   -1.5274828    1.4542253  
C   -0.9436862   -0.7911793    3.5655508  
O   -1.9197945   -1.6098497    4.0950179  
C   -0.0590329   -0.0485852    4.3195194  
H    2.2150357    1.8593692    5.0905303  
H    2.1533708    1.7953814    0.8841339  
H   -2.3621246   -1.9821033    2.1118817  
H   -1.8668290   -1.5649508    5.0545920  
H   -0.1007624   -0.0827977    5.4019087  
H    3.3491200    2.8096064    2.8367138  
