60

C    5.9083926   -1.1080646   -3.0964865  
C    6.1404496   -1.9929395   -2.0690563  
C    7.5432001   -2.2509124   -2.0505819  
C    8.1203662   -1.4888826   -3.0984922  
N    7.0997448   -0.8082178   -3.7146457  
C    9.4909673   -1.4987330   -3.3744339  
C   10.2935838   -2.2920690   -2.5778145  
O   11.6389452   -2.3385517   -2.8033275  
C    9.7363392   -3.0598581   -1.5276742  
O   10.6661123   -3.7982798   -0.8251090  
C    8.3842587   -3.0508351   -1.2550516  
H    5.3907495   -2.4029968   -1.4142319  
H    7.2069089   -0.1773221   -4.4882523  
H    9.9370365   -0.9203343   -4.1717289  
H   12.0053957   -2.9433031   -2.1451064  
H   10.2076299   -4.2870378   -0.1348090  
H    7.9862904   -3.6495591   -0.4441091  
C    3.4164198   -0.7248700   -3.0395971  
C    4.6504340   -0.5074365   -3.5630537  
C    4.4860925    0.4201609   -4.6573073  
C    3.0448512    0.7275403   -4.7289398  
N    2.4521483    0.0014840   -3.7217481  
C    2.4820252    1.5683543   -5.6333529  
C    3.3539029    2.2134706   -6.6009225  
O    2.9430855    2.9872366   -7.4557999  
C    4.8835164    1.9023314   -6.5436505  
O    5.6273706    2.4393195   -7.3533345  
C    5.3721319    0.9788730   -5.5227047  
H    1.4224211    1.7802520   -5.6686794  
H    6.4325781    0.7689071   -5.4896562  
H    3.1302853   -1.3547903   -2.2130277  
C    0.0000000    0.0000000    0.0000000  
C    1.0662923   -0.0000101   -0.8334270  
C    0.4961873    0.0000065   -2.1718887  
C   -0.9663854   -0.0000848   -1.9540250  
N   -1.2632773   -0.0000083   -0.6828660  
C   -1.8985359   -0.0000514   -3.0477261  
C   -1.3925770    0.0004566   -4.3020547  
O   -2.1456378    0.0005414   -5.4151314  
C    0.0786240    0.0009326   -4.5545000  
O    0.4683767    0.0012591   -5.7221100  
C    1.0143171    0.0008444   -3.4159031  
H    2.1107200    0.0000633   -0.5721865  
H   -2.9622181   -0.0003268   -2.8593381  
H   -1.5042265    0.0009697   -6.1484419  
C    3.2798086   -0.0005857    2.9199648  
C    2.5571146   -0.0005566    4.0696553  
C    1.1637436   -0.0001548    3.6910360  
C    1.1336965    0.0000200    2.2159470  
N    2.4483514    0.0001428    1.8102719  
C    0.0000000    0.0000000    1.4700000  
C   -1.2757367    0.0000186    2.1664417  
O   -2.3524596    0.0000640    1.5842315  
C   -1.2676493    0.0000873    3.7284083  
O   -2.3355761    0.0004100    4.3257297  
C    0.0181563   -0.0001760    4.4216297  
H    2.9547357   -0.0006076    5.0689105  
H    0.0150794   -0.0003319    5.5031631  
H    4.3498549   -0.0008612    2.7900019  
H    2.7563627   -0.0012824    0.8551938  
