60

C   -7.6843695   -0.1873501   -2.5996747  
C   -8.5050124    0.4702384   -1.7127750  
C   -9.8433101    0.0819374   -2.0173739  
C   -9.7763304   -0.8219325   -3.1084556  
N   -8.4511412   -0.9618176   -3.4384898  
C  -10.9117551   -1.4089458   -3.6750375  
C  -12.1370941   -1.0777042   -3.1300589  
O  -13.2779324   -1.6223736   -3.6446810  
C  -12.2244390   -0.1775334   -2.0415367  
O  -13.5152690    0.0514177   -1.6117881  
C  -11.1047533    0.4021563   -1.4822616  
H   -8.1792289    1.1474397   -0.9418944  
H   -8.0941458   -1.5496292   -4.1699356  
H  -10.8674403   -2.0984668   -4.5067825  
H  -14.0098458   -1.2632497   -3.1264173  
H  -13.4854536    0.6695214   -0.8751319  
H  -11.2029117    1.0882323   -0.6491092  
C   -4.6947977    2.0138969   -0.3183444  
C   -3.5421867    1.6316856   -0.9158235  
C   -3.9514600    0.7140407   -1.9679277  
C   -5.4250718    0.6562912   -1.8596817  
N   -5.8665584    1.4162668   -0.8945308  
C   -6.2212660   -0.1556044   -2.7383096  
C   -5.5747443   -0.8767168   -3.6824179  
O   -6.1913470   -1.6769186   -4.5687131  
C   -4.0886055   -0.8392725   -3.8171449  
O   -3.5672058   -1.5214556   -4.6991824  
C   -3.2941076    0.0012878   -2.9038237  
H   -2.5382353    1.9350698   -0.6726880  
H   -5.4711316   -2.0523898   -5.1067319  
H   -4.8199134    2.6921162    0.5107138  
C    0.0000000    0.0000000    0.0000000  
C    1.0541688   -0.0001723   -0.8560392  
C    0.5103136   -0.0000455   -2.1935956  
C   -0.9576373    0.0002461   -2.0455730  
N   -1.2018460   -0.0001389   -0.6915968  
C   -1.8348314    0.0008319   -3.0810607  
C   -1.2972851    0.0009739   -4.4314603  
O   -2.0050676    0.0014268   -5.4301316  
C    0.2542619    0.0004184   -4.6117572  
O    0.7184666    0.0002257   -5.7439122  
C    1.0974551    0.0000873   -3.4189129  
H    2.0940752   -0.0005484   -0.5817983  
H    2.1707276   -0.0000912   -3.5523673  
H   -2.1128194    0.0014915   -0.2706789  
C    3.2798086   -0.0005857    2.9199648  
C    2.5571146   -0.0005566    4.0696553  
C    1.1637436   -0.0001548    3.6910360  
C    1.1336965    0.0000200    2.2159470  
N    2.4483514    0.0001428    1.8102719  
C    0.0000000    0.0000000    1.4700000  
C   -1.2757367    0.0000186    2.1664417  
O   -2.3524596    0.0000640    1.5842315  
C   -1.2676493    0.0000873    3.7284083  
O   -2.3355761    0.0004100    4.3257297  
C    0.0181563   -0.0001760    4.4216297  
H    2.9547357   -0.0006076    5.0689105  
H    0.0150794   -0.0003319    5.5031631  
H    4.3498549   -0.0008612    2.7900019  
H    2.7563627   -0.0012824    0.8551938  
