60

C    2.1798970   -2.1221809   -5.9542190  
C    1.5460057   -1.6229255   -7.0683970  
C    0.5185219   -0.7482587   -6.6059737  
C    0.5740707   -0.7535768   -5.1886487  
N    1.5926027   -1.5994973   -4.8258413  
C   -0.2963289   -0.0005348   -4.3948470  
C   -1.2397980    0.7721833   -5.0436536  
O   -2.1143387    1.5272212   -4.3169418  
C   -1.3112050    0.7904336   -6.4569421  
O   -2.3047778    1.6091607   -6.9527676  
C   -0.4530321    0.0475817   -7.2406747  
H    1.7929880   -1.8608404   -8.0888820  
H    1.8756085   -1.7961384   -3.8828561  
H   -2.6787915    1.9818125   -4.9556942  
H   -2.2847545    1.5640932   -7.9135863  
H   -0.5318481    0.0816191   -8.3210022  
H    3.0035535   -2.8108683   -5.8751157  
C    3.1301148   -0.0010315   -1.7028253  
C    2.5367766   -0.0002767   -0.4864666  
C    1.1089903    0.0001025   -0.7656183  
C    1.0177867   -0.0004153   -2.2415131  
N    2.1993574   -0.0011616   -2.7963821  
C   -0.2459218   -0.0002884   -2.9257117  
C   -1.3675324   -0.0000610   -2.1698519  
O   -2.6129318    0.0000862   -2.6748483  
C   -1.3083588    0.0000908   -0.6783229  
O   -2.3693264    0.0004202   -0.0541688  
C    0.0000000    0.0000000    0.0000000  
H    3.0096015   -0.0001006    0.4807520  
H   -3.1967441    0.0002093   -1.8949029  
C    5.6039774   -0.0017522   -1.1379130  
C    4.5679459   -0.0016858   -2.0086704  
C    5.1852099   -0.0025566   -3.3260481  
C    6.6391261   -0.0029696   -3.0563966  
N    6.8907015   -0.0025818   -1.7754988  
C    7.6095171   -0.0038936   -4.1163145  
C    7.1484094   -0.0047718   -5.3878147  
O    7.9405118   -0.0056820   -6.4734544  
C    5.6870980   -0.0047557   -5.6923321  
O    5.3390440   -0.0054603   -6.8730428  
C    4.7115721   -0.0037546   -4.5876729  
H    8.6658404   -0.0039713   -3.8902820  
H    7.3255396   -0.0061836   -7.2290739  
H    3.6621307   -0.0038915   -4.8501668  
H    5.5656909   -0.0012540   -0.0601804  
C    0.8400945    0.7047457    2.2710304  
C    0.0000000    0.0000000    1.4700000  
C   -0.8844236   -0.7423113    2.3369512  
C   -0.4878984   -0.4098547    3.7186280  
N    0.5629682    0.4714286    3.6095011  
C   -1.0836927   -0.9095027    4.8308716  
C   -2.1891196   -1.8367527    4.6554461  
O   -2.7906899   -2.3413415    5.5944904  
C   -2.6257283   -2.2031529    3.2011665  
O   -3.5549479   -2.9829990    3.0410059  
C   -1.9068976   -1.5999348    2.0816745  
H   -0.7774656   -0.6525820    5.8354244  
H   -2.2155208   -1.8586617    1.0779135  
H    1.6384792    1.3747609    1.9961646  
H    1.0518368    0.8833920    4.3830260  
