62

C    5.0097437   -1.1138029   -8.8271529  
C    4.5514026   -0.0133213   -8.1406172  
C    4.6603225    1.1025935   -9.0223600  
C    5.1957923    0.6177826  -10.2430792  
N    5.3980805   -0.7313664  -10.0898030  
C    5.4386829    1.4449447  -11.3438050  
C    5.1352126    2.7858951  -11.2098829  
O    5.3523113    3.6380670  -12.2537618  
C    4.6006100    3.2886212   -9.9998071  
O    4.3517282    4.6453989  -10.0233640  
C    4.3609871    2.4732333   -8.9134140  
H    5.7601935   -1.3476959  -10.7947805  
H    5.8467644    1.0816363  -12.2769072  
H    5.0770017    4.5138803  -11.9530641  
H    3.9925967    4.9036218   -9.1689936  
H    3.9509732    2.8869446   -7.9995165  
H    5.0917103   -2.1410098   -8.5155659  
C    5.8841830   -2.1091710   -4.4899266  
C    5.7577999   -1.6457874   -5.7601149  
C    4.6250714   -0.7504404   -5.7708525  
C    4.0981360   -0.7300181   -4.3929152  
N    4.9052813   -1.5745223   -3.6661288  
C    3.0267438   -0.0008951   -3.9901699  
C    2.3471070    0.8182472   -4.9799347  
O    1.3727581    1.5105721   -4.7160578  
C    2.8878460    0.8116753   -6.4453235  
O    2.3236393    1.4971367   -7.2873889  
C    4.0508243   -0.0149263   -6.7584743  
H    6.3862355   -1.9020926   -6.5943749  
H    6.6099530   -2.7964262   -4.0864073  
H    4.8007128   -1.7705398   -2.6875124  
C    3.3003547    0.0005277   -1.4738986  
C    2.5232816    0.0003497   -2.6090746  
C    1.1623203   -0.0001319   -2.1820102  
C    1.1711884    0.0000584   -0.7636141  
N    2.4852301   -0.0014919   -0.3662359  
C    0.0000000    0.0000000    0.0000000  
C   -1.2020383    0.0000520   -0.6806479  
O   -2.3759248    0.0003493    0.0157745  
C   -1.2314655   -0.0005115   -2.0955511  
O   -2.5054388   -0.0008040   -2.6250184  
C   -0.0764513   -0.0007274   -2.8495195  
H    2.8036266    0.0088183    0.5858662  
H   -3.0835639    0.0000346   -0.6418822  
H   -2.4360043   -0.0011529   -3.5845924  
H   -0.1304091   -0.0013423   -3.9319089  
H    4.3715553    0.0004897   -1.3667133  
C    2.4951002    2.0940188    2.9809380  
C    1.9440701    1.6314916    1.8291961  
C    0.8759964    0.7350050    2.2038498  
C    0.8497377    0.7130254    3.6788474  
N    1.8560616    1.5571714    4.0882609  
C   -0.0205033   -0.0168748    4.4215661  
C   -0.9962600   -0.8356168    3.7214979  
O   -1.8224391   -1.5286685    4.3006425  
C   -0.9864710   -0.8277881    2.1595606  
O   -1.8030528   -1.5133726    1.5592035  
C    0.0000000    0.0000000    1.4700000  
H    2.2509283    1.8888011    0.8310761  
H   -0.0229599   -0.0187323    5.5027230  
H    3.3143982    2.7817323    3.1139444  
H    2.0889452    1.7545833    5.0442112  
