62

C    5.5836005   -0.0003155   -1.0808165  
C    4.5679461   -0.0016852   -2.0086700  
C    5.1807163   -0.0020959   -3.2967355  
C    6.5840017   -0.0012106   -3.0900577  
N    6.7941554    0.0018109   -1.7334282  
C    7.5035526   -0.0016219   -4.1432504  
C    6.9972724   -0.0032584   -5.4284959  
O    7.8506655   -0.0040785   -6.4937341  
C    5.6003141   -0.0037866   -5.6550441  
O    5.2537722   -0.0050289   -6.9904278  
C    4.6925710   -0.0031080   -4.6165223  
H    7.6925277   -0.0074985   -1.2852979  
H    8.5742727   -0.0008079   -3.9923869  
H    7.2981730   -0.0048901   -7.2862088  
H    4.2938960   -0.0053403   -7.0555537  
H    3.6282969   -0.0033561   -4.8209686  
H    5.5402817    0.0007588   -0.0051399  
C    3.1301152   -0.0010311   -1.7028251  
C    2.5367770   -0.0002766   -0.4864665  
C    1.1089905    0.0001028   -0.7656183  
C    1.0177873   -0.0004148   -2.2415130  
N    2.1993580   -0.0011610   -2.7963820  
C   -0.2459208   -0.0002877   -2.9257119  
C   -1.3675318   -0.0000605   -2.1698523  
O   -2.6129310    0.0000866   -2.6748492  
C   -1.3083584    0.0000911   -0.6783232  
O   -2.3693259    0.0004206   -0.0541692  
C    0.0000000    0.0000000    0.0000000  
H    3.0096019   -0.0001007    0.4807529  
H   -3.1967440    0.0002093   -1.8949035  
C    2.2088388   -2.1426203   -5.8191635  
C    1.6816921   -1.7351239   -6.9971461  
C    0.6077912   -0.8240078   -6.6323121  
C    0.6276219   -0.7974852   -5.1539730  
N    1.5640856   -1.5684496   -4.6716460  
C   -0.2963281   -0.0005339   -4.3948471  
C   -1.1988036    0.7367192   -5.0813821  
O   -2.1196078    1.5258332   -4.5021938  
C   -1.2438073    0.7314048   -6.5733970  
O   -2.0920741    1.4267091   -7.1321600  
C   -0.2854223   -0.0943976   -7.3293553  
H    1.9842863   -2.0178255   -7.9909228  
H   -2.6127094    1.9180867   -5.2452553  
H   -0.3507714   -0.0705874   -8.4088886  
H    3.0283507   -2.8250548   -5.6589869  
C    2.5285572    2.1210227    2.9438989  
C    1.9331703    1.6216660    4.0790748  
C    0.8903039    0.7472258    3.6520102  
C    0.8972198    0.7527806    2.2336141  
N    1.9028376    1.5986179    1.8362361  
C    0.0000000    0.0000000    1.4700000  
C   -0.9207814   -0.7726952    2.1506477  
O   -1.8198395   -1.5274828    1.4542253  
C   -0.9436862   -0.7911793    3.5655508  
O   -1.9197945   -1.6098497    4.0950179  
C   -0.0590329   -0.0485852    4.3195194  
H    2.2150357    1.8593692    5.0905303  
H    2.1533708    1.7953814    0.8841339  
H   -2.3621246   -1.9821033    2.1118817  
H   -1.8668290   -1.5649508    5.0545920  
H   -0.1007624   -0.0827977    5.4019087  
H    3.3491200    2.8096064    2.8367138  
