60

C    2.9506370   -5.6161865   -8.6959723  
C    3.1656852   -5.1824884   -9.9836554  
C    2.8633319   -3.7887479  -10.0095402  
C    2.4660380   -3.4246083   -8.6974861  
N    2.5284702   -4.5581009   -7.9255313  
C    2.0948544   -2.1211265   -8.3540534  
C    2.1255822   -1.1678117   -9.3532652  
O    1.7732607    0.1206424   -9.0726064  
C    2.5187922   -1.5117510  -10.6685262  
O    2.4970885   -0.4510650  -11.5504649  
C    2.8848432   -2.7975254  -11.0081082  
H    3.4983730   -5.7955152  -10.8037222  
H    2.3132139   -4.6057791   -6.9460556  
H    1.8632440    0.6143114   -9.8981110  
H    2.7757367   -0.7685001  -12.4148682  
H    3.1812682   -3.0310595  -12.0240172  
H    3.0636181   -6.5968631   -8.2664768  
C    2.2088374   -2.1426207   -5.8191636  
C    1.6816910   -1.7351242   -6.9971456  
C    0.6077898   -0.8240080   -6.6323121  
C    0.6276205   -0.7974855   -5.1539725  
N    1.5640846   -1.5684500   -4.6716456  
C   -0.2963293   -0.0005341   -4.3948471  
C   -1.1988050    0.7367191   -5.0813820  
O   -2.1196089    1.5258328   -4.5021932  
C   -1.2438086    0.7314044   -6.5733964  
O   -2.0920754    1.4267084   -7.1321594  
C   -0.2854236   -0.0943979   -7.3293548  
H   -2.6127108    1.9180864   -5.2452546  
H   -0.3507728   -0.0705877   -8.4088885  
H    3.0283492   -2.8250551   -5.6589865  
C    3.1301146   -0.0010313   -1.7028256  
C    2.5367765   -0.0002766   -0.4864669  
C    1.1089901    0.0001027   -0.7656184  
C    1.0177865   -0.0004150   -2.2415133  
N    2.1993571   -0.0011612   -2.7963824  
C   -0.2459219   -0.0002879   -2.9257116  
C   -1.3675326   -0.0000606   -2.1698520  
O   -2.6129318    0.0000865   -2.6748483  
C   -1.3083588    0.0000910   -0.6783229  
O   -2.3693264    0.0004206   -0.0541685  
C    0.0000000    0.0000000    0.0000000  
H    3.0096016   -0.0001007    0.4807518  
H   -3.1967444    0.0002093   -1.8949026  
H    4.1849275   -0.0015114   -1.9271979  
C    0.8400945    0.7047457    2.2710304  
C    0.0000000    0.0000000    1.4700000  
C   -0.8844236   -0.7423113    2.3369512  
C   -0.4878984   -0.4098547    3.7186280  
N    0.5629682    0.4714286    3.6095011  
C   -1.0836927   -0.9095027    4.8308716  
C   -2.1891196   -1.8367527    4.6554461  
O   -2.7906899   -2.3413415    5.5944904  
C   -2.6257283   -2.2031529    3.2011665  
O   -3.5549479   -2.9829990    3.0410059  
C   -1.9068976   -1.5999348    2.0816745  
H   -0.7774656   -0.6525820    5.8354244  
H   -2.2155208   -1.8586617    1.0779135  
H    1.6384792    1.3747609    1.9961646  
H    1.0518368    0.8833920    4.3830260  
