62

C   -1.1187828    0.0135304   -0.8003805  
C    0.0000000    0.0000000    0.0000000  
C    1.1322818   -0.0154155   -0.8673525  
C    0.6381884   -0.0101550   -2.1969277  
N   -0.7323907    0.0055474   -2.1202239  
C    1.4769347   -0.0216789   -3.3154806  
C    2.8392870   -0.0385187   -3.0876856  
O    3.7035839   -0.0499545   -4.1440346  
C    3.3514932   -0.0443882   -1.7684330  
O    4.7296441   -0.0619116   -1.7073123  
C    2.5246348   -0.0333000   -0.6644816  
H   -1.3574476    0.0230317   -2.9057039  
H    4.5935974   -0.0611124   -3.7685130  
H    4.9930397   -0.0647802   -0.7819912  
H    2.9460084   -0.0383537    0.3339657  
H   -2.1618233    0.0267980   -0.5342064  
C    0.9734975   -0.0165350   -4.6965757  
C   -0.3136508   -0.0007371   -5.1144023  
C   -0.2364583   -0.0029520   -6.5671710  
C    1.2121601   -0.0212779   -6.8634010  
N    1.9264113   -0.0293864   -5.7708039  
C    1.7132980   -0.0287362   -8.2102090  
C    0.8083966   -0.0187476   -9.2153902  
O    1.1346533   -0.0240276  -10.5190657  
C   -0.6601756   -0.0005809   -8.9486948  
O   -1.4262068    0.0078831   -9.9122012  
C   -1.1492653    0.0068178   -7.5584926  
H   -1.2053650    0.0108828   -4.5112542  
H    0.2809386   -0.0141472  -10.9883483  
H   -2.2203760    0.0199073   -7.4075620  
C    5.0558421   -2.1618631   -6.2676338  
C    3.8317538   -1.6846589   -6.6110856  
C    4.0264869   -0.7916386   -7.7288637  
C    5.4747455   -0.7876878   -8.0105048  
N    6.0420777   -1.6379010   -7.0895480  
C    6.0642027   -0.0659670   -8.9970971  
C    5.2156303    0.7623683   -9.8375252  
O    5.6511922    1.4491968  -10.7523224  
C    3.6790729    0.7736499   -9.5570446  
O    2.9546624    1.4674400  -10.2578620  
C    3.1609189   -0.0467314   -8.4650997  
H    2.8988849   -1.9300716   -6.1355420  
H    7.1284976   -0.0773420   -9.1869854  
H    5.3204619   -2.8520641   -5.4831025  
H    7.0214370   -1.8472595   -7.0257461  
C    0.8676693    0.7151171    2.2619005  
C    0.5875920    0.4624972    3.5848544  
C   -0.5048400   -0.4542819    3.6114698  
C   -0.8517165   -0.7276451    2.2635546  
N    0.0000000    0.0000000    1.4700000  
C   -1.8902865   -1.5946756    1.9108239  
C   -2.5912627   -2.1969500    2.9375057  
O   -3.6148162   -3.0527051    2.6493466  
C   -2.2603868   -1.9365747    4.2886322  
O   -3.0513550   -2.6123276    5.1947621  
C   -1.2361111   -1.0811317    4.6373480  
H    1.1060808    0.8876438    4.4271209  
H   -2.1597133   -1.8070987    0.8854031  
H   -3.9636755   -3.3565188    3.4974381  
H   -2.7621927   -2.3810384    6.0827341  
H   -1.0058879   -0.9010589    5.6809233  
H    1.6167816    1.3499334    1.8205408  
