64

C   -1.3576513    4.2349013    1.8890566  
C   -2.1851178    4.8983506    2.7651856  
C   -3.5220312    4.5193534    2.4432785  
C   -3.4472168    3.6148575    1.3532258  
N   -2.1188665    3.4656684    1.0404225  
C   -4.5792676    3.0356929    0.7720045  
C   -5.8092300    3.3755726    1.3010154  
O   -6.9470724    2.8387969    0.7716761  
C   -5.9044004    4.2765113    2.3882451  
O   -7.1990657    4.5145409    2.8011933  
C   -4.7880428    4.8484611    2.9619562  
H   -1.8646408    5.5733885    3.5401777  
H   -1.7565260    2.8752572    0.3137140  
H   -7.6831217    3.2031082    1.2803738  
H   -7.1744929    5.1325438    3.5381286  
H   -4.8922080    5.5353437    3.7937139  
H   -0.2847894    4.2506512    1.8014364  
C   -4.5109066    2.0977186   -0.3577882  
C   -3.4201852    1.6341426   -1.0207354  
C   -3.9001608    0.7380703   -2.0461684  
C   -5.3704640    0.7174766   -1.9254402  
N   -5.6768568    1.5619478   -0.8833837  
C   -6.1968217   -0.0116751   -2.7173833  
C   -5.5981514   -0.8310170   -3.7579637  
O   -6.2573266   -1.5234764   -4.5223515  
C   -4.0429937   -0.8246547   -3.9037356  
O   -3.5275661   -1.5107550   -4.7760093  
C   -3.2578655    0.0024282   -2.9908505  
H   -2.3962315    1.8904974   -0.8147870  
H   -7.2728523   -0.0125179   -2.6121841  
H   -6.6046845    1.7602432   -0.5564866  
C    0.0000000    0.0000000    0.0000000  
C    1.0521666   -0.0011982   -0.8862343  
C    0.4917215   -0.0011996   -2.1979132  
C   -0.9187429    0.0003215   -2.0478682  
N   -1.1833171   -0.0009323   -0.7007913  
C   -1.7951703    0.0010483   -3.1372089  
C   -1.2375841    0.0005313   -4.4010422  
O   -2.0474218    0.0015510   -5.4997578  
C    0.1673576   -0.0013585   -4.5711963  
O    0.5673520   -0.0020735   -5.8915554  
C    1.0325768   -0.0023493   -3.4969892  
H    2.0953056   -0.0030808   -0.6200564  
H   -2.0989778    0.0102529   -0.2891822  
H   -1.4634888    0.0006601   -6.2693595  
H    1.5290707   -0.0033271   -5.9180047  
H    2.1042146   -0.0039770   -3.6584456  
C    1.1243417   -0.0099156    2.2619005  
C    0.7474090   -0.0234034    3.5848544  
C   -0.6787367   -0.0234952    3.6114698  
C   -1.1201739   -0.0099357    2.2635546  
N    0.0000000    0.0000000    1.4700000  
C   -2.4730812   -0.0065396    1.9108239  
C   -3.3971947   -0.0173298    2.9375057  
O   -4.7313508   -0.0149487    2.6493466  
C   -2.9763630   -0.0305536    4.2886322  
O   -4.0166453   -0.0397858    5.1947621  
C   -1.6418541   -0.0336380    4.6373480  
H    1.4178735   -0.0310004    4.4271209  
H   -2.8160170    0.0039190    0.8854031  
H   -5.1938803   -0.0234410    3.4974381  
H   -3.6464643   -0.0484781    6.0827341  
H   -1.3497443   -0.0436789    5.6809233  
H    2.1062470   -0.0051382    1.8205408  
