62

C    1.1243395    0.0100939   -0.7919010  
C    0.7474039    0.0235224   -2.1148549  
C   -0.6787418    0.0233883   -2.1414696  
C   -1.1201761    0.0097586   -0.7935540  
N    0.0000000    0.0000000    0.0000000  
C   -2.4730827    0.0061481   -0.4408225  
C   -3.3971982    0.0167922   -1.4675042  
O   -4.7313542    0.0141997   -1.1793438  
C   -2.9763699    0.0300832   -2.8186306  
O   -4.0166533    0.0391507   -3.7247599  
C   -1.6418617    0.0333790   -3.1673473  
H   -2.8160161   -0.0043650    0.5845981  
H   -5.1938852    0.0226192   -2.0274351  
H   -3.6464744    0.0479018   -4.6127319  
H   -1.3497540    0.0434661   -4.2109224  
H    2.1062456    0.0054721   -0.3505424  
C    2.8209486   -0.6504607   -3.4130380  
C    1.6628896    0.0340410   -3.2649310  
C    1.5140623    0.7907443   -4.4985236  
C    2.7042427    0.4342122   -5.3003587  
N    3.4739550   -0.4103281   -4.6692605  
C    2.9321603    0.9825419   -6.6089740  
C    2.0126818    1.8474218   -7.0946453  
O    2.0979868    2.4347831   -8.3003690  
C    0.8009541    2.2267174   -6.3097814  
O    0.0060053    3.0197248   -6.8141780  
C    0.5897347    1.6507086   -4.9698091  
H    1.3012971    2.9921828   -8.3615579  
H   -0.3005436    1.9507833   -4.4335351  
H    3.2851764   -1.3290921   -2.7152375  
C    4.1277366    0.6042662   -7.3760500  
C    5.1182763   -0.2428349   -7.0115927  
C    6.0396874   -0.2490079   -8.1374094  
C    5.4335292    0.6747250   -9.1201985  
N    4.3126451    1.1780357   -8.6794194  
C    6.0497051    0.9463497  -10.3896992  
C    7.2185075    0.3237767  -10.6647284  
O    7.9029892    0.4842011  -11.8100625  
C    7.8555147   -0.6136806   -9.6933600  
O    8.9196163   -1.1451319  -10.0103266  
C    7.2038354   -0.8758960   -8.3977978  
H    5.2121352   -0.7952094   -6.0922730  
H    5.5844090    1.6256964  -11.0889109  
H    8.6877210   -0.0847222  -11.7117023  
H    7.6974280   -1.5612209   -7.7218349  
C    0.8676693    0.7151171    2.2619005  
C    0.5875920    0.4624972    3.5848544  
C   -0.5048400   -0.4542819    3.6114698  
C   -0.8517165   -0.7276451    2.2635546  
N    0.0000000    0.0000000    1.4700000  
C   -1.8902865   -1.5946756    1.9108239  
C   -2.5912627   -2.1969500    2.9375057  
O   -3.6148162   -3.0527051    2.6493466  
C   -2.2603868   -1.9365747    4.2886322  
O   -3.0513550   -2.6123276    5.1947621  
C   -1.2361111   -1.0811317    4.6373480  
H    1.1060808    0.8876438    4.4271209  
H   -2.1597133   -1.8070987    0.8854031  
H   -3.9636755   -3.3565188    3.4974381  
H   -2.7621927   -2.3810384    6.0827341  
H   -1.0058879   -0.9010589    5.6809233  
H    1.6167816    1.3499334    1.8205408  
