62

C   -5.9507879    0.7207566    0.7096279  
C   -6.7169757    0.0042454   -0.1803357  
C   -7.6752362   -0.7227457    0.5863596  
C   -7.4434316   -0.4071545    1.9496623  
N   -6.3883421    0.4702542    1.9891371  
C   -8.2053980   -0.9459016    2.9907901  
C   -9.2200467   -1.8189082    2.6494314  
O   -9.9949458   -2.3736981    3.6265469  
C   -9.4665645   -2.1464089    1.2948875  
O  -10.5112362   -3.0299692    1.1178996  
C   -8.7150882   -1.6155088    0.2672909  
H   -6.0035985    0.8781612    2.8219427  
H   -8.0336913   -0.7094991    4.0318632  
H  -10.6328527   -2.9440798    3.1782128  
H  -10.6110277   -3.1981926    0.1759088  
H   -8.9272701   -1.8851322   -0.7606978  
H   -5.1258858    1.3895676    0.5330303  
C   -3.2578655    0.0024039   -2.9908504  
C   -3.9809871    0.0031291   -1.8468773  
C   -5.3695593    0.0043918   -2.2808874  
C   -5.2983972    0.0043646   -3.7578841  
N   -4.0631144    0.0031212   -4.1798622  
C   -6.4794714    0.0054037   -4.5765100  
C   -7.6771925    0.0060344   -3.9481800  
O   -8.8597160    0.0070297   -4.5866766  
C   -7.7819057    0.0057089   -2.4591546  
O   -8.9049089    0.0064474   -1.9550871  
C   -6.5558061    0.0046828   -1.6414735  
H   -3.6170577    0.0027522   -0.8336493  
H   -6.3979234    0.0055647   -5.6536639  
H   -9.5255220    0.0072479   -3.8754418  
C    0.0000000    0.0000000    0.0000000  
C    1.0521667   -0.0011902   -0.8862342  
C    0.4917216   -0.0011957   -2.1979129  
C   -0.9187429    0.0003148   -2.0478680  
N   -1.1833171   -0.0009412   -0.7007912  
C   -1.7951702    0.0010350   -3.1372088  
C   -1.2375841    0.0005225   -4.4010424  
O   -2.0474217    0.0015360   -5.4997576  
C    0.1673577   -0.0013567   -4.5711964  
O    0.5673522   -0.0020688   -5.8915554  
C    1.0325769   -0.0023413   -3.4969890  
H    2.0953057   -0.0030649   -0.6200562  
H   -2.0989779    0.0102372   -0.2891821  
H   -1.4634887    0.0006498   -6.2693588  
H    1.5290708   -0.0033153   -5.9180049  
H    2.1042148   -0.0039610   -3.6584453  
C    1.0672568    0.0000697    2.3021913  
C    0.0000000    0.0000000    1.4700000  
C   -1.1601224    0.0000736    2.3478473  
C   -0.5938729    0.0000769    3.7138435  
N    0.7113367    0.0001554    3.6934124  
C   -1.4286986    0.0001879    4.8835240  
C   -2.7683114    0.0006799    4.6970523  
O   -3.6653903    0.0008304    5.6976972  
C   -3.3702025    0.0010610    3.3310774  
O   -4.5974910    0.0013779    3.2362962  
C   -2.4926826    0.0008943    2.1470656  
H   -0.9878360   -0.0000190    5.8697035  
H   -4.5324246    0.0012261    5.2533954  
H   -2.9677772    0.0012974    1.1752040  
H    2.1134392    0.0000545    2.0405121  
