66

C   -6.7078559    0.0102592   -0.1470561  
C   -5.7011166    0.0117733    0.7904627  
C   -6.3261717    0.0144180    2.0726092  
C   -7.7274172    0.0141093    1.8525262  
N   -7.9245946    0.0135117    0.4939474  
C   -8.6569934    0.0159999    2.8968797  
C   -8.1630212    0.0179360    4.1869052  
O   -9.0265581    0.0194802    5.2439366  
C   -6.7682929    0.0186506    4.4267956  
O   -6.4345309    0.0210360    5.7654302  
C   -5.8506639    0.0170596    3.3969995  
H   -4.6460176    0.0121647    0.5765494  
H   -8.8186382    0.0026183    0.0372765  
H   -9.7262229    0.0159206    2.7357881  
H   -8.4816652    0.0209842    6.0416562  
H   -5.4753213    0.0213435    5.8397288  
H   -4.7883928    0.0178409    3.6116088  
C   -3.2578655    0.0024039   -2.9908504  
C   -4.0349370    0.0043587   -1.8556749  
C   -5.3958983    0.0056179   -2.2827397  
C   -5.3870312    0.0040491   -3.7011351  
N   -4.0729888    0.0040658   -4.0985144  
C   -6.5582196    0.0043938   -4.4647489  
C   -7.7602566    0.0060510   -3.7841015  
O   -8.9341439    0.0061072   -4.4805229  
C   -7.7896819    0.0080076   -2.3691991  
O   -9.0636545    0.0099262   -1.8397326  
C   -6.6346679    0.0079421   -1.6152312  
H   -3.6662215    0.0059255   -0.8442207  
H   -3.7546023   -0.0074430   -5.0506064  
H   -6.5582208    0.0033485   -5.5460445  
H   -9.6417821    0.0076766   -3.8228672  
H   -8.9942190    0.0111420   -0.8801593  
C    0.0000000    0.0000000    0.0000000  
C    1.0521667   -0.0011902   -0.8862342  
C    0.4917216   -0.0011957   -2.1979129  
C   -0.9187429    0.0003148   -2.0478680  
N   -1.1833171   -0.0009412   -0.7007912  
C   -1.7951702    0.0010350   -3.1372088  
C   -1.2375841    0.0005225   -4.4010424  
O   -2.0474217    0.0015360   -5.4997576  
C    0.1673577   -0.0013567   -4.5711964  
O    0.5673522   -0.0020688   -5.8915554  
C    1.0325769   -0.0023413   -3.4969890  
H    2.0953057   -0.0030649   -0.6200562  
H   -2.0989779    0.0102372   -0.2891821  
H   -1.4634887    0.0006498   -6.2693588  
H    1.5290708   -0.0033153   -5.9180049  
H    2.1042148   -0.0039610   -3.6584453  
C    1.1243417   -0.0099156    2.2619005  
C    0.7474090   -0.0234034    3.5848544  
C   -0.6787367   -0.0234952    3.6114698  
C   -1.1201739   -0.0099357    2.2635546  
N    0.0000000    0.0000000    1.4700000  
C   -2.4730812   -0.0065396    1.9108239  
C   -3.3971947   -0.0173298    2.9375057  
O   -4.7313508   -0.0149487    2.6493466  
C   -2.9763630   -0.0305536    4.2886322  
O   -4.0166453   -0.0397858    5.1947621  
C   -1.6418541   -0.0336380    4.6373480  
H    1.4178735   -0.0310004    4.4271209  
H   -2.8160170    0.0039190    0.8854031  
H   -5.1938803   -0.0234410    3.4974381  
H   -3.6464643   -0.0484781    6.0827341  
H   -1.3497443   -0.0436789    5.6809233  
H    2.1062470   -0.0051382    1.8205408  
