62

C    0.5826678   -3.2539948  -10.3267573  
C    0.4410229   -2.4865619  -11.4596521  
C    0.2046905   -1.1475458  -11.0286264  
C    0.2134237   -1.1591992   -9.6102779  
N    0.4436176   -2.4540915   -9.2167258  
C    0.0123499   -0.0076589   -8.8432614  
C   -0.2011325    1.1772841   -9.5203977  
O   -0.4026594    2.3316829   -8.8205671  
C   -0.2138105    1.2091069  -10.9351921  
O   -0.4394641    2.4645010  -11.4609387  
C   -0.0157871    0.0734236  -11.6925140  
H    0.4996068   -2.8476470  -12.4721630  
H    0.5141360   -2.7677623   -8.2656118  
H   -0.5299434    3.0297327   -9.4761501  
H   -0.4323996    2.3980746  -12.4206996  
H   -0.0311652    0.1286975  -12.7747278  
H    0.7704586   -4.3089184  -10.2226935  
C    2.5229105   -2.1069160   -5.8790356  
C    1.9659599   -1.6422908   -7.0270794  
C    0.8993073   -0.7471216   -6.6452951  
C    0.8803723   -0.7281568   -5.1701434  
N    1.8886140   -1.5732492   -4.7674571  
C    0.0139741    0.0003876   -4.4216236  
C   -0.9653705    0.8204009   -5.1151637  
O   -1.7886285    1.5123014   -4.5305090  
C   -0.9636626    0.8153757   -6.6771421  
O   -1.7837158    1.5015804   -7.2720336  
C    0.0195995   -0.0107212   -7.3732829  
H    2.2677703   -1.8976623   -8.0272341  
H    3.3432281   -2.7944520   -5.7515055  
H    2.1282171   -1.7702570   -3.8130851  
C    3.2798085    0.0005853   -1.4499648  
C    2.5571144    0.0005562   -2.5996554  
C    1.1637436    0.0001546   -2.2210360  
C    1.1336965   -0.0000201   -0.7459470  
N    2.4483513   -0.0001430   -0.3402717  
C    0.0000000    0.0000000    0.0000000  
C   -1.2757367   -0.0000188   -0.6964414  
O   -2.3524597   -0.0000640   -0.1142313  
C   -1.2676494   -0.0000875   -2.2584081  
O   -2.3355762   -0.0004102   -2.8557294  
C    0.0181562    0.0001757   -2.9516296  
H    2.9547357    0.0006072   -3.5989105  
H    4.3498550    0.0008609   -1.3200021  
H    2.7563627    0.0012824    0.6148063  
C    2.5285572    2.1210227    2.9438989  
C    1.9331703    1.6216660    4.0790748  
C    0.8903039    0.7472258    3.6520102  
C    0.8972198    0.7527806    2.2336141  
N    1.9028376    1.5986179    1.8362361  
C    0.0000000    0.0000000    1.4700000  
C   -0.9207814   -0.7726952    2.1506477  
O   -1.8198395   -1.5274828    1.4542253  
C   -0.9436862   -0.7911793    3.5655508  
O   -1.9197945   -1.6098497    4.0950179  
C   -0.0590329   -0.0485852    4.3195194  
H    2.2150357    1.8593692    5.0905303  
H    2.1533708    1.7953814    0.8841339  
H   -2.3621246   -1.9821033    2.1118817  
H   -1.8668290   -1.5649508    5.0545920  
H   -0.1007624   -0.0827977    5.4019087  
H    3.3491200    2.8096064    2.8367138  
