60

C   10.1568935    2.1183770   -6.2200836  
C   11.3891429    1.6199819   -5.8656381  
C   11.1819123    0.7469252   -4.7568424  
C    9.7913610    0.7522940   -4.4770812  
N    9.1986856    1.5966962   -5.3828060  
C    9.2250472    0.0006541   -3.4431011  
C   10.0779848   -0.7706876   -2.6777864  
O    9.5778497   -1.5243232   -1.6555769  
C   11.4683502   -0.7889638   -2.9411657  
O   12.1844190   -1.6062230   -2.0910623  
C   12.0277608   -0.0474946   -3.9608763  
H   12.3227073    1.8574230   -6.3463391  
H    8.2155228    1.7929958   -5.4360919  
H   10.3316792   -1.9781146   -1.2567304  
H   13.1134904   -1.5612776   -2.3368468  
H   13.0962759   -0.0815147   -4.1386239  
H    9.8858749    2.8058164   -7.0029845  
C    6.7793184   -0.0000202   -4.0582541  
C    7.7853564    0.0004709   -3.1461341  
C    7.1695420    0.0010648   -1.8401450  
C    5.7118176    0.0008487   -2.0678072  
N    5.5416283    0.0005848   -3.4330637  
C    4.7795901    0.0008674   -1.0815733  
C    5.2428769    0.0013428    0.2960699  
O    4.4818131    0.0014585    1.2547580  
C    6.7823177    0.0018303    0.5605058  
O    7.1842444    0.0025393    1.7162372  
C    7.6891545    0.0014823   -0.5847011  
H    8.7535772    0.0016181   -0.3930572  
H    6.8379584   -0.0005567   -5.1345671  
H    4.6549022   -0.0011624   -3.9029153  
C    3.3321168    0.0004716   -1.3379341  
C    2.6974177    0.0000118   -2.5332316  
C    1.2800432   -0.0002116   -2.2052842  
C    1.2395033    0.0000644   -0.7271298  
N    2.4394059    0.0005460   -0.2131041  
C    0.0000000    0.0000000    0.0000000  
C   -1.1468704    0.0000635   -0.7169542  
O   -2.3742206    0.0000074   -0.1695488  
C   -1.1388774    0.0001608   -2.2096352  
O   -2.2206238    0.0000906   -2.7970409  
C    0.1454514    0.0001818   -2.9324241  
H    3.1367978   -0.0000649   -3.5160956  
H   -2.9844350    0.0001027   -0.9290164  
H    0.1083567    0.0003684   -4.0135594  
C    0.0000000    0.0000000    1.4700000  
C    1.0662921    0.0000102    2.3034270  
C    0.4961870   -0.0000064    3.6418889  
C   -0.9663858    0.0000850    3.4240247  
N   -1.2632773    0.0000084    2.1528658  
C   -1.8985362    0.0000517    4.5177257  
C   -1.3925775   -0.0004564    5.7720543  
O   -2.1456383   -0.0005410    6.8851312  
C    0.0786232   -0.0009323    6.0245000  
O    0.4683759   -0.0012588    7.1921102  
C    1.0143166   -0.0008442    4.8859032  
H    2.1107198   -0.0000632    2.0421868  
H   -2.9622183    0.0003270    4.3293377  
H   -1.5042274   -0.0009692    7.6184419  
H    2.0724152   -0.0013148    5.1109744  
