62

C    9.5382799    0.7115424   -5.0750793  
C   10.8877824    0.4613329   -5.1683845  
C   11.2162721   -0.4474018   -4.1191490  
C   10.0166108   -0.7185694   -3.4126020  
N    9.0175498    0.0025993   -4.0179188  
C    9.9654779   -1.5780523   -2.3110286  
C   11.1468591   -2.1748980   -1.9156927  
O   11.1536389   -3.0231985   -0.8464158  
C   12.3540428   -1.9165994   -2.6076520  
O   13.4444811   -2.5862930   -2.0920961  
C   12.4052793   -1.0685999   -3.6942976  
H   11.5537425    0.8828879   -5.9017207  
H    9.0543770   -1.7887644   -1.7681675  
H   12.0656954   -3.3242213   -0.7424767  
H   14.2179693   -2.3568965   -2.6162111  
H   13.3447007   -0.8899449   -4.2042452  
H    8.9062607    1.3407303   -5.6780999  
C    6.5323610    0.0028964   -4.4466863  
C    7.6043844    0.0022108   -3.6131162  
C    7.0889173    0.0013268   -2.2643654  
C    5.6181666    0.0015259   -2.3813329  
N    5.3453988    0.0028888   -3.7298458  
C    4.7630507    0.0004755   -1.3275395  
C    5.3290148   -0.0007200    0.0111983  
O    4.6424946   -0.0016580    1.0246035  
C    6.8840257   -0.0006992    0.1586663  
O    7.3720520   -0.0013933    1.2807581  
C    7.7018219    0.0002118   -1.0517302  
H    8.7776751    0.0000146   -0.9409873  
H    6.5095820    0.0036230   -5.5243547  
H    4.4257333    0.0017848   -4.1314187  
C    3.3003548    0.0005276   -1.4738982  
C    2.5232817    0.0003497   -2.6090743  
C    1.1623204   -0.0001319   -2.1820101  
C    1.1711886    0.0000583   -0.7636140  
N    2.4852302   -0.0014919   -0.3662356  
C    0.0000000    0.0000000    0.0000000  
C   -1.2020379    0.0000520   -0.6806479  
O   -2.3759249    0.0003495    0.0157742  
C   -1.2314652   -0.0005112   -2.0955511  
O   -2.5054384   -0.0008036   -2.6250184  
C   -0.0764510   -0.0007271   -2.8495195  
H    2.8919962   -0.0005619   -3.6205297  
H    2.8036267    0.0088181    0.5858667  
H   -3.0835636    0.0000348   -0.6418823  
H   -2.4360038   -0.0011526   -3.5845925  
H   -0.1304090   -0.0013420   -3.9319089  
C    0.8175213    0.6860729    2.3021913  
C    0.0000000    0.0000000    1.4700000  
C   -0.8887526   -0.7456559    2.3478473  
C   -0.4549825   -0.3816753    3.7138435  
N    0.5448156    0.4573574    3.6934124  
C   -1.0945674   -0.9182058    4.8835240  
C   -2.1210866   -1.7789155    4.6970523  
O   -2.8083856   -2.3554314    5.6976972  
C   -2.5824069   -2.1655116    3.3310774  
O   -3.5227682   -2.9541547    3.2362962  
C   -1.9100805   -1.6015804    2.1470656  
H   -0.7567140   -0.6349833    5.8697035  
H   -3.4728268   -2.9124471    5.2533954  
H   -2.2742832   -1.9066565    1.1752040  
H    1.6189533    1.3585343    2.0405121  
