60

C    3.4497185   -0.7084685   -2.8313370  
C    4.7277972   -0.4583052   -3.2745100  
C    4.6186625    0.4497396   -4.3691078  
C    3.2380226    0.7205535   -4.5491655  
N    2.5562222   -0.0001542   -3.6002998  
C    2.7591278    1.5793430   -5.5431117  
C    3.6909770    2.1758461   -6.3701666  
O    3.2780229    3.0234689   -7.3570888  
C    5.0728187    1.9178918   -6.2064857  
O    5.8738728    2.5871740   -7.1085489  
C    5.5459556    1.0705763   -5.2263205  
H    5.6279511   -0.8794476   -2.8605605  
H    1.7081250    1.7897823   -5.6856247  
H    4.0763374    3.3243550   -7.8103276  
H    6.7909278    2.3580490   -6.9293420  
H    6.6101108    0.8921709   -5.1252065  
H    3.1046851   -1.3372253   -2.0284827  
C    0.0000000    0.0000000    0.0000000  
C    1.0541691   -0.0001719   -0.8560389  
C    0.5103143   -0.0000448   -2.1935953  
C   -0.9576364    0.0002464   -2.0455731  
N   -1.2018458   -0.0001389   -0.6915972  
C   -1.8348303    0.0008322   -3.0810611  
C   -1.2972837    0.0009745   -4.4314603  
O   -2.0050658    0.0014276   -5.4301322  
C    0.2542633    0.0004194   -4.6117570  
O    0.7184681    0.0002269   -5.7439118  
C    1.0974560    0.0000881   -3.4189126  
H    2.0940754   -0.0005481   -0.5817976  
H   -2.1128195    0.0014913   -0.2706792  
C   -3.9877621    0.7060338   -1.9730990  
C   -3.2941065    0.0012879   -2.9038247  
C   -4.2616221   -0.7404934   -3.6774586  
C   -5.5852963   -0.4077257   -3.1171538  
N   -5.3499614    0.4732134   -2.0868852  
C   -6.7614318   -0.9068530   -3.5746275  
C   -6.7208845   -1.8338308   -4.6933781  
O   -7.7257830   -2.3379510   -5.1774696  
C   -5.3299814   -2.2005529   -5.3022366  
O   -5.2832920   -2.9801743   -6.2441870  
C   -4.1317807   -1.5978941   -4.7234712  
H   -7.7216467   -0.6497113   -3.1494506  
H   -3.1726413   -1.8568409   -5.1509317  
H   -3.6184110    1.3757279   -1.2135075  
H   -6.0587595    0.8852721   -1.5082146  
C    3.2798086   -0.0005857    2.9199648  
C    2.5571146   -0.0005566    4.0696553  
C    1.1637436   -0.0001548    3.6910360  
C    1.1336965    0.0000200    2.2159470  
N    2.4483514    0.0001428    1.8102719  
C    0.0000000    0.0000000    1.4700000  
C   -1.2757367    0.0000186    2.1664417  
O   -2.3524596    0.0000640    1.5842315  
C   -1.2676493    0.0000873    3.7284083  
O   -2.3355761    0.0004100    4.3257297  
C    0.0181563   -0.0001760    4.4216297  
H    2.9547357   -0.0006076    5.0689105  
H    0.0150794   -0.0003319    5.5031631  
H    4.3498549   -0.0008612    2.7900019  
H    2.7563627   -0.0012824    0.8551938  
