62

C    1.5273206   -1.0743985   -7.2944628  
C    2.5100081   -1.9601257   -6.9172631  
C    3.3020518   -2.2208867   -8.0745315  
C    2.7503936   -1.4596012   -9.1366257  
N    1.6730184   -0.7766778   -8.6291846  
C    3.2798613   -1.4720635  -10.4305720  
C    4.3865655   -2.2672948  -10.6563831  
O    4.9439853   -2.3163587  -11.9013283  
C    4.9511072   -3.0343799   -9.6096310  
O    6.0500197   -3.7749132   -9.9934847  
C    4.4291345   -3.0227803   -8.3329419  
H    2.6393248   -2.3689465   -5.9297736  
H    1.0892001   -0.1456993   -9.1478399  
H    2.8639768   -0.8942449  -11.2444324  
H    5.6941254   -2.9220880  -11.8409388  
H    6.3700756   -4.2630254   -9.2286881  
H    4.8829970   -3.6210251   -7.5515385  
C    0.2055739   -0.7043959   -5.1603477  
C   -0.8712826    0.0001710   -4.7267111  
C   -1.3726447    0.7423359   -5.8592582  
C   -0.4933186    0.4099884   -6.9964127  
N    0.4429027   -0.4710985   -6.5064483  
C   -0.6357679    0.9095507   -8.2501475  
C   -1.7278970    1.8365866   -8.4958968  
O   -1.9397499    2.3410845   -9.5908403  
C   -2.6713157    2.2028687   -7.3061049  
O   -3.5940526    2.9825347   -7.5008825  
C   -2.4172090    1.5997595   -6.0001412  
H    0.0202133    0.6527126   -9.0702891  
H   -3.0751241    1.8584032   -5.1816215  
H    0.8458870   -1.3742663   -4.6097463  
C    1.0965514    0.0001359   -0.8010305  
C    0.0000000    0.0000000    0.0000000  
C   -1.1546563    0.0001470   -0.8669513  
C   -0.6372014    0.0003519   -2.2486282  
N    0.7342871    0.0007337   -2.1395014  
C   -1.4147739    0.0001352   -3.3608717  
C   -2.8576049   -0.0001048   -3.1854462  
O   -3.6427779   -0.0002494   -4.1244907  
C   -3.4275840   -0.0000725   -1.7311666  
O   -4.6406831    0.0000333   -1.5710060  
C   -2.4891867   -0.0001091   -0.6116744  
H   -2.8919122   -0.0002918    0.3920866  
H    2.1388272    0.0000663   -0.5261648  
H    1.3735872   -0.0006099   -2.9130262  
C    2.5311839    2.1237619    3.0120429  
C    1.9795631    1.6616747    1.8395852  
C    0.9223175    0.7739173    2.1983588  
C    0.8753926    0.7337535    3.6154372  
N    1.8668922    1.5631002    4.0777464  
C   -0.0496243   -0.0427881    4.3197917  
C   -0.9437528   -0.7922060    3.5801400  
O   -1.8685244   -1.5680278    4.2172520  
C   -0.9124520   -0.7656372    2.1655264  
O   -1.8671164   -1.5663939    1.5732860  
C    0.0000000    0.0000000    1.4700000  
H    2.3005065    1.9304404    0.8477417  
H    2.0679347    1.7444845    5.0445261  
H   -0.0904770   -0.0778569    5.3997470  
H   -2.3849669   -2.0011402    3.5251786  
H   -1.7775064   -1.4909735    0.6183591  
H    3.3468514    2.8078103    3.1724291  
