66

C    4.6027286   -2.0944966   -2.9150978  
C    3.4411565   -1.6373418   -2.3369738  
C    2.8377887   -0.7405117   -3.2676952  
C    3.6836208   -0.6899840   -4.4052108  
N    4.7469283   -1.5221604   -4.1572680  
C    3.3988812    0.0972720   -5.5250057  
C    2.2389983    0.8469474   -5.4960812  
O    1.9125736    1.6330035   -6.5631221  
C    1.3824833    0.8101281   -4.3700960  
O    0.2670646    1.6125636   -4.4937157  
C    1.6628945    0.0339172   -3.2649299  
H    3.0744459   -1.9151391   -1.3636571  
H    5.5062366   -1.6979111   -4.7901526  
H    4.0395081    0.1402706   -6.3950345  
H    1.0776859    2.0643820   -6.3391996  
H   -0.2575675    1.5298020   -3.6915214  
C    5.6101309   -3.0338605   -2.4016426  
C    5.6620499   -3.7111682   -1.2053874  
C    6.8564832   -4.4907322   -1.2198028  
C    7.4981787   -4.2461380   -2.4609018  
N    6.7139006   -3.3586026   -3.1550239  
C    8.7072304   -4.8500125   -2.8191183  
C    9.2790619   -5.7163557   -1.9077263  
O   10.4595719   -6.3329641   -2.2063995  
C    8.6538749   -5.9735031   -0.6644111  
O    9.3474447   -6.8596322    0.1337612  
C    7.4609717   -5.3783281   -0.3104676  
H    4.9286280   -3.6516346   -0.4195492  
H    6.9202809   -2.9912613   -4.0663138  
H    9.2013115   -4.6678876   -3.7635320  
H   10.6786218   -6.8865222   -1.4455754  
H    8.8578133   -6.9780980    0.9534137  
H    7.0057119   -5.5948506    0.6488734  
C    1.1243410    0.0100105   -0.7919003  
C    0.7474072    0.0234665   -2.1148542  
C   -0.6787384    0.0234379   -2.1414698  
C   -1.1201748    0.0098411   -0.7935547  
N    0.0000000    0.0000000    0.0000000  
C   -2.4730818    0.0063307   -0.4408240  
C   -3.3971962    0.0170429   -1.4675058  
O   -4.7313520    0.0145490   -1.1793468  
C   -2.9763654    0.0303020   -2.8186325  
O   -4.0166484    0.0394464   -3.7247625  
C   -1.6418567    0.0334992   -3.1673480  
H   -2.8160166   -0.0041569    0.5845966  
H   -5.1938823    0.0230023   -2.0274386  
H   -3.6464680    0.0481700   -4.6127343  
H   -1.3497475    0.0435647   -4.2109234  
H    2.1062466    0.0053162   -0.3505405  
C    0.8676693    0.7151171    2.2619005  
C    0.5875920    0.4624972    3.5848544  
C   -0.5048400   -0.4542819    3.6114698  
C   -0.8517165   -0.7276451    2.2635546  
N    0.0000000    0.0000000    1.4700000  
C   -1.8902865   -1.5946756    1.9108239  
C   -2.5912627   -2.1969500    2.9375057  
O   -3.6148162   -3.0527051    2.6493466  
C   -2.2603868   -1.9365747    4.2886322  
O   -3.0513550   -2.6123276    5.1947621  
C   -1.2361111   -1.0811317    4.6373480  
H    1.1060808    0.8876438    4.4271209  
H   -2.1597133   -1.8070987    0.8854031  
H   -3.9636755   -3.3565188    3.4974381  
H   -2.7621927   -2.3810384    6.0827341  
H   -1.0058879   -0.9010589    5.6809233  
H    1.6167816    1.3499334    1.8205408  
