62

C   -5.1200806    2.1264133   -6.2373677  
C   -3.8694640    1.6654229   -6.5778289  
C   -4.0389624    0.7787479   -7.6822192  
C   -5.4264151    0.7380837   -7.9741904  
N   -6.0541284    1.5661028   -7.0769844  
C   -5.9592535   -0.0376638   -9.0081575  
C   -5.0753291   -0.7857581   -9.7612924  
O   -5.5419864   -1.5607599  -10.7833581  
C   -3.6875867   -0.7586720   -9.4851503  
O   -2.9383152   -1.5580926  -10.3235183  
C   -3.1612588    0.0061823   -8.4651000  
H   -2.9484519    1.9342055   -6.0894792  
H   -7.0412297    1.7468760   -7.0464279  
H   -7.0157448   -0.0731081   -9.2356879  
H   -4.7705934   -1.9930041  -11.1724391  
H   -2.0134353   -1.4824022  -10.0696059  
H   -5.4198697    2.8094555   -5.4611342  
C   -0.9736295    0.0040466   -4.6965763  
C    0.3136156    0.0047603   -5.1144031  
C    0.2364007    0.0059852   -6.5671712  
C   -1.2123337    0.0057278   -6.8634017  
N   -1.9266299    0.0046737   -5.7708044  
C   -1.7135262    0.0067575   -8.2102096  
C   -0.8085709    0.0083771   -9.2153904  
O   -1.1348685    0.0094717  -10.5190660  
C    0.6601134    0.0090496   -8.9486954  
O    1.4261903    0.0104126   -9.9122021  
C    1.1492577    0.0079248   -7.5584929  
H    1.2054047    0.0045795   -4.5112551  
H   -0.2810977    0.0105426  -10.9883478  
H    2.2204487    0.0085759   -7.4075623  
C    1.1188642    0.0008216   -0.8003808  
C    0.0000000    0.0000000    0.0000000  
C   -1.1323861    0.0008904   -0.8673528  
C   -0.6382661    0.0019681   -2.1969280  
N    0.7324017    0.0038477   -2.1202241  
C   -1.4770913    0.0027323   -3.3154808  
C   -2.8395472    0.0020956   -3.0876858  
O   -3.7039201    0.0024441   -4.1440350  
C   -3.3517867    0.0013945   -1.7684332  
O   -4.7300494    0.0012387   -1.7073122  
C   -2.5248543    0.0009134   -0.6644817  
H    1.3576316   -0.0056175   -2.9057045  
H   -4.5940031    0.0021847   -3.7685129  
H   -4.9934602    0.0007284   -0.7819915  
H   -2.9462576    0.0005617    0.3339659  
H    2.1619896    0.0009343   -0.5342067  
C    0.0000000    0.0000000    1.4700000  
C    1.0662921    0.0000102    2.3034270  
C    0.4961870   -0.0000064    3.6418889  
C   -0.9663858    0.0000850    3.4240247  
N   -1.2632773    0.0000084    2.1528658  
C   -1.8985362    0.0000517    4.5177257  
C   -1.3925775   -0.0004564    5.7720543  
O   -2.1456383   -0.0005410    6.8851312  
C    0.0786232   -0.0009323    6.0245000  
O    0.4683759   -0.0012588    7.1921102  
C    1.0143166   -0.0008442    4.8859032  
H    2.1107198   -0.0000632    2.0421868  
H   -2.9622183    0.0003270    4.3293377  
H   -1.5042274   -0.0009692    7.6184419  
H    2.0724152   -0.0013148    5.1109744  
