62

C    9.0175498    0.0025993   -4.0179188  
C    9.5797773    0.0038112   -5.2734523  
C   10.9950752    0.0042766   -5.0958810  
C   11.2392397    0.0030112   -3.6986307  
N   10.0171027    0.0039646   -3.0733338  
C   12.5278101    0.0027559   -3.1560676  
C   13.5892343    0.0034900   -4.0401251  
O   14.8684788    0.0029302   -3.5641583  
C   13.3659204    0.0051302   -5.4376028  
O   14.5250808    0.0061105   -6.1857277  
C   12.0949855    0.0056561   -5.9735591  
H    9.0366350    0.0054049   -6.2029614  
H    9.8735624   -0.0071376   -2.0797274  
H   12.7205990    0.0019379   -2.0920967  
H   15.4475242    0.0039021   -4.3374441  
H   14.2856740    0.0071699   -7.1175471  
H   11.9550953    0.0071021   -7.0482259  
C    6.5323610    0.0028962   -4.4466868  
C    7.6043844    0.0022108   -3.6131162  
C    7.0889173    0.0013269   -2.2643654  
C    5.6181666    0.0015260   -2.3813329  
N    5.3453988    0.0028888   -3.7298458  
C    4.7630507    0.0004755   -1.3275395  
C    5.3290148   -0.0007199    0.0111983  
O    4.6424946   -0.0016577    1.0246035  
C    6.8840257   -0.0006991    0.1586665  
O    7.3720525   -0.0013931    1.2807582  
C    7.7018219    0.0002117   -1.0517302  
H    8.7776751    0.0000147   -0.9409873  
H    6.5095820    0.0036229   -5.5243547  
H    4.4257331    0.0017847   -4.1314188  
C    3.3003548    0.0005276   -1.4738982  
C    2.5232817    0.0003497   -2.6090743  
C    1.1623204   -0.0001319   -2.1820101  
C    1.1711886    0.0000583   -0.7636140  
N    2.4852302   -0.0014919   -0.3662356  
C    0.0000000    0.0000000    0.0000000  
C   -1.2020379    0.0000520   -0.6806479  
O   -2.3759249    0.0003495    0.0157742  
C   -1.2314652   -0.0005112   -2.0955511  
O   -2.5054384   -0.0008036   -2.6250184  
C   -0.0764510   -0.0007271   -2.8495195  
H    2.8919962   -0.0005619   -3.6205297  
H    2.8036267    0.0088181    0.5858667  
H   -3.0835636    0.0000348   -0.6418823  
H   -2.4360038   -0.0011526   -3.5845925  
H   -0.1304090   -0.0013420   -3.9319089  
C    2.3971438    2.0127888    3.1728260  
C    1.9431056    1.6308205    1.9564670  
C    0.8496017    0.7127664    2.2356185  
C    0.7794028    0.6545384    3.7115134  
N    1.6840587    1.4146091    4.2663826  
C   -0.1885723   -0.1578550    4.3957118  
C   -1.0476298   -0.8789867    3.6398520  
O   -2.0015663   -1.6796266    4.1448486  
C   -1.0022026   -0.8410666    2.1483229  
O   -1.8147390   -1.5232959    1.5241687  
C    0.0000000    0.0000000    1.4700000  
H    2.3054237    1.9346118    0.9892483  
H   -0.2170646   -0.1815267    5.4753125  
H   -2.4487139   -2.0549881    3.3649027  
H    3.2048689    2.6911772    3.3971983  
