62

C    3.2677046   -0.6997531   -6.3787397  
C    4.6168915   -0.4482999   -6.4732587  
C    4.7960127    0.4608413   -7.5576831  
C    3.5097823    0.7309633   -8.0911360  
N    2.6048803    0.0088085   -7.3533951  
C    3.3057343    1.5905053   -9.1748065  
C    4.4204038    2.1884860   -9.7298810  
O    4.2781963    3.0368958  -10.7895936  
C    5.7120519    1.9312411   -9.2119151  
O    6.7199330    2.6019976   -9.8734339  
C    5.9141230    1.0831844   -8.1430405  
H    5.3784179   -0.8693072   -5.8393623  
H    2.3280149    1.8004238   -9.5861467  
H    5.1667816    3.3387756  -11.0188321  
H    7.5587867    2.3732683   -9.4615954  
H    6.9153016    0.9053524   -7.7682133  
H    2.7259034   -1.3295861   -5.6941078  
C   -0.9736295    0.0040466   -4.6965763  
C    0.3136158    0.0047601   -5.1144025  
C    0.2364012    0.0059846   -6.5671705  
C   -1.2123330    0.0057273   -6.8634014  
N   -1.9266294    0.0046735   -5.7708042  
C   -1.7135251    0.0067567   -8.2102097  
C   -0.8085700    0.0083763   -9.2153901  
O   -1.1348676    0.0094710  -10.5190657  
C    0.6601147    0.0090487   -8.9486949  
O    1.4261914    0.0104112   -9.9122017  
C    1.1492587    0.0079241   -7.5584925  
H    1.2054050    0.0045794   -4.5112544  
H   -2.7773983    0.0063342   -8.3975174  
H   -0.2810960    0.0105416  -10.9883483  
C    1.1188642    0.0008216   -0.8003808  
C    0.0000000    0.0000000    0.0000000  
C   -1.1323861    0.0008904   -0.8673528  
C   -0.6382661    0.0019681   -2.1969280  
N    0.7324017    0.0038477   -2.1202241  
C   -1.4770913    0.0027323   -3.3154808  
C   -2.8395472    0.0020956   -3.0876858  
O   -3.7039201    0.0024441   -4.1440350  
C   -3.3517867    0.0013945   -1.7684332  
O   -4.7300494    0.0012387   -1.7073122  
C   -2.5248543    0.0009134   -0.6644817  
H    1.3576316   -0.0056175   -2.9057045  
H   -4.5940031    0.0021847   -3.7685129  
H   -4.9934602    0.0007284   -0.7819915  
H   -2.9462576    0.0005617    0.3339659  
H    2.1619896    0.0009343   -0.5342067  
C    0.8400945    0.7047457    2.2710304  
C    0.0000000    0.0000000    1.4700000  
C   -0.8844236   -0.7423113    2.3369512  
C   -0.4878984   -0.4098547    3.7186280  
N    0.5629682    0.4714286    3.6095011  
C   -1.0836927   -0.9095027    4.8308716  
C   -2.1891196   -1.8367527    4.6554461  
O   -2.7906899   -2.3413415    5.5944904  
C   -2.6257283   -2.2031529    3.2011665  
O   -3.5549479   -2.9829990    3.0410059  
C   -1.9068976   -1.5999348    2.0816745  
H   -0.7774656   -0.6525820    5.8354244  
H   -2.2155208   -1.8586617    1.0779135  
H    1.6384792    1.3747609    1.9961646  
H    1.0518368    0.8833920    4.3830260  
