62

C   -0.0677547   -2.7689695   -9.6684485  
C    0.0405570   -2.2423586  -10.9347088  
C   -0.2556751   -0.8507301  -10.8336331  
C   -0.5394023   -0.5835773   -9.4697956  
N   -0.4181890   -1.7702627   -8.7903084  
C   -0.8736498    0.6910471   -9.0024636  
C   -0.9220671    1.7146883   -9.9287419  
O   -1.2428724    2.9789185   -9.5264737  
C   -0.6425738    1.4679117  -11.2939535  
O   -0.7328241    2.5900403  -12.0914653  
C   -0.3130258    0.2106623  -11.7557403  
H    0.2999657   -2.7936599  -11.8222720  
H   -0.5506101   -1.8894155   -7.8022559  
H   -1.2200279    3.5315320  -10.3185354  
H   -0.5294574    2.3367243  -12.9970474  
H   -0.1042430    0.0520842  -12.8072829  
H    0.0758390   -3.7782349   -9.3224395  
C    0.9350737   -0.7259376   -5.2319053  
C    0.6347947   -0.5089063   -6.5383532  
C   -0.4715638    0.4184292   -6.5675990  
C   -0.7935152    0.7260932   -5.1610144  
N    0.0950446    0.0004351   -4.4015596  
C   -1.7824164    1.5667807   -4.7647533  
C   -2.5832557    2.2114503   -5.7921734  
O   -3.4968556    2.9850717   -5.5369355  
C   -2.2600327    1.9000044   -7.2882799  
O   -2.9277074    2.4366153   -8.1620764  
C   -1.1693072    0.9767197   -7.5911240  
H    1.1315090   -0.9484305   -7.3849382  
H   -2.0020405    1.7788925   -3.7276013  
H    1.6992215   -1.3555734   -4.8058458  
C    3.3321173    0.0004713   -1.3379338  
C    2.6974181    0.0000116   -2.5332314  
C    1.2800438   -0.0002119   -2.2052841  
C    1.2395034    0.0000643   -0.7271299  
N    2.4394062    0.0005460   -0.2131038  
C    0.0000000    0.0000000    0.0000000  
C   -1.1468702    0.0000634   -0.7169543  
O   -2.3742203    0.0000074   -0.1695487  
C   -1.1388770    0.0001607   -2.2096355  
O   -2.2206234    0.0000905   -2.7970411  
C    0.1454522    0.0001815   -2.9324241  
H    3.1367984   -0.0000653   -3.5160950  
H   -2.9844346    0.0001026   -0.9290167  
H    4.3940038    0.0007618   -1.1498640  
C    2.5311839    2.1237619    3.0120429  
C    1.9795631    1.6616747    1.8395852  
C    0.9223175    0.7739173    2.1983588  
C    0.8753926    0.7337535    3.6154372  
N    1.8668922    1.5631002    4.0777464  
C   -0.0496243   -0.0427881    4.3197917  
C   -0.9437528   -0.7922060    3.5801400  
O   -1.8685244   -1.5680278    4.2172520  
C   -0.9124520   -0.7656372    2.1655264  
O   -1.8671164   -1.5663939    1.5732860  
C    0.0000000    0.0000000    1.4700000  
H    2.3005065    1.9304404    0.8477417  
H    2.0679347    1.7444845    5.0445261  
H   -0.0904770   -0.0778569    5.3997470  
H   -2.3849669   -2.0011402    3.5251786  
H   -1.7775064   -1.4909735    0.6183591  
H    3.3468514    2.8078103    3.1724291  
