62

C    8.1804449   -0.7163519    0.6974113  
C    8.9095392   -0.4675008    1.8371321  
C    9.9486111    0.4407889    1.4766602  
C    9.8017039    0.7130975    0.0923944  
N    8.7198847   -0.0069937   -0.3500450  
C   10.6566481    1.5725150   -0.6042140  
C   11.6783231    2.1681202    0.1096563  
O   12.5418159    3.0162999   -0.5212040  
C   11.8414377    1.9086717    1.4912849  
O   12.9055541    2.5772050    2.0605491  
C   10.9985535    1.0607361    2.1790915  
H    8.7169124   -0.8896527    2.8085617  
H   10.5501116    1.7840925   -1.6592430  
H   13.1688006    3.3163869    0.1496933  
H   12.9451628    2.3470800    2.9938650  
H   11.1484185    0.8811833    3.2372882  
H    7.3191724   -1.3448347    0.5484909  
C    4.5679461   -0.0016854   -2.0086701  
C    5.6536972   -0.0028960   -1.1639156  
C    6.8200674   -0.0036843   -1.9850010  
C    6.3798482   -0.0026079   -3.3333824  
N    5.0072029   -0.0033585   -3.3118965  
C    7.2630029   -0.0026836   -4.4172763  
C    8.6151888   -0.0035606   -4.1348421  
O    9.5213681   -0.0033235   -5.1555539  
C    9.0739284   -0.0050162   -2.7960464  
O   10.4486143   -0.0061739   -2.6795157  
C    8.2032438   -0.0052157   -1.7262640  
H    5.6103771   -0.0042819   -0.0882231  
H    4.4140952    0.0076777   -4.1218860  
H    6.9338474   -0.0020111   -5.4472560  
H   10.3956198   -0.0043445   -4.7445210  
H   10.6745774   -0.0070905   -1.7443453  
C    3.1301149   -0.0010311   -1.7028252  
C    2.5367768   -0.0002767   -0.4864665  
C    1.1089904    0.0001028   -0.7656183  
C    1.0177872   -0.0004148   -2.2415132  
N    2.1993578   -0.0011611   -2.7963820  
C   -0.2459209   -0.0002877   -2.9257118  
C   -1.3675319   -0.0000605   -2.1698524  
O   -2.6129313    0.0000867   -2.6748490  
C   -1.3083584    0.0000910   -0.6783232  
O   -2.3693261    0.0004206   -0.0541692  
C    0.0000000    0.0000000    0.0000000  
H    3.0096017   -0.0001007    0.4807525  
H   -0.2829630   -0.0004687   -4.0053125  
H   -3.1967441    0.0002094   -1.8949034  
C    2.5528530    2.1414826    2.8079335  
C    2.0663498    1.7338582    4.0032312  
C    0.9804344    0.8229586    3.6752840  
C    0.9495562    0.7966882    2.1971295  
N    1.8690446    1.5676019    1.6831036  
C    0.0000000    0.0000000    1.4700000  
C   -0.8785127   -0.7372425    2.1869543  
O   -1.8187535   -1.5261249    1.6395491  
C   -0.8723269   -0.7321790    3.6796354  
O   -1.7010379   -1.4274584    4.2670412  
C    0.1115397    0.0933559    4.4024240  
H    2.4028853    2.0163452    4.9860947  
H   -2.2861435   -1.9184361    2.3990168  
H    0.0832434    0.0693689    5.4835595  
H    3.3664920    2.8238276    2.6198634  
