60

C    5.4992129   -1.0738733   -6.5332720  
C    6.4819047   -1.9596049   -6.1560932  
C    7.2739492   -2.2203357   -7.3133674  
C    6.7222875   -1.4590279   -8.3754438  
N    5.6449097   -0.7761210   -7.8679878  
C    7.2517552   -1.4714579   -9.6693905  
C    8.3584627   -2.2666789   -9.8952202  
O    8.9158825   -2.3157116  -11.1401667  
C    8.9230080   -3.0337859   -8.8484859  
O   10.0219240   -3.7743055   -9.2323578  
C    8.4010350   -3.0222182   -7.5717956  
H    6.6112231   -2.3684480   -5.1686128  
H    5.0610885   -0.1451330   -8.3866284  
H    6.8358679   -0.8936223  -10.4832376  
H    9.6660254   -2.9214391  -11.0797912  
H   10.3419822   -4.2624340   -8.4675725  
H    8.8549010   -3.6204790   -6.7904079  
C    4.1774648   -0.7039258   -4.3991482  
C    3.1006054    0.0006263   -3.9654951  
C    2.5992399    0.7428152   -5.0980249  
C    3.4785673    0.4104979   -6.2351873  
N    4.4147925   -0.4705962   -5.7452433  
C    3.3361156    0.9100884   -7.4889105  
C    2.2439823    1.8371255   -7.7346382  
O    2.0321271    2.3416476   -8.8295700  
C    1.3005621    2.2033757   -6.5448377  
O    0.3778218    2.9830422   -6.7395972  
C    1.5546718    1.6002373   -5.2388880  
H    3.9920980    0.6532723   -8.3090581  
H    0.8967556    1.8588594   -4.4203622  
H    4.8177809   -1.3738061   -3.8485623  
C    3.2798083    0.0005857   -1.4499652  
C    2.5571142    0.0005565   -2.5996556  
C    1.1637432    0.0001548   -2.2210361  
C    1.1336964   -0.0000200   -0.7459473  
N    2.4483512   -0.0001428   -0.3402723  
C    0.0000000    0.0000000    0.0000000  
C   -1.2757368   -0.0000186   -0.6964415  
O   -2.3524598   -0.0000639   -0.1142311  
C   -1.2676497   -0.0000872   -2.2584083  
O   -2.3355766   -0.0004101   -2.8557295  
C    0.0181558    0.0001758   -2.9516296  
H    0.0150788    0.0003319   -4.0331631  
H    4.3498547    0.0008612   -1.3200026  
H    2.7563626    0.0012823    0.6148059  
C    0.0000000    0.0000000    1.4700000  
C    1.0541688    0.0001722    2.3260392  
C    0.5103138    0.0000454    3.6635956  
C   -0.9576371   -0.0002459    3.5155732  
N   -1.2018458    0.0001392    2.1615969  
C   -1.8348311   -0.0008317    4.5510609  
C   -1.2972847   -0.0009736    5.9014604  
O   -2.0050672   -0.0014265    6.9001319  
C    0.2542623   -0.0004184    6.0817573  
O    0.7184670   -0.0002256    7.2139121  
C    1.0974552   -0.0000873    4.8889129  
H    2.0940752    0.0005483    2.0517982  
H   -2.9081052   -0.0011668    4.4207061  
H    2.1707277    0.0000911    5.0223670  
H   -2.1128194   -0.0014912    1.7406791  
