66

C    6.7748111   -0.0038151    1.2764663  
C    5.5082322   -0.0036675    0.7395818  
C    5.6573263   -0.0010632   -0.6789964  
C    7.0493884    0.0000129   -0.9511882  
N    7.6991164    0.0002432    0.2581382  
C    7.5659486    0.0022548   -2.2503994  
C    6.6607399    0.0031247   -3.2938430  
O    7.1109049    0.0049537   -4.5823933  
C    5.2680304    0.0024511   -3.0424943  
O    4.4967633    0.0038934   -4.1863859  
C    4.7577216    0.0005129   -1.7610467  
H    4.5898234   -0.0041378    1.3012932  
H    8.6258306    0.0032289   -2.4645281  
H    6.3261382    0.0055797   -5.1457817  
H    3.5699424    0.0032894   -3.9283021  
H    7.0920038   -0.0050485    2.3052258  
C    9.8289962   -0.7260991    1.4055155  
C   11.1791115   -0.4900196    1.2875190  
C   11.3501503    0.4126637    0.1964147  
C   10.0582647    0.6948727   -0.3167297  
N    9.1578759   -0.0141921    0.4390093  
C    9.8456766    1.5522151   -1.4005005  
C   10.9574671    2.1355287   -1.9765592  
O   10.8069833    2.9811513   -3.0373563  
C   12.2546532    1.8660734   -1.4790437  
O   13.2587055    2.5229097   -2.1600648  
C   12.4651448    1.0201770   -0.4100822  
H   11.9464068   -0.9168722    1.9104538  
H    8.8636128    1.7712975   -1.7964228  
H   11.6949009    3.2722176   -3.2826115  
H   14.1017318    2.2865613   -1.7612575  
H   13.4704089    0.8327702   -0.0511933  
H    9.2917681   -1.3470936    2.1017265  
C    3.3041270    0.0001177   -1.5420435  
C    2.5845370   -0.0004780   -0.3695856  
C    1.2040004   -0.0000007   -0.7283590  
C    1.1422370    0.0006038   -2.1454373  
N    2.4348634    0.0026110   -2.6077469  
C   -0.0655187    0.0008799   -2.8497918  
C   -1.2321769    0.0002326   -2.1101398  
O   -2.4392822    0.0001149   -2.7472517  
C   -1.1911211   -0.0000007   -0.6955263  
O   -2.4371526   -0.0002319   -0.1032858  
C    0.0000000    0.0000000    0.0000000  
H    3.0031534   -0.0000661    0.6222578  
H    2.7054623   -0.0071098   -3.5745266  
H   -0.1193555    0.0014846   -3.9297472  
H   -3.1132992   -0.0000646   -2.0551783  
H   -2.3200279   -0.0004070    0.8516411  
C    0.0000000    0.0000000    1.4700000  
C    1.0521667    0.0011902    2.3562342  
C    0.4917218    0.0011957    3.6679131  
C   -0.9187428   -0.0003148    3.5178682  
N   -1.1833171    0.0009411    2.1707914  
C   -1.7951701   -0.0010350    4.6072090  
C   -1.2375837   -0.0005224    5.8710424  
O   -2.0474215   -0.0015360    6.9697579  
C    0.1673580    0.0013566    6.0411963  
O    0.5673524    0.0020687    7.3615553  
C    1.0325770    0.0023412    4.9669890  
H    2.0953057    0.0030649    2.0900562  
H   -2.0989778   -0.0102372    1.7591824  
H   -2.8710934   -0.0020419    4.4995513  
H   -1.4634884   -0.0006497    7.7393593  
H    1.5290710    0.0033153    7.3880045  
H    2.1042148    0.0039609    5.1284455  
