64

C    9.9563317   -0.7057306   -1.8438732  
C   11.1971080   -0.4535631   -2.3817886  
C   11.0049984    0.4568268   -3.4629379  
C    9.6145301    0.7269394   -3.5375323  
N    9.0068365    0.0035795   -2.5415027  
C    9.0613555    1.5875554   -4.4904890  
C    9.9276665    2.1866397   -5.3842351  
O    9.4407804    3.0361260   -6.3351968  
C   11.3180864    1.9294237   -5.3260320  
O   12.0482616    2.6013494   -6.2845220  
C   11.8644724    1.0803078   -4.3863561  
H   12.1262338   -0.8749073   -2.0380052  
H    8.0024565    1.7974731   -4.5526932  
H   10.2023735    3.3386559   -6.8467791  
H   12.9763808    2.3725575   -6.1756492  
H   12.9333382    0.9025266   -4.3663534  
H    9.6733495   -1.3365466   -1.0186757  
C    6.7748106   -0.0038149    1.2764664  
C    5.5082317   -0.0036674    0.7395819  
C    5.6573263   -0.0010630   -0.6789963  
C    7.0493884    0.0000132   -0.9511882  
N    7.6991164    0.0002435    0.2581385  
C    7.5659487    0.0022552   -2.2503992  
C    6.6607404    0.0031250   -3.2938428  
O    7.1109049    0.0049542   -4.5823933  
C    5.2680305    0.0024512   -3.0424940  
O    4.4967632    0.0038935   -4.1863862  
C    4.7577216    0.0005129   -1.7610467  
H    4.5898233   -0.0041378    1.3012930  
H    8.6954216   -0.0096155    0.3816703  
H    6.3261387    0.0055799   -5.1457818  
H    3.5699428    0.0032893   -3.9283024  
H    7.0920038   -0.0050482    2.3052258  
C    3.3041270    0.0001177   -1.5420435  
C    2.5845370   -0.0004780   -0.3695856  
C    1.2040004   -0.0000007   -0.7283590  
C    1.1422370    0.0006038   -2.1454373  
N    2.4348634    0.0026110   -2.6077469  
C   -0.0655187    0.0008799   -2.8497918  
C   -1.2321769    0.0002326   -2.1101398  
O   -2.4392822    0.0001149   -2.7472517  
C   -1.1911211   -0.0000007   -0.6955263  
O   -2.4371526   -0.0002319   -0.1032858  
C    0.0000000    0.0000000    0.0000000  
H    3.0031534   -0.0000661    0.6222578  
H    2.7054623   -0.0071098   -3.5745266  
H   -0.1193555    0.0014846   -3.9297472  
H   -3.1132992   -0.0000646   -2.0551783  
H   -2.3200279   -0.0004070    0.8516411  
C    0.0000000    0.0000000    1.4700000  
C    1.0662921    0.0000102    2.3034270  
C    0.4961870   -0.0000064    3.6418889  
C   -0.9663858    0.0000850    3.4240247  
N   -1.2632773    0.0000084    2.1528658  
C   -1.8985362    0.0000517    4.5177257  
C   -1.3925775   -0.0004564    5.7720543  
O   -2.1456383   -0.0005410    6.8851312  
C    0.0786232   -0.0009323    6.0245000  
O    0.4683759   -0.0012588    7.1921102  
C    1.0143166   -0.0008442    4.8859032  
H    2.1107198   -0.0000632    2.0421868  
H   -2.9622183    0.0003270    4.3293377  
H   -1.5042274   -0.0009692    7.6184419  
H    2.0724152   -0.0013148    5.1109744  
