62

C    4.0847204    0.6318183   -7.3732395  
C    5.1367429   -0.2110137   -7.0987397  
C    6.0033206   -0.1777711   -8.2312316  
C    5.4235528    0.7103915   -9.1730186  
N    4.2586757    1.1828348   -8.6212249  
C    6.0094337    0.9868318  -10.4120153  
C    7.2024715    0.3554045  -10.7055072  
O    7.8177402    0.5896586  -11.9011592  
C    7.7963413   -0.5343834   -9.7790013  
O    8.9830594   -1.0839167  -10.2183830  
C    7.2187774   -0.8077772   -8.5566252  
H    5.2633650   -0.7806598   -6.1940501  
H    3.6360175    1.8403324   -9.0547858  
H    5.5725452    1.6626425  -11.1342426  
H    8.6237294    0.0570752  -11.9024488  
H    9.3175647   -1.6720135   -9.5343858  
H    7.6970057   -1.4939883   -7.8675028  
C    2.8187457   -0.6703163   -3.3751030  
C    1.6628945    0.0339172   -3.2649299  
C    1.5111628    0.7878480   -4.4869779  
C    2.6817417    0.4627679   -5.3241507  
N    3.4355966   -0.4257741   -4.5926555  
C    2.9084918    0.9739988   -6.5606508  
C    1.9347551    1.9068211   -7.1030667  
O    2.0491236    2.4217970   -8.2076126  
C    0.6876143    2.2655757   -6.2337339  
O   -0.1388147    3.0500153   -6.6797491  
C    0.5525686    1.6499643   -4.9159186  
H   -0.3139090    1.9034590   -4.3203675  
H    3.2719311   -1.3472108   -2.6691807  
H    4.2996453   -0.8352540   -4.8972748  
C    1.1243410    0.0100105   -0.7919003  
C    0.7474072    0.0234665   -2.1148542  
C   -0.6787384    0.0234379   -2.1414698  
C   -1.1201748    0.0098411   -0.7935547  
N    0.0000000    0.0000000    0.0000000  
C   -2.4730818    0.0063307   -0.4408240  
C   -3.3971962    0.0170429   -1.4675058  
O   -4.7313520    0.0145490   -1.1793468  
C   -2.9763654    0.0303020   -2.8186325  
O   -4.0166484    0.0394464   -3.7247625  
C   -1.6418567    0.0334992   -3.1673480  
H   -2.8160166   -0.0041569    0.5845966  
H   -5.1938823    0.0230023   -2.0274386  
H   -3.6464680    0.0481700   -4.6127343  
H   -1.3497475    0.0435647   -4.2109234  
H    2.1062466    0.0053162   -0.3505405  
C    0.8400945    0.7047457    2.2710304  
C    0.0000000    0.0000000    1.4700000  
C   -0.8844236   -0.7423113    2.3369512  
C   -0.4878984   -0.4098547    3.7186280  
N    0.5629682    0.4714286    3.6095011  
C   -1.0836927   -0.9095027    4.8308716  
C   -2.1891196   -1.8367527    4.6554461  
O   -2.7906899   -2.3413415    5.5944904  
C   -2.6257283   -2.2031529    3.2011665  
O   -3.5549479   -2.9829990    3.0410059  
C   -1.9068976   -1.5999348    2.0816745  
H   -0.7774656   -0.6525820    5.8354244  
H   -2.2155208   -1.8586617    1.0779135  
H    1.6384792    1.3747609    1.9961646  
H    1.0518368    0.8833920    4.3830260  
