60

C    5.6720241   -1.1470968   -8.5347859  
C    6.1257008   -0.7448760   -9.7696406  
C    5.8842058    0.6576635   -9.8653629  
C    5.2763890    1.0593551   -8.6483464  
N    5.1604424   -0.0611451   -7.8637113  
C    4.8989981    2.3808831   -8.3915795  
C    5.1398542    3.3139580   -9.3812954  
O    4.7914892    4.6186637   -9.1828098  
C    5.7449618    2.9325314  -10.6024329  
O    5.9176041    3.9768557  -11.4872636  
C    6.1172800    1.6289445  -10.8565310  
H    6.5743855   -1.3839654  -10.5107479  
H    4.4352184    2.6934357   -7.4661495  
H    5.0431819    5.0936269   -9.9855090  
H    6.3318145    3.6341614  -12.2851321  
H    6.5786787    1.3666799  -11.8014157  
H    5.6715797   -2.1229545   -8.0801868  
C    6.1745030   -2.1408798   -4.0544033  
C    6.2180775   -1.7334918   -5.3442539  
C    5.0926412   -0.8229053   -5.4882168  
C    4.4611851   -0.7965392   -4.1513731  
N    5.0910257   -1.5671311   -3.3066964  
C    3.2973506   -0.0000934   -3.8752374  
C    2.7877448    0.7368256   -4.8884437  
O    1.7057652    1.5254556   -4.7725803  
C    3.4025818    0.7316575   -6.2486310  
O    2.8855808    1.4266381   -7.1232352  
C    4.5959747   -0.0936239   -6.5067949  
H    6.9265058   -2.0159442   -6.1041390  
H    1.5889234    1.9175676   -5.6567462  
H    6.8407164   -2.8229591   -3.5505178  
C    3.3321174    0.0004714   -1.3379332  
C    2.6974186    0.0000115   -2.5332308  
C    1.2800441   -0.0002119   -2.2052838  
C    1.2395035    0.0000643   -0.7271293  
N    2.4394063    0.0005458   -0.2131034  
C    0.0000000    0.0000000    0.0000000  
C   -1.1468701    0.0000634   -0.7169542  
O   -2.3742201    0.0000072   -0.1695492  
C   -1.1388767    0.0001606   -2.2096354  
O   -2.2206229    0.0000903   -2.7970413  
C    0.1454526    0.0001815   -2.9324239  
H   -2.9844344    0.0001023   -0.9290168  
H    0.1083580    0.0003680   -4.0135594  
H    4.3940040    0.0007617   -1.1498630  
C    0.0000000    0.0000000    1.4700000  
C    1.0541688    0.0001722    2.3260392  
C    0.5103138    0.0000454    3.6635956  
C   -0.9576371   -0.0002459    3.5155732  
N   -1.2018458    0.0001392    2.1615969  
C   -1.8348311   -0.0008317    4.5510609  
C   -1.2972847   -0.0009736    5.9014604  
O   -2.0050672   -0.0014265    6.9001319  
C    0.2542623   -0.0004184    6.0817573  
O    0.7184670   -0.0002256    7.2139121  
C    1.0974552   -0.0000873    4.8889129  
H    2.0940752    0.0005483    2.0517982  
H   -2.9081052   -0.0011668    4.4207061  
H    2.1707277    0.0000911    5.0223670  
H   -2.1128194   -0.0014912    1.7406791  
