64

C    9.1542914   -0.0037616    0.6374506  
C    9.8137913   -0.0066913    1.8447282  
C   11.2106744   -0.0077288    1.5560825  
C   11.3438782   -0.0050262    0.1439298  
N   10.0762302   -0.0046103   -0.3830288  
C   12.5856425   -0.0048637   -0.4985738  
C   13.7134833   -0.0071701    0.2990126  
O   14.9512047   -0.0067731   -0.2763668  
C   13.6010860   -0.0102593    1.7097479  
O   14.8156399   -0.0127125    2.3641155  
C   12.3763804   -0.0106946    2.3442734  
H    9.3456512   -0.0090334    2.8141773  
H    9.8547777    0.0076869   -1.3622064  
H   12.6939139   -0.0029549   -1.5744346  
H   15.5894341   -0.0089298    0.4488390  
H   14.6504705   -0.0146886    3.3119122  
H   12.3216862   -0.0132721    3.4266231  
C    6.7068652   -0.0034178    1.2828886  
C    7.7136027   -0.0021475    0.3453676  
C    7.0885452   -0.0007421   -0.9367794  
C    5.6872998   -0.0009462   -0.7166947  
N    5.4901253   -0.0045362    0.6418806  
C    4.7577216    0.0005129   -1.7610467  
C    5.2516913    0.0025160   -3.0510729  
O    4.3881528    0.0043528   -4.1081029  
C    6.6464199    0.0023765   -3.2909674  
O    6.9801794    0.0041002   -4.6296035  
C    7.5640501    0.0006642   -2.2611725  
H    4.5960836    0.0050496    1.0985848  
H    4.9330445    0.0052559   -4.9058229  
H    7.9393887    0.0039070   -4.7039034  
H    8.6263216    0.0004197   -2.4757854  
H    6.7604657   -0.0050605    2.3581021  
C    3.3041270    0.0001177   -1.5420435  
C    2.5845370   -0.0004780   -0.3695856  
C    1.2040004   -0.0000007   -0.7283590  
C    1.1422370    0.0006038   -2.1454373  
N    2.4348634    0.0026110   -2.6077469  
C   -0.0655187    0.0008799   -2.8497918  
C   -1.2321769    0.0002326   -2.1101398  
O   -2.4392822    0.0001149   -2.7472517  
C   -1.1911211   -0.0000007   -0.6955263  
O   -2.4371526   -0.0002319   -0.1032858  
C    0.0000000    0.0000000    0.0000000  
H    3.0031534   -0.0000661    0.6222578  
H    2.7054623   -0.0071098   -3.5745266  
H   -0.1193555    0.0014846   -3.9297472  
H   -3.1132992   -0.0000646   -2.0551783  
H   -2.3200279   -0.0004070    0.8516411  
C    2.5128556    2.1077716    2.9199648  
C    1.9592212    1.6432552    4.0696553  
C    0.8915788    0.7479214    3.6910360  
C    0.8684491    0.7287414    2.2159470  
N    1.8754542    1.5738793    1.8102719  
C    0.0000000    0.0000000    1.4700000  
C   -0.9772830   -0.8200135    2.1664417  
O   -1.8021297   -1.5120829    1.5842315  
C   -0.9711318   -0.8147624    3.7284083  
O   -1.7894187   -1.5009653    4.3257297  
C    0.0140216    0.0115358    4.4216297  
H    2.2638494    1.8988021    5.0689105  
H    0.0117648    0.0094386    5.5031631  
H    3.3327358    2.7953732    2.7900019  
H    2.1123206    1.7707734    0.8551938  
