64

C    3.2367288   -0.7078986   -6.3243936  
C    4.5896093   -0.4588788   -6.3375158  
C    4.8351321    0.4509219   -7.4083005  
C    3.5837259    0.7239356   -8.0177036  
N    2.6348749    0.0027947   -7.3363402  
C    3.4466356    1.5848522   -9.1107800  
C    4.5936886    2.1812594   -9.5973454  
O    4.5168700    3.0309068  -10.6628093  
C    5.8514559    1.9211273   -9.0030642  
O    6.8984314    2.5906074   -9.6022146  
C    5.9874806    1.0717129   -7.9248625  
H    5.3109574   -0.8818899   -5.6594956  
H    2.4957460    1.7969739   -9.5798373  
H    5.4181552    3.3313369  -10.8379980  
H    7.7106431    2.3599337   -9.1410133  
H    6.9640367    0.8916675   -7.4908110  
H    2.6536784   -1.3373473   -5.6741590  
C   -0.9736295    0.0040466   -4.6965763  
C    0.3184309    0.0036335   -5.1688544  
C    0.2411196    0.0048090   -6.5931517  
C   -1.1354313    0.0062062   -6.9352518  
N   -1.8453657    0.0037496   -5.7602606  
C   -1.5857639    0.0079134   -8.2588778  
C   -0.6290481    0.0085226   -9.2553081  
O   -1.0136072    0.0105305  -10.5649345  
C    0.7492009    0.0067751   -8.9339915  
O    1.5772158    0.0072375  -10.0375033  
C    1.1941865    0.0048171   -7.6284235  
H    1.2073191    0.0015054   -4.5615108  
H   -2.8466241    0.0145733   -5.6871420  
H   -2.6334882    0.0088397   -8.5262246  
H   -0.2014085    0.0103241  -11.0880004  
H    2.4898296    0.0060006   -9.7329738  
C    1.1188642    0.0008216   -0.8003808  
C    0.0000000    0.0000000    0.0000000  
C   -1.1323861    0.0008904   -0.8673528  
C   -0.6382661    0.0019681   -2.1969280  
N    0.7324017    0.0038477   -2.1202241  
C   -1.4770913    0.0027323   -3.3154808  
C   -2.8395472    0.0020956   -3.0876858  
O   -3.7039201    0.0024441   -4.1440350  
C   -3.3517867    0.0013945   -1.7684332  
O   -4.7300494    0.0012387   -1.7073122  
C   -2.5248543    0.0009134   -0.6644817  
H    1.3576316   -0.0056175   -2.9057045  
H   -4.5940031    0.0021847   -3.7685129  
H   -4.9934602    0.0007284   -0.7819915  
H   -2.9462576    0.0005617    0.3339659  
H    2.1619896    0.0009343   -0.5342067  
C    2.5128556    2.1077716    2.9199648  
C    1.9592212    1.6432552    4.0696553  
C    0.8915788    0.7479214    3.6910360  
C    0.8684491    0.7287414    2.2159470  
N    1.8754542    1.5738793    1.8102719  
C    0.0000000    0.0000000    1.4700000  
C   -0.9772830   -0.8200135    2.1664417  
O   -1.8021297   -1.5120829    1.5842315  
C   -0.9711318   -0.8147624    3.7284083  
O   -1.7894187   -1.5009653    4.3257297  
C    0.0140216    0.0115358    4.4216297  
H    2.2638494    1.8988021    5.0689105  
H    0.0117648    0.0094386    5.5031631  
H    3.3327358    2.7953732    2.7900019  
H    2.1123206    1.7707734    0.8551938  
