62

C    4.3602295   -2.1274458   -5.9836893  
C    5.3682346   -1.6298515   -6.7766541  
C    4.7591243   -0.7546219   -7.7240489  
C    3.3658862   -0.7579006   -7.4579624  
N    3.1576835   -1.6032006   -6.3964838  
C    2.4523280   -0.0038047   -8.2006198  
C    2.9544186    0.7678896   -9.2304593  
O    2.1065868    1.5238849   -9.9872083  
C    4.3413209    0.7841049   -9.5116298  
O    4.6847371    1.6020224  -10.5682368  
C    5.2431149    0.0402123   -8.7795659  
H    6.4137916   -1.8692066   -6.6843880  
H    2.2671098   -1.7984606   -5.9760871  
H    2.6547552    1.9775038  -10.6406642  
H    5.6377517    1.5555780  -10.6915674  
H    6.2996903    0.0726917   -9.0184625  
H    4.4037517   -2.8159388   -5.1572263  
C    0.0950448    0.0004350   -4.4015596  
C    1.1162031   -0.0007473   -5.3233521  
C    0.5111093   -0.0004492   -6.6150419  
C   -0.8933806    0.0012300   -6.4167190  
N   -1.1116071   -0.0002219   -5.0613621  
C   -1.8066466    0.0022592   -7.4753655  
C   -1.2927262    0.0018877   -8.7575764  
O   -2.1397628    0.0032026   -9.8278749  
C    0.1055546   -0.0001557   -8.9758059  
O    0.4600374   -0.0006953  -10.3091058  
C    1.0070998   -0.0014451   -7.9319006  
H    2.1678558   -0.0028119   -5.0931014  
H   -2.0126134    0.0110116   -4.6185948  
H   -2.8782451    0.0033958   -7.3308769  
H   -1.5825640    0.0023689  -10.6170477  
H    1.4202833   -0.0020698  -10.3685178  
C    3.3321173    0.0004714   -1.3379336  
C    2.6974184    0.0000115   -2.5332313  
C    1.2800437   -0.0002119   -2.2052840  
C    1.2395034    0.0000643   -0.7271298  
N    2.4394063    0.0005459   -0.2131037  
C    0.0000000    0.0000000    0.0000000  
C   -1.1468702    0.0000634   -0.7169544  
O   -2.3742202    0.0000072   -0.1695489  
C   -1.1388770    0.0001606   -2.2096356  
O   -2.2206231    0.0000903   -2.7970412  
C    0.1454523    0.0001814   -2.9324241  
H    3.1367986   -0.0000653   -3.5160949  
H   -2.9844345    0.0001025   -0.9290168  
H    4.3940040    0.0007618   -1.1498638  
C    0.0000000    0.0000000    1.4700000  
C    1.0662921    0.0000102    2.3034270  
C    0.4961870   -0.0000064    3.6418889  
C   -0.9663858    0.0000850    3.4240247  
N   -1.2632773    0.0000084    2.1528658  
C   -1.8985362    0.0000517    4.5177257  
C   -1.3925775   -0.0004564    5.7720543  
O   -2.1456383   -0.0005410    6.8851312  
C    0.0786232   -0.0009323    6.0245000  
O    0.4683759   -0.0012588    7.1921102  
C    1.0143166   -0.0008442    4.8859032  
H    2.1107198   -0.0000632    2.0421868  
H   -2.9622183    0.0003270    4.3293377  
H   -1.5042274   -0.0009692    7.6184419  
H    2.0724152   -0.0013148    5.1109744  
