64

C    4.7161324   -0.0005436   -1.6923263  
C    5.7254240   -0.0020827   -0.7575558  
C    6.9579240   -0.0022076   -1.4755697  
C    6.6349836   -0.0004069   -2.8567406  
N    5.2655548   -0.0013827   -2.9530734  
C    7.6078554    0.0002912   -3.8608870  
C    8.9308318   -0.0005422   -3.4635103  
O    9.9212233    0.0004352   -4.4027330  
C    9.2730464   -0.0027137   -2.0903017  
O   10.6326704   -0.0037268   -1.8562872  
C    8.3138096   -0.0036768   -1.0991451  
H    5.5899959   -0.0041074    0.3104554  
H    4.7441080    0.0100377   -3.8109447  
H    7.3682593    0.0015183   -4.9153040  
H   10.7569971   -0.0006923   -3.9182261  
H   10.7775875   -0.0051583   -0.9051822  
H    8.6062643   -0.0055251   -0.0556198  
C    3.2573666   -0.0002920   -1.5109384  
C    2.5379463   -0.0001710   -0.3591964  
C    1.1435039    0.0000331   -0.7338498  
C    1.1092600   -0.0000083   -2.2088476  
N    2.4227554    0.0001909   -2.6182613  
C   -0.0265538   -0.0002524   -2.9515660  
C   -1.3003040   -0.0002640   -2.2514976  
O   -2.3786789   -0.0004133   -2.8306420  
C   -1.2877727    0.0000311   -0.6895603  
O   -2.3539960    0.0003306   -0.0892032  
C    0.0000000    0.0000000    0.0000000  
H    2.9384090   -0.0000368    0.6389236  
H    2.7280484   -0.0013407   -3.5742118  
C   -0.0307367   -0.0004647   -4.4215603  
C    1.0189041   -0.0016750   -5.3107848  
C    0.4547292   -0.0019274   -6.6208636  
C   -0.9553029   -0.0005400   -6.4668056  
N   -1.2160429   -0.0016285   -5.1189816  
C   -1.8348264   -0.0000671   -7.5536485  
C   -1.2808385   -0.0007050   -8.8190630  
O   -2.0937994    0.0000668   -9.9154701  
C    0.1236136   -0.0024644   -8.9932143  
O    0.5198494   -0.0033262  -10.3147053  
C    0.9918859   -0.0032051   -7.9214727  
H    2.0627965   -0.0034042   -5.0475757  
H   -2.1305299    0.0095153   -4.7047702  
H   -2.9104392    0.0008450   -7.4429297  
H   -1.5120585   -0.0008707  -10.6867293  
H    1.4814890   -0.0044779  -10.3438908  
H    2.0630601   -0.0047381   -8.0859778  
C    2.5285572    2.1210227    2.9438989  
C    1.9331703    1.6216660    4.0790748  
C    0.8903039    0.7472258    3.6520102  
C    0.8972198    0.7527806    2.2336141  
N    1.9028376    1.5986179    1.8362361  
C    0.0000000    0.0000000    1.4700000  
C   -0.9207814   -0.7726952    2.1506477  
O   -1.8198395   -1.5274828    1.4542253  
C   -0.9436862   -0.7911793    3.5655508  
O   -1.9197945   -1.6098497    4.0950179  
C   -0.0590329   -0.0485852    4.3195194  
H    2.2150357    1.8593692    5.0905303  
H    2.1533708    1.7953814    0.8841339  
H   -2.3621246   -1.9821033    2.1118817  
H   -1.8668290   -1.5649508    5.0545920  
H   -0.1007624   -0.0827977    5.4019087  
H    3.3491200    2.8096064    2.8367138  
