66

C   -0.0635679    0.6371974   -9.3631280  
C    1.0280852   -0.1932402   -9.4686508  
C    1.4609484   -0.1413677  -10.8267883  
C    0.5879829    0.7448638  -11.5082948  
N   -0.3270045    1.1982798  -10.5907831  
C    0.7181521    1.0368332  -12.8693969  
C    1.7485264    0.4232097  -13.5549436  
O    1.9214315    0.6731180  -14.8856057  
C    2.6296201   -0.4643630  -12.8925956  
O    3.6039284   -0.9952731  -13.7124752  
C    2.5016358   -0.7530715  -11.5499152  
H    1.4586978   -0.7667965   -8.6657812  
H   -1.0663161    1.8501204  -10.7818438  
H    0.0560213    1.7112661  -13.3946839  
H    2.6851523    0.1513416  -15.1644338  
H    4.1558714   -1.5831271  -13.1876991  
H    3.1916056   -1.4371461  -11.0698506  
C    0.1064599   -0.7138168   -5.1554291  
C   -0.9736297    0.0040464   -4.6965763  
C   -1.4912366    0.7334044   -5.8077560  
C   -0.6795014    0.4177976   -6.9273113  
N    0.2821068   -0.4618995   -6.4959643  
C   -0.8998162    0.9585819   -8.1976664  
C   -1.9590505    1.8336800   -8.3405056  
O   -2.2193121    2.3905127   -9.5592005  
C   -2.7800670    2.1612319   -7.2353095  
O   -3.7933061    3.0470083   -7.5387750  
C   -2.5631421    1.6283221   -5.9817238  
H    0.9955157   -0.8703468   -7.0723323  
H   -2.9888525    2.9621254   -9.4394872  
H   -4.3001574    3.2151108   -6.7384957  
H   -3.2086819    1.8980388   -5.1540709  
H    0.7663119   -1.3844919   -4.6322183  
C    1.1188642    0.0008222   -0.8003808  
C    0.0000000    0.0000000    0.0000000  
C   -1.1323862    0.0008899   -0.8673528  
C   -0.6382663    0.0019679   -2.1969280  
N    0.7324016    0.0038481   -2.1202242  
C   -1.4770914    0.0027318   -3.3154808  
C   -2.8395473    0.0020945   -3.0876857  
O   -3.7039201    0.0024425   -4.1440349  
C   -3.3517868    0.0013931   -1.7684331  
O   -4.7300497    0.0012366   -1.7073121  
C   -2.5248543    0.0009123   -0.6644817  
H    1.3576314   -0.0056167   -2.9057046  
H   -4.5940032    0.0021826   -3.7685128  
H   -4.9934602    0.0007259   -0.7819913  
H   -2.9462577    0.0005603    0.3339659  
H    2.1619895    0.0009355   -0.5342068  
C    0.8676693    0.7151171    2.2619005  
C    0.5875920    0.4624972    3.5848544  
C   -0.5048400   -0.4542819    3.6114698  
C   -0.8517165   -0.7276451    2.2635546  
N    0.0000000    0.0000000    1.4700000  
C   -1.8902865   -1.5946756    1.9108239  
C   -2.5912627   -2.1969500    2.9375057  
O   -3.6148162   -3.0527051    2.6493466  
C   -2.2603868   -1.9365747    4.2886322  
O   -3.0513550   -2.6123276    5.1947621  
C   -1.2361111   -1.0811317    4.6373480  
H    1.1060808    0.8876438    4.4271209  
H   -2.1597133   -1.8070987    0.8854031  
H   -3.9636755   -3.3565188    3.4974381  
H   -2.7621927   -2.3810384    6.0827341  
H   -1.0058879   -0.9010589    5.6809233  
H    1.6167816    1.3499334    1.8205408  
