60

C    6.2699854   -2.4097109   -6.1663677  
C    7.3446058   -2.6186076   -6.9994466  
C    7.5906056   -1.3883815   -7.6781425  
C    6.6264604   -0.4571326   -7.2143261  
N    5.8392122   -1.1103900   -6.2988416  
C    6.5700749    0.8634198   -7.6701230  
C    7.5041926    1.2510268   -8.6110606  
O    7.4946034    2.5291527   -9.0899289  
C    8.4738304    0.3363048   -9.0863530  
O    9.3336381    0.8738404  -10.0218372  
C    8.5298769   -0.9666817   -8.6373414  
H    7.8840653   -3.5441702   -7.1058010  
H    5.8376415    1.5780151   -7.3207006  
H    8.2183590    2.5874239   -9.7271475  
H    9.9560798    0.1912180  -10.2905321  
H    9.2839026   -1.6445806   -9.0199335  
H    5.7758093   -3.0851480   -5.4892173  
C    4.4169324   -0.7262674   -4.2519969  
C    4.7208626   -0.5096727   -5.5576723  
C    3.7394651    0.4171455   -6.0702175  
C    2.8323810    0.7249817   -4.9480649  
N    3.2973506   -0.0000934   -3.8752374  
C    1.7696588    1.5653030   -5.0267152  
C    1.5012086    2.2093687   -6.3017243  
O    0.5680930    2.9826266   -6.4739708  
C    2.4487524    1.8977311   -7.5037429  
O    2.2325020    2.4338348   -8.5822089  
C    3.5619521    0.9748805   -7.2964143  
H    1.1167837    1.7775499   -4.1914811  
H    4.2134810    0.7645636   -8.1336711  
H    4.9165212   -1.3554533   -3.5333689  
C    3.3321174    0.0004714   -1.3379332  
C    2.6974186    0.0000115   -2.5332308  
C    1.2800441   -0.0002119   -2.2052838  
C    1.2395035    0.0000643   -0.7271293  
N    2.4394063    0.0005458   -0.2131034  
C    0.0000000    0.0000000    0.0000000  
C   -1.1468701    0.0000634   -0.7169542  
O   -2.3742201    0.0000072   -0.1695492  
C   -1.1388767    0.0001606   -2.2096354  
O   -2.2206229    0.0000903   -2.7970413  
C    0.1454526    0.0001815   -2.9324239  
H   -2.9844344    0.0001023   -0.9290168  
H    0.1083580    0.0003680   -4.0135594  
H    4.3940040    0.0007617   -1.1498630  
C    2.3971438    2.0127888    3.1728260  
C    1.9431056    1.6308205    1.9564670  
C    0.8496017    0.7127664    2.2356185  
C    0.7794028    0.6545384    3.7115134  
N    1.6840587    1.4146091    4.2663826  
C   -0.1885723   -0.1578550    4.3957118  
C   -1.0476298   -0.8789867    3.6398520  
O   -2.0015663   -1.6796266    4.1448486  
C   -1.0022026   -0.8410666    2.1483229  
O   -1.8147390   -1.5232959    1.5241687  
C    0.0000000    0.0000000    1.4700000  
H    2.3054237    1.9346118    0.9892483  
H   -0.2170646   -0.1815267    5.4753125  
H   -2.4487139   -2.0549881    3.3649027  
H    3.2048689    2.6911772    3.3971983  
