60

C   -5.7861240    4.5929252   -0.4018407  
C   -6.9678075    4.3794296    0.2693602  
C   -7.3320278    3.0181225    0.0484846  
C   -6.3260147    2.4459045   -0.7715337  
N   -5.4036119    3.4297746   -1.0280304  
C   -6.3595653    1.1123801   -1.1903132  
C   -7.4279898    0.3423989   -0.7734488  
O   -7.5101246   -0.9661031   -1.1530408  
C   -8.4417821    0.8953609    0.0446451  
O   -9.4388064    0.0009319    0.3752238  
C   -8.4094697    2.2109103    0.4579380  
H   -7.5021894    5.1147406    0.8462033  
H   -4.5703173    3.3154010   -1.5762271  
H   -8.3207302   -1.3142415   -0.7593614  
H  -10.0826179    0.4538912    0.9283395  
H   -9.2004836    2.6065479    1.0842329  
H   -5.1866174    5.4832603   -0.4846253  
C   -3.9842745    0.7276660   -1.9452914  
C   -5.3215475    0.5113816   -2.0401478  
C   -5.5219108   -0.4154368   -3.1290451  
C   -4.1821416   -0.7236113   -3.6646171  
N   -3.2941076    0.0012878   -2.9038237  
C   -3.9439115   -1.5640342   -4.7031937  
C   -5.0830927   -2.2078593   -5.3358780  
O   -4.9725191   -2.9811841   -6.2782386  
C   -6.5111098   -1.8958617   -4.7852141  
O   -7.4778756   -2.4317610   -5.3100340  
C   -6.6412648   -0.9729317   -3.6604425  
H   -2.9532728   -1.7765304   -5.0805396  
H   -7.6334407   -0.7623650   -3.2849791  
H   -3.4449077    1.3567548   -1.2559294  
C    0.0000000    0.0000000    0.0000000  
C    1.0541688   -0.0001723   -0.8560392  
C    0.5103136   -0.0000455   -2.1935956  
C   -0.9576373    0.0002461   -2.0455730  
N   -1.2018460   -0.0001389   -0.6915968  
C   -1.8348314    0.0008319   -3.0810607  
C   -1.2972851    0.0009739   -4.4314603  
O   -2.0050676    0.0014268   -5.4301316  
C    0.2542619    0.0004184   -4.6117572  
O    0.7184666    0.0002257   -5.7439122  
C    1.0974551    0.0000873   -3.4189129  
H    2.0940752   -0.0005484   -0.5817983  
H    2.1707276   -0.0000912   -3.5523673  
H   -2.1128194    0.0014915   -0.2706789  
C    3.1301144    0.0010313    3.1728260  
C    2.5367765    0.0002768    1.9564670  
C    1.1089900   -0.0001027    2.2356185  
C    1.0177864    0.0004150    3.7115134  
N    2.1993570    0.0011613    4.2663826  
C   -0.2459220    0.0002880    4.3957118  
C   -1.3675327    0.0000606    3.6398520  
O   -2.6129319   -0.0000866    4.1448486  
C   -1.3083589   -0.0000910    2.1483229  
O   -2.3693264   -0.0004206    1.5241687  
C    0.0000000    0.0000000    1.4700000  
H    3.0096015    0.0001008    0.9892483  
H   -0.2829642    0.0004689    5.4753125  
H   -3.1967446   -0.0002093    3.3649027  
H    4.1849273    0.0015113    3.3971983  
