60

C    4.3336694   -3.6500556   -6.7277463  
C    5.2996903   -4.4731036   -6.1968376  
C    5.1984068   -4.3724241   -4.7776111  
C    4.1437270   -3.4658445   -4.4988807  
N    3.6416178   -3.0445430   -5.7051181  
C    3.7622329   -3.1265773   -3.1972858  
C    4.4579090   -3.7134161   -2.1581354  
O    4.1265000   -3.4176603   -0.8675119  
C    5.5134936   -4.6200860   -2.4160289  
O    6.1085321   -5.1192482   -1.2758062  
C    5.8905651   -4.9550347   -3.6998325  
H    5.9929016   -5.0714995   -6.7628541  
H    2.9593761   -2.4362039   -2.9781801  
H    4.7270595   -3.9269298   -0.3078354  
H    6.8102444   -5.7228482   -1.5382416  
H    6.7031772   -5.6524722   -3.8663269  
H    4.0844947   -3.4459347   -7.7549777  
C    2.5229100   -2.1069158   -5.8790371  
C    1.9659589   -1.6422902   -7.0270804  
C    0.8993064   -0.7471212   -6.6452961  
C    0.8803717   -0.7281564   -5.1701439  
N    1.8886136   -1.5732492   -4.7674580  
C    0.0139741    0.0003876   -4.4216236  
C   -0.9653707    0.8204009   -5.1151633  
O   -1.7886285    1.5123013   -4.5305085  
C   -0.9636632    0.8153760   -6.6771416  
O   -1.7837169    1.5015809   -7.2720331  
C    0.0195986   -0.0107207   -7.3732829  
H    2.2677690   -1.8976616   -8.0272351  
H    0.0142642   -0.0084675   -8.4548052  
H    2.1282169   -1.7702569   -3.8130861  
C    3.2798085    0.0005853   -1.4499648  
C    2.5571144    0.0005562   -2.5996554  
C    1.1637436    0.0001546   -2.2210360  
C    1.1336965   -0.0000201   -0.7459470  
N    2.4483513   -0.0001430   -0.3402717  
C    0.0000000    0.0000000    0.0000000  
C   -1.2757367   -0.0000188   -0.6964414  
O   -2.3524597   -0.0000640   -0.1142313  
C   -1.2676494   -0.0000875   -2.2584081  
O   -2.3355762   -0.0004102   -2.8557294  
C    0.0181562    0.0001757   -2.9516296  
H    2.9547357    0.0006072   -3.5989105  
H    4.3498550    0.0008609   -1.3200021  
H    2.7563627    0.0012824    0.6148063  
C    2.5528530    2.1414826    2.8079335  
C    2.0663498    1.7338582    4.0032312  
C    0.9804344    0.8229586    3.6752840  
C    0.9495562    0.7966882    2.1971295  
N    1.8690446    1.5676019    1.6831036  
C    0.0000000    0.0000000    1.4700000  
C   -0.8785127   -0.7372425    2.1869543  
O   -1.8187535   -1.5261249    1.6395491  
C   -0.8723269   -0.7321790    3.6796354  
O   -1.7010379   -1.4274584    4.2670412  
C    0.1115397    0.0933559    4.4024240  
H    2.4028853    2.0163452    4.9860947  
H   -2.2861435   -1.9184361    2.3990168  
H    0.0832434    0.0693689    5.4835595  
H    3.3664920    2.8238276    2.6198634  
