66

C    4.8532836   -0.9885703   -8.8067353  
C    5.2018722   -0.5750074  -10.0716149  
C    4.9501904    0.8275654  -10.1352213  
C    4.4447548    1.2175870   -8.8685935  
N    4.3968766    0.0904071   -8.0864237  
C    4.0871226    2.5358907   -8.5703262  
C    4.2428422    3.4776810   -9.5688059  
O    3.9093278    4.7797216   -9.3311686  
C    4.7451906    3.1079497  -10.8391445  
O    4.8414074    4.1599348  -11.7265080  
C    5.0979505    1.8075495  -11.1341815  
H    5.5888018   -1.2067497  -10.8527547  
H    3.7011849    2.8395645   -7.6069808  
H    4.0923919    5.2619253  -10.1480103  
H    5.1886161    3.8249397  -12.5588714  
H    5.4797889    1.5543135  -12.1162965  
H    4.8927598   -1.9680940   -8.3618386  
C    5.9071320   -2.1224380   -4.5070235  
C    5.7365513   -1.6242139   -5.7779061  
C    4.6105076   -0.7497123   -5.7346242  
C    4.1312170   -0.7540640   -4.3996383  
N    4.9399008   -1.5992752   -3.6811220  
C    3.0267438   -0.0008951   -3.9901699  
C    2.3947813    0.7709585   -4.9457025  
O    1.3115941    1.5260769   -4.5999943  
C    2.8578543    0.7882379   -6.2828949  
O    2.1221339    1.6061787   -7.1153802  
C    3.9472175    0.0452600   -6.6876138  
H    6.3477794   -1.8626921   -6.6314406  
H    4.8491914   -1.7951602   -2.7006211  
H    1.0273559    1.9799844   -5.4040098  
H    2.5005411    1.5604827   -7.9987401  
H    6.6413443   -2.8106944   -4.1246700  
C    3.3003547    0.0005277   -1.4738986  
C    2.5232816    0.0003497   -2.6090746  
C    1.1623203   -0.0001319   -2.1820102  
C    1.1711884    0.0000584   -0.7636141  
N    2.4852301   -0.0014919   -0.3662359  
C    0.0000000    0.0000000    0.0000000  
C   -1.2020383    0.0000520   -0.6806479  
O   -2.3759248    0.0003493    0.0157745  
C   -1.2314655   -0.0005115   -2.0955511  
O   -2.5054388   -0.0008040   -2.6250184  
C   -0.0764513   -0.0007274   -2.8495195  
H    2.8036266    0.0088183    0.5858662  
H   -3.0835639    0.0000346   -0.6418822  
H   -2.4360043   -0.0011529   -3.5845924  
H   -0.1304091   -0.0013423   -3.9319089  
H    4.3715553    0.0004897   -1.3667133  
C    2.5285572    2.1210227    2.9438989  
C    1.9331703    1.6216660    4.0790748  
C    0.8903039    0.7472258    3.6520102  
C    0.8972198    0.7527806    2.2336141  
N    1.9028376    1.5986179    1.8362361  
C    0.0000000    0.0000000    1.4700000  
C   -0.9207814   -0.7726952    2.1506477  
O   -1.8198395   -1.5274828    1.4542253  
C   -0.9436862   -0.7911793    3.5655508  
O   -1.9197945   -1.6098497    4.0950179  
C   -0.0590329   -0.0485852    4.3195194  
H    2.2150357    1.8593692    5.0905303  
H    2.1533708    1.7953814    0.8841339  
H   -2.3621246   -1.9821033    2.1118817  
H   -1.8668290   -1.5649508    5.0545920  
H   -0.1007624   -0.0827977    5.4019087  
H    3.3491200    2.8096064    2.8367138  
