60

C    6.5639064   -0.0006886    2.8534948  
C    7.6185903    0.0007401    3.7367318  
C    7.0618804    0.0007792    5.0500002  
C    5.6509942   -0.0009575    4.9039686  
N    5.3825880    0.0001372    3.5576503  
C    4.7776707   -0.0017116    5.9957997  
C    5.3388505   -0.0010011    7.2580406  
O    4.5321428   -0.0020379    8.3590568  
C    6.7442704    0.0011050    7.4241972  
O    7.1480202    0.0019964    8.7434116  
C    7.6064291    0.0021233    6.3475316  
H    8.6609677    0.0027481    3.4675863  
H    4.4657615   -0.0112162    3.1486502  
H    3.7014452   -0.0028905    5.8912042  
H    5.1182633   -0.0009943    9.1269941  
H    8.1098099    0.0033904    8.7671249  
H    8.6785222    0.0039192    6.5059377  
C    6.5597233   -0.0008210    1.3835008  
C    7.6114523   -0.0009113    0.5244653  
C    7.0637933   -0.0009871   -0.8115379  
C    5.5962695   -0.0009037   -0.6593392  
N    5.3559146   -0.0012037    0.6953265  
C    4.7161325   -0.0005435   -1.6923264  
C    5.2498343   -0.0004422   -3.0442502  
O    4.5392129   -0.0001860   -4.0409036  
C    6.8008622   -0.0007797   -3.2289611  
O    7.2618431   -0.0010045   -4.3624322  
C    7.6474456   -0.0008762   -2.0385208  
H    8.6521348   -0.0011060    0.7957464  
H    8.7203336   -0.0009048   -2.1750284  
H    4.4461421    0.0003272    1.1188347  
C    3.2573665   -0.0002920   -1.5109385  
C    2.5379463   -0.0001709   -0.3591964  
C    1.1435038    0.0000331   -0.7338500  
C    1.1092599   -0.0000083   -2.2088477  
N    2.4227553    0.0001909   -2.6182613  
C   -0.0265539   -0.0002524   -2.9515660  
C   -1.3003040   -0.0002640   -2.2514977  
O   -2.3786790   -0.0004133   -2.8306421  
C   -1.2877727    0.0000311   -0.6895603  
O   -2.3539959    0.0003306   -0.0892030  
C    0.0000000    0.0000000    0.0000000  
H    2.9384091   -0.0000367    0.6389234  
H   -0.0296303   -0.0004086   -4.0327229  
H    2.7280482   -0.0013407   -3.5742119  
C    2.5128556    2.1077716    2.9199648  
C    1.9592212    1.6432552    4.0696553  
C    0.8915788    0.7479214    3.6910360  
C    0.8684491    0.7287414    2.2159470  
N    1.8754542    1.5738793    1.8102719  
C    0.0000000    0.0000000    1.4700000  
C   -0.9772830   -0.8200135    2.1664417  
O   -1.8021297   -1.5120829    1.5842315  
C   -0.9711318   -0.8147624    3.7284083  
O   -1.7894187   -1.5009653    4.3257297  
C    0.0140216    0.0115358    4.4216297  
H    2.2638494    1.8988021    5.0689105  
H    0.0117648    0.0094386    5.5031631  
H    3.3327358    2.7953732    2.7900019  
H    2.1123206    1.7707734    0.8551938  
