60

C    1.3497318   -3.2633548  -10.1954636  
C    0.8967426   -2.5827665   -9.0890879  
C    0.7572206   -1.2152074   -9.4697667  
C    1.1425976   -1.1208518  -10.8315693  
N    1.4983648   -2.3820570  -11.2407260  
C    1.1293991    0.0847430  -11.5394922  
C    0.7194115    1.2156351  -10.8603973  
O    0.6871847    2.4189337  -11.5038630  
C    0.3314712    1.1417868   -9.5014031  
O   -0.0507821    2.3543658   -8.9657933  
C    0.3445018   -0.0471763   -8.8023151  
H    0.6930887   -3.0181953   -8.1258022  
H    1.8061068   -2.6273096  -12.1643731  
H    1.4220537    0.1633381  -12.5774599  
H    0.3766048    3.0660715  -10.8573204  
H   -0.2971248    2.2164968   -8.0460594  
H    1.5799289   -4.3074519  -10.3212784  
C    1.7744465   -2.1336757   -5.1326806  
C    1.6746906   -1.7240761   -6.4187041  
C    0.5405883   -0.8130121   -6.4352715  
C    0.0614875   -0.7888183   -5.0365362  
N    0.7809200   -1.5609931   -4.2683222  
C   -1.0641734    0.0073898   -4.6315339  
C   -1.6828407    0.7461571   -5.5806432  
O   -2.7449526    1.5348086   -5.3440237  
C   -1.2228401    0.7432051   -7.0006965  
O   -1.8334832    1.4397966   -7.8113106  
C   -0.0658191   -0.0818758   -7.3911694  
H    2.2942506   -2.0053653   -7.2530286  
H   -2.9590927    1.9284666   -6.2090847  
H    2.4922210   -2.8167588   -4.7070386  
C    1.1319248    0.0015675   -0.8009270  
C    0.7969916    0.0034959   -2.1169404  
C   -0.6453336    0.0035703   -2.1842672  
C   -1.1266831    0.0015415   -0.7896027  
N    0.0000000    0.0000000    0.0000000  
C   -2.4346129    0.0013924   -0.4276297  
C   -3.4350110    0.0031352   -1.4820184  
O   -4.6384610    0.0030897   -1.2583919  
C   -2.9478958    0.0050460   -2.9661075  
O   -3.7809377    0.0062160   -3.8623775  
C   -1.5113821    0.0053068   -3.2312125  
H    1.4821240    0.0045436   -2.9459192  
H   -2.7664565    0.0000185    0.6013447  
H    2.1104318    0.0009428   -0.3488058  
C    2.5528530    2.1414826    2.8079335  
C    2.0663498    1.7338582    4.0032312  
C    0.9804344    0.8229586    3.6752840  
C    0.9495562    0.7966882    2.1971295  
N    1.8690446    1.5676019    1.6831036  
C    0.0000000    0.0000000    1.4700000  
C   -0.8785127   -0.7372425    2.1869543  
O   -1.8187535   -1.5261249    1.6395491  
C   -0.8723269   -0.7321790    3.6796354  
O   -1.7010379   -1.4274584    4.2670412  
C    0.1115397    0.0933559    4.4024240  
H    2.4028853    2.0163452    4.9860947  
H   -2.2861435   -1.9184361    2.3990168  
H    0.0832434    0.0693689    5.4835595  
H    3.3664920    2.8238276    2.6198634  
