60

C    9.1280325    0.0025290   -0.2802105  
C   10.1866829    0.0037572   -1.1586906  
C   11.3782961    0.0044815   -0.3746905  
C   10.9806969    0.0033503    0.9868673  
N    9.6080551    0.0041309    1.0085583  
C   11.8975009    0.0033557    2.0424523  
C   13.2401373    0.0042174    1.7176353  
O   14.1779664    0.0039125    2.7093458  
C   13.6565484    0.0057272    0.3650759  
O   15.0268883    0.0068612    0.2053726  
C   12.7526512    0.0059960   -0.6767970  
H   10.1095554    0.0051951   -2.2324889  
H    9.0407136   -0.0069314    1.8367982  
H   11.6008983    0.0026409    3.0822740  
H   15.0388594    0.0049349    2.2710229  
H   15.2233324    0.0078178   -0.7364410  
H   13.1014426    0.0073472   -1.7028677  
C    6.8354432    0.0008785   -4.0255230  
C    5.5758875    0.0005992   -3.5179857  
C    5.7016160    0.0007904   -2.0795742  
C    7.1480383    0.0012361   -1.7886230  
N    7.7802455    0.0008700   -3.0105904  
C    7.6812949    0.0019200   -0.5406881  
C    6.7698185    0.0020121    0.5914543  
O    7.1520251    0.0025450    1.7543039  
C    5.2340026    0.0012938    0.3067213  
O    4.4569011    0.0010578    1.2519060  
C    4.7795901    0.0008674   -1.0815733  
H    4.6629017    0.0001118   -4.0863788  
H    7.1529573    0.0008729   -5.0556079  
H    8.7747878    0.0025944   -3.1444924  
C    3.3321168    0.0004716   -1.3379341  
C    2.6974177    0.0000118   -2.5332316  
C    1.2800432   -0.0002116   -2.2052842  
C    1.2395033    0.0000644   -0.7271298  
N    2.4394059    0.0005460   -0.2131041  
C    0.0000000    0.0000000    0.0000000  
C   -1.1468704    0.0000635   -0.7169542  
O   -2.3742206    0.0000074   -0.1695488  
C   -1.1388774    0.0001608   -2.2096352  
O   -2.2206238    0.0000906   -2.7970409  
C    0.1454514    0.0001818   -2.9324241  
H    3.1367978   -0.0000649   -3.5160956  
H   -2.9844350    0.0001027   -0.9290164  
H    0.1083567    0.0003684   -4.0135594  
C    2.4951002    2.0940188    2.9809380  
C    1.9440701    1.6314916    1.8291961  
C    0.8759964    0.7350050    2.2038498  
C    0.8497377    0.7130254    3.6788474  
N    1.8560616    1.5571714    4.0882609  
C   -0.0205033   -0.0168748    4.4215661  
C   -0.9962600   -0.8356168    3.7214979  
O   -1.8224391   -1.5286685    4.3006425  
C   -0.9864710   -0.8277881    2.1595606  
O   -1.8030528   -1.5133726    1.5592035  
C    0.0000000    0.0000000    1.4700000  
H    2.2509283    1.8888011    0.8310761  
H   -0.0229599   -0.0187323    5.5027230  
H    3.3143982    2.7817323    3.1139444  
H    2.0889452    1.7545833    5.0442112  
