64

C   -1.0560328   -0.3804005   -9.5010377  
C   -1.3767052    0.8356502   -8.9434915  
C   -1.3988589    1.7877040  -10.0054246  
C   -1.0815532    1.0884347  -11.1980132  
N   -0.8773998   -0.2252728  -10.8557976  
C   -1.0125164    1.7145114  -12.4462318  
C   -1.2687584    3.0711532  -12.4914079  
O   -1.2153043    3.7322280  -13.6843608  
C   -1.5867043    3.7863152  -11.3123119  
O   -1.8150902    5.1306245  -11.5221160  
C   -1.6547231    3.1693761  -10.0805303  
H   -0.6472074   -0.9629343  -11.4967722  
H   -0.7710675    1.1872224  -13.3588503  
H   -1.4231965    4.6562515  -13.4940311  
H   -2.0230005    5.5394284  -10.6763867  
H   -1.9004966    3.7433121   -9.1947140  
H   -0.9391985   -1.3458594   -9.0393045  
C    0.5436212   -0.7158536   -5.2159133  
C    0.2183625   -0.4634326   -6.5285279  
C   -0.8742712    0.4534301   -6.5178236  
C   -1.1747021    0.7270468   -5.1588525  
N   -0.2963293   -0.0005341   -4.3948471  
C   -2.2005010    1.5942198   -4.7708634  
C   -2.9362258    2.1963789   -5.7730069  
O   -3.9492321    3.0522648   -5.4500647  
C   -2.6518952    1.9357510   -7.1346407  
O   -3.4734197    2.6114157   -8.0132297  
C   -1.6402436    1.0801671   -7.5181290  
H    0.7076327   -0.8887619   -7.3880062  
H   -2.4345909    1.8068364   -3.7368431  
H   -4.3269456    3.3559650   -6.2857461  
H   -3.2148938    2.3799551   -8.9105556  
H    1.3073801   -1.3506562   -4.8003930  
C    3.1301146   -0.0010313   -1.7028256  
C    2.5367765   -0.0002766   -0.4864669  
C    1.1089901    0.0001027   -0.7656184  
C    1.0177865   -0.0004150   -2.2415133  
N    2.1993571   -0.0011612   -2.7963824  
C   -0.2459219   -0.0002879   -2.9257116  
C   -1.3675326   -0.0000606   -2.1698520  
O   -2.6129318    0.0000865   -2.6748483  
C   -1.3083588    0.0000910   -0.6783229  
O   -2.3693264    0.0004206   -0.0541685  
C    0.0000000    0.0000000    0.0000000  
H    3.0096016   -0.0001007    0.4807518  
H   -3.1967444    0.0002093   -1.8949026  
H    4.1849275   -0.0015114   -1.9271979  
C    0.0000000    0.0000000    1.4700000  
C    1.0521667    0.0011902    2.3562342  
C    0.4917218    0.0011957    3.6679131  
C   -0.9187428   -0.0003148    3.5178682  
N   -1.1833171    0.0009411    2.1707914  
C   -1.7951701   -0.0010350    4.6072090  
C   -1.2375837   -0.0005224    5.8710424  
O   -2.0474215   -0.0015360    6.9697579  
C    0.1673580    0.0013566    6.0411963  
O    0.5673524    0.0020687    7.3615553  
C    1.0325770    0.0023412    4.9669890  
H    2.0953057    0.0030649    2.0900562  
H   -2.0989778   -0.0102372    1.7591824  
H   -2.8710934   -0.0020419    4.4995513  
H   -1.4634884   -0.0006497    7.7393593  
H    1.5290710    0.0033153    7.3880045  
H    2.1042148    0.0039609    5.1284455  
