62

C    3.3003537    0.0005280   -1.4739005  
C    2.5232797    0.0003504   -2.6090757  
C    1.1623187   -0.0001314   -2.1820106  
C    1.1711877    0.0000587   -0.7636145  
N    2.4852297   -0.0014918   -0.3662365  
C    0.0000000    0.0000000    0.0000000  
C   -1.2020391    0.0000523   -0.6806467  
O   -2.3759253    0.0003494    0.0157759  
C   -1.2314671   -0.0005108   -2.0955501  
O   -2.5054405   -0.0008032   -2.6250164  
C   -0.0764533   -0.0007266   -2.8495190  
H    2.8919932   -0.0005611   -3.6205313  
H    2.8036265    0.0088180    0.5858650  
H   -3.0835645    0.0000350   -0.6418796  
H   -2.4360066   -0.0011520   -3.5845904  
H    4.3715539    0.0004899   -1.3667151  
C    2.2697402   -2.0933920   -5.9499317  
C    1.7761623   -1.6308840   -4.7724167  
C    0.6896433   -0.7359130   -5.0938795  
C    0.5899503   -0.7148020   -6.5657511  
N    1.5756926   -1.5579525   -7.0243352  
C   -0.3170997    0.0136154   -7.2645881  
C   -1.2578099    0.8315640   -6.5172193  
O   -2.1126625    1.5232792   -7.0548608  
C   -1.1702549    0.8246330   -4.9577028  
O   -1.9567862    1.5095619   -4.3177794  
C   -0.1496439   -0.0015603   -4.3176956  
H    2.1326561   -1.8872528   -3.7906831  
H   -0.3733858    0.0148564   -8.3442826  
H    1.7609369   -1.7556224   -7.9905952  
C    5.1108120   -4.3623395   -3.3722134  
C    4.1090998   -3.5400151   -3.7620019  
C    4.1144558   -3.6051031   -5.2153552  
C    5.2135211   -4.5386800   -5.5425746  
N    5.8012004   -4.9858720   -4.4661722  
C    5.5476284   -4.8749631   -6.8991780  
C    4.8167345   -4.3048321   -7.8841037  
O    5.0184079   -4.5283643   -9.1938378  
C    3.7010434   -3.3590508   -7.5859552  
O    3.0782131   -2.8775349   -8.5322349  
C    3.3778086   -3.0300013   -6.1862512  
H    3.4481243   -2.9608670   -3.1400897  
H    6.3559766   -5.5600507   -7.1092714  
H    4.3466230   -3.9853348   -9.6443682  
H    5.4313098   -4.5887650   -2.3677302  
C    2.5285572    2.1210227    2.9438989  
C    1.9331703    1.6216660    4.0790748  
C    0.8903039    0.7472258    3.6520102  
C    0.8972198    0.7527806    2.2336141  
N    1.9028376    1.5986179    1.8362361  
C    0.0000000    0.0000000    1.4700000  
C   -0.9207814   -0.7726952    2.1506477  
O   -1.8198395   -1.5274828    1.4542253  
C   -0.9436862   -0.7911793    3.5655508  
O   -1.9197945   -1.6098497    4.0950179  
C   -0.0590329   -0.0485852    4.3195194  
H    2.2150357    1.8593692    5.0905303  
H    2.1533708    1.7953814    0.8841339  
H   -2.3621246   -1.9821033    2.1118817  
H   -1.8668290   -1.5649508    5.0545920  
H   -0.1007624   -0.0827977    5.4019087  
H    3.3491200    2.8096064    2.8367138  
