62

C   -3.3002999   -0.0190264   -1.4738986  
C   -2.5232400   -0.0144931   -2.6090748  
C   -1.1623027   -0.0063832   -2.1820101  
C   -1.1711699   -0.0066231   -0.7636139  
N   -2.4851996   -0.0124381   -0.3662358  
C    0.0000000    0.0000000    0.0000000  
C    1.2020195    0.0066854   -0.6806484  
O    2.3758894    0.0129678    0.0157741  
C    1.2314432    0.0074135   -2.0955511  
O    2.5053945    0.0148466   -2.6250181  
C    0.0764461    0.0011555   -2.8495196  
H   -2.8035333   -0.0245325    0.5858668  
H    3.0835151    0.0172487   -0.6418816  
H    2.4359593    0.0148064   -3.5845924  
H    0.1303994    0.0020727   -3.9319085  
H   -4.3714837   -0.0249924   -1.3667135  
C   -3.0267013   -0.0160703   -3.9901700  
C   -4.3102815   -0.0231540   -4.4333932  
C   -4.2574287   -0.0214464   -5.8763202  
C   -2.8275876   -0.0127540   -6.2400100  
N   -2.1344312   -0.0094480   -5.0515604  
C   -2.3581035   -0.0091773   -7.5133034  
C   -3.3256279   -0.0139997   -8.5979274  
O   -3.0026977   -0.0112691   -9.7786087  
C   -4.8450626   -0.0229654   -8.2359285  
O   -5.6689374   -0.0267780   -9.1406256  
C   -5.2287079   -0.0264235   -6.8264406  
H   -5.1933526   -0.0287353   -3.8195791  
H   -6.2827572   -0.0328405   -6.5842376  
H   -1.1343995   -0.0051502   -4.9681014  
C    0.0734123   -0.6813956   -7.2394883  
C   -0.9264060   -0.0006700   -7.8465754  
C   -0.2772369    0.7494890   -8.9106901  
C    1.1536134    0.3936956   -8.7981601  
N    1.3652346   -0.4448059   -7.8203458  
C    2.1447110    0.9365799   -9.6859042  
C    1.7253948    1.7955435  -10.6428205  
O    2.5408123    2.3774039  -11.5386847  
C    0.2881882    2.1739347  -10.7821721  
O   -0.0218771    2.9614184  -11.6760126  
C   -0.7092858    1.6035880   -9.8593098  
H    3.1834282    0.6592842   -9.5806268  
H    1.9542283    2.9314169  -12.0847080  
H   -1.7401583    1.9028030   -9.9934811  
H    0.0041361   -1.3548510   -6.4000643  
C    2.5311839    2.1237619    3.0120429  
C    1.9795631    1.6616747    1.8395852  
C    0.9223175    0.7739173    2.1983588  
C    0.8753926    0.7337535    3.6154372  
N    1.8668922    1.5631002    4.0777464  
C   -0.0496243   -0.0427881    4.3197917  
C   -0.9437528   -0.7922060    3.5801400  
O   -1.8685244   -1.5680278    4.2172520  
C   -0.9124520   -0.7656372    2.1655264  
O   -1.8671164   -1.5663939    1.5732860  
C    0.0000000    0.0000000    1.4700000  
H    2.3005065    1.9304404    0.8477417  
H    2.0679347    1.7444845    5.0445261  
H   -0.0904770   -0.0778569    5.3997470  
H   -2.3849669   -2.0011402    3.5251786  
H   -1.7775064   -1.4909735    0.6183591  
H    3.3468514    2.8078103    3.1724291  
