60

C    6.0549022   -2.4109751   -2.2441033  
C    7.3239214   -2.6203063   -1.7560071  
C    8.0321413   -1.3901215   -1.8962559  
C    7.1363599   -0.4584487   -2.4806258  
N    5.9454587   -1.1114243   -2.6806113  
C    7.4973543    0.8621862   -2.7641669  
C    8.7860178    1.2494416   -2.4518258  
O    9.1909689    2.5276295   -2.7072916  
C    9.6944639    0.3342942   -1.8686890  
O   10.9400188    0.8715145   -1.6170312  
C    9.3391026   -0.9687737   -1.5889421  
H    7.6940239   -3.5461245   -1.3499539  
H    6.8193586    1.5771037   -3.2096065  
H   10.1108284    2.5856170   -2.4178768  
H   11.4920120    0.1886148   -1.2238958  
H   10.0566604   -1.6470017   -1.1421802  
H    5.2196228   -3.0862475   -2.3167219  
C    3.4580106   -0.7268399   -2.8377750  
C    4.7325012   -0.5102397   -3.2535078  
C    4.6631580    0.4171279   -4.3580511  
C    3.2335491    0.7252806   -4.5531181  
N    2.5562217   -0.0001543   -3.6003001  
C    2.7508565    1.5661398   -5.5026800  
C    3.7028845    2.2104920   -6.3920552  
O    3.3673528    2.9842342   -7.2792089  
C    5.2217697    1.8985269   -6.2037155  
O    6.0326406    2.4348680   -6.9467415  
C    5.6204818    0.9750981   -5.1443953  
H    1.6983095    1.7786111   -5.6288161  
H    6.6740642    0.7645577   -5.0204572  
H    3.1016700   -1.3563602   -2.0386411  
C    0.0000000    0.0000000    0.0000000  
C    1.0541688   -0.0001719   -0.8560391  
C    0.5103141   -0.0000449   -2.1935955  
C   -0.9576367    0.0002461   -2.0455733  
N   -1.2018459   -0.0001392   -0.6915970  
C   -1.8348306    0.0008319   -3.0810611  
C   -1.2972842    0.0009739   -4.4314605  
O   -2.0050664    0.0014267   -5.4301321  
C    0.2542628    0.0004190   -4.6117571  
O    0.7184677    0.0002263   -5.7439119  
C    1.0974556    0.0000880   -3.4189127  
H    2.0940752   -0.0005479   -0.5817978  
H   -2.9081050    0.0011669   -2.9507065  
H   -2.1128195    0.0014911   -0.2706793  
C    3.2573670    0.0002920    2.9809380  
C    2.5379467    0.0001709    1.8291961  
C    1.1435042   -0.0000331    2.2038498  
C    1.1092607    0.0000083    3.6788474  
N    2.4227561   -0.0001909    4.0882609  
C   -0.0265533    0.0002524    4.4215661  
C   -1.3003036    0.0002640    3.7214979  
O   -2.3786784    0.0004133    4.3006425  
C   -1.2877726   -0.0000311    2.1595606  
O   -2.3539958   -0.0003306    1.5592035  
C    0.0000000    0.0000000    1.4700000  
H    2.9384090    0.0000368    0.8310761  
H   -0.0296291    0.0004086    5.5027230  
H    4.3270393    0.0004765    3.1139444  
H    2.7280493    0.0013407    5.0442112  
