62

C    2.1437440   -4.5920627   -7.2040177  
C    2.6640454   -4.3784601   -8.4594573  
C    2.4001780   -3.0170468   -8.7934145  
C    1.7106717   -2.4448773   -7.6938105  
N    1.5697632   -3.4288765   -6.7469693  
C    1.2912101   -1.1112749   -7.6752101  
C    1.5732013   -0.3411646   -8.7867801  
O    1.1866281    0.9674178   -8.8212327  
C    2.2598417   -0.8940764   -9.8938636  
O    2.4650410    0.0004832  -10.9239120  
C    2.6737093   -2.2097025   -9.9130129  
H    3.1703992   -5.1137696   -9.0610548  
H    1.1286007   -3.3145655   -5.8523803  
H    1.4773430    1.3156409   -9.6741633  
H    2.9344004   -0.4524499  -11.6311288  
H    3.1975363   -2.6052990  -10.7753274  
H    2.1353952   -5.4824958   -6.5990245  
C    0.8351699   -0.7268773   -5.2248492  
C    0.5760703   -0.5103258   -6.5401621  
C   -0.5290502    0.4167166   -6.6044789  
C   -0.8951518    0.7247315   -5.2088114  
N   -0.0307352   -0.0004646   -4.4215603  
C   -1.8962330    1.5652872   -4.8441106  
C   -2.6645254    2.2094346   -5.8964107  
O   -3.5858907    2.9828997   -5.6702737  
C   -2.2943369    1.8976107   -7.3815142  
O   -2.9343350    2.4337812   -8.2760444  
C   -1.1943993    0.9745125   -7.6496159  
H   -2.1484166    1.7776622   -3.8144453  
H   -0.9442735    0.7640677   -8.6805742  
H    1.5856964   -1.3561853   -4.7747704  
C    3.2573670   -0.0002920   -1.5109380  
C    2.5379468   -0.0001709   -0.3591961  
C    1.1435043    0.0000332   -0.7338500  
C    1.1092609   -0.0000082   -2.2088477  
N    2.4227562    0.0001909   -2.6182613  
C   -0.0265532   -0.0002522   -2.9515663  
C   -1.3003035   -0.0002639   -2.2514981  
O   -2.3786784   -0.0004131   -2.8306429  
C   -1.2877725    0.0000312   -0.6895608  
O   -2.3539958    0.0003307   -0.0892036  
C    0.0000000    0.0000000    0.0000000  
H    2.9384091   -0.0000369    0.6389239  
H    4.3270394   -0.0004765   -1.6439446  
H    2.7280494   -0.0013406   -3.5742113  
C    2.5285572    2.1210227    2.9438989  
C    1.9331703    1.6216660    4.0790748  
C    0.8903039    0.7472258    3.6520102  
C    0.8972198    0.7527806    2.2336141  
N    1.9028376    1.5986179    1.8362361  
C    0.0000000    0.0000000    1.4700000  
C   -0.9207814   -0.7726952    2.1506477  
O   -1.8198395   -1.5274828    1.4542253  
C   -0.9436862   -0.7911793    3.5655508  
O   -1.9197945   -1.6098497    4.0950179  
C   -0.0590329   -0.0485852    4.3195194  
H    2.2150357    1.8593692    5.0905303  
H    2.1533708    1.7953814    0.8841339  
H   -2.3621246   -1.9821033    2.1118817  
H   -1.8668290   -1.5649508    5.0545920  
H   -0.1007624   -0.0827977    5.4019087  
H    3.3491200    2.8096064    2.8367138  
