62

C    2.6610651    0.0070598   -7.2036498  
C    3.2891650    0.0057431   -5.9797397  
C    4.6930380    0.0056725   -6.2322083  
C    4.8626678    0.0072756   -7.6404510  
N    3.6090539    0.0061349   -8.1999757  
C    6.1206124    0.0079654   -8.2506688  
C    7.2274789    0.0073268   -7.4242163  
O    8.4796474    0.0083055   -7.9674358  
C    7.0786836    0.0053541   -6.0168528  
O    8.2759322    0.0045209   -5.3313313  
C    5.8379993    0.0043994   -5.4141704  
H    2.7961429    0.0038280   -5.0227034  
H    3.4129559    0.0173967   -9.1845567  
H    6.2566355    0.0090423   -9.3233753  
H    9.0989349    0.0073284   -7.2259864  
H    8.0863393    0.0032168   -4.3881153  
H    5.7553684    0.0027059   -4.3335930  
C   -0.9736295    0.0040466   -4.6965763  
C    0.3099700    0.0046190   -5.1397994  
C    0.2571081    0.0059524   -6.5827270  
C   -1.1727592    0.0061404   -6.9464165  
N   -1.8659233    0.0045496   -5.7579676  
C   -1.6422562    0.0076694   -8.2197097  
C   -0.6747204    0.0090081   -9.3043324  
O   -0.9976608    0.0103678  -10.4850137  
C    0.8447410    0.0085833   -8.9423345  
O    1.6686239    0.0093936   -9.8470312  
C    1.2284000    0.0071691   -7.5328468  
H    1.1930590    0.0039770   -4.5259859  
H   -2.6952653    0.0079092   -8.4648251  
H   -2.8659633    0.0058216   -5.6745059  
C    1.1188642    0.0008216   -0.8003808  
C    0.0000000    0.0000000    0.0000000  
C   -1.1323861    0.0008904   -0.8673528  
C   -0.6382661    0.0019681   -2.1969280  
N    0.7324017    0.0038477   -2.1202241  
C   -1.4770913    0.0027323   -3.3154808  
C   -2.8395472    0.0020956   -3.0876858  
O   -3.7039201    0.0024441   -4.1440350  
C   -3.3517867    0.0013945   -1.7684332  
O   -4.7300494    0.0012387   -1.7073122  
C   -2.5248543    0.0009134   -0.6644817  
H    1.3576316   -0.0056175   -2.9057045  
H   -4.5940031    0.0021847   -3.7685129  
H   -4.9934602    0.0007284   -0.7819915  
H   -2.9462576    0.0005617    0.3339659  
H    2.1619896    0.0009343   -0.5342067  
C    0.8681109    0.7263879    2.2709268  
C    0.6127770    0.5096195    3.5869401  
C   -0.4920590   -0.4175482    3.6542670  
C   -0.8620974   -0.7254003    2.2596025  
N    0.0000000    0.0000000    1.4700000  
C   -1.8641242   -1.5660088    1.8976294  
C   -2.6293522   -2.2103885    2.9520183  
O   -3.5512764   -2.9839180    2.7283916  
C   -2.2549728   -1.8987399    4.4361073  
O   -2.8923672   -2.4351063    5.3323774  
C   -1.1543735   -0.9755647    4.7012123  
H    1.1382914    0.9492124    4.4159191  
H   -2.1192137   -1.7782617    0.8686553  
H   -0.9013378   -0.7652422    5.7314848  
H    1.6172880    1.3558399    1.8188057  
