66

C    4.1066126   -0.7198887   -4.4477716  
C    3.0267438   -0.0008951   -3.9901699  
C    2.5093613    0.7266866   -5.1026176  
C    3.3209996    0.4088812   -6.2216217  
N    4.2823368   -0.4703597   -5.7887433  
C    3.1008514    0.9475210   -7.4929164  
C    2.0418866    1.8226954   -7.6372801  
O    1.7817969    2.3774849   -8.8569415  
C    1.2209707    2.1524235   -6.5326559  
O    0.2080049    3.0379818   -6.8376634  
C    1.4377317    1.6216302   -5.2781441  
H    3.7159028    0.7094368   -8.3497888  
H    1.0124322    2.9495427   -8.7382250  
H   -0.2987945    3.2076335   -6.0376782  
H    0.7922748    1.8929862   -4.4509630  
H    4.7662577   -1.3898546   -3.9233937  
C    5.9782605   -4.5528128   -5.9164116  
C    6.8778528   -4.3376440   -6.9346964  
C    6.7373849   -2.9753331   -7.3334165  
C    5.7287481   -2.4042561   -6.5158285  
N    5.2877079   -3.3897375   -5.6679325  
C    5.3267034   -1.0701850   -6.6315998  
C    5.9545175   -0.2984741   -7.5899789  
O    5.6007798    1.0106303   -7.7453138  
C    6.9628803   -0.8502766   -8.4155307  
O    7.4916785    0.0458334   -9.3214571  
C    7.3598222   -2.1663639   -8.3020570  
H    7.5515781   -5.0725097   -7.3409728  
H    4.5802345   -3.2764586   -4.9646328  
H    6.1526918    1.3599930   -8.4570744  
H    8.1648397   -0.4064282   -9.8390654  
H    8.1348572   -2.5610839   -8.9485839  
H    5.7735713   -5.4442912   -5.3486727  
C    3.3003547    0.0005277   -1.4738986  
C    2.5232816    0.0003497   -2.6090746  
C    1.1623203   -0.0001319   -2.1820102  
C    1.1711884    0.0000584   -0.7636141  
N    2.4852301   -0.0014919   -0.3662359  
C    0.0000000    0.0000000    0.0000000  
C   -1.2020383    0.0000520   -0.6806479  
O   -2.3759248    0.0003493    0.0157745  
C   -1.2314655   -0.0005115   -2.0955511  
O   -2.5054388   -0.0008040   -2.6250184  
C   -0.0764513   -0.0007274   -2.8495195  
H    2.8036266    0.0088183    0.5858662  
H   -3.0835639    0.0000346   -0.6418822  
H   -2.4360043   -0.0011529   -3.5845924  
H   -0.1304091   -0.0013423   -3.9319089  
H    4.3715553    0.0004897   -1.3667133  
C    2.5285572    2.1210227    2.9438989  
C    1.9331703    1.6216660    4.0790748  
C    0.8903039    0.7472258    3.6520102  
C    0.8972198    0.7527806    2.2336141  
N    1.9028376    1.5986179    1.8362361  
C    0.0000000    0.0000000    1.4700000  
C   -0.9207814   -0.7726952    2.1506477  
O   -1.8198395   -1.5274828    1.4542253  
C   -0.9436862   -0.7911793    3.5655508  
O   -1.9197945   -1.6098497    4.0950179  
C   -0.0590329   -0.0485852    4.3195194  
H    2.2150357    1.8593692    5.0905303  
H    2.1533708    1.7953814    0.8841339  
H   -2.3621246   -1.9821033    2.1118817  
H   -1.8668290   -1.5649508    5.0545920  
H   -0.1007624   -0.0827977    5.4019087  
H    3.3491200    2.8096064    2.8367138  
