62

C   -7.6673854    0.0591953   -1.9517683  
C   -8.4387730    0.7151981   -1.0205928  
C   -9.7914588    0.3262672   -1.2520560  
C   -9.7836003   -0.5763353   -2.3462099  
N   -8.4783334   -0.7148911   -2.7483247  
C  -10.9478995   -1.1635392   -2.8505794  
C  -12.1418481   -0.8337946   -2.2390763  
O  -13.3087407   -1.3787162   -2.6912189  
C  -12.1701777    0.0650968   -1.1463695  
O  -13.4357472    0.2926322   -0.6464640  
C  -11.0219883    0.6449739   -0.6484445  
H   -8.0718018    1.3917746   -0.2678846  
H   -8.1614510   -1.3016268   -3.4988629  
H  -10.9486437   -1.8520987   -3.6842979  
H  -14.0114794   -1.0207021   -2.1333212  
H  -13.3661330    0.9099346    0.0881756  
H  -11.0749287    1.3300481    0.1896183  
C   -4.2186866    2.1401319   -0.0437262  
C   -5.4804249    1.7323143   -0.3144293  
C   -5.3466901    0.8217463   -1.4411417  
C   -3.8965667    0.7958597   -1.7293372  
N   -3.2302259    1.5666944   -0.9133753  
C   -3.3460097   -0.0004262   -2.7913647  
C   -4.2050302   -0.7376508   -3.5315799  
O   -3.8298204   -1.5261789   -4.5530898  
C   -5.6737592   -0.7329691   -3.2651709  
O   -6.3965397   -1.4282090   -3.9789288  
C   -6.2140638    0.0921566   -2.1701080  
H   -6.3895961    2.0144736    0.1884319  
H   -4.6590779   -1.9185769   -4.8809753  
H   -3.8917480    2.8223391    0.7248296  
C    0.0000000    0.0000000    0.0000000  
C    1.0662919   -0.0000103   -0.8334272  
C    0.4961868    0.0000066   -2.1718889  
C   -0.9663860   -0.0000849   -1.9540248  
N   -1.2632775   -0.0000084   -0.6828659  
C   -1.8985364   -0.0000515   -3.0477258  
C   -1.3925778    0.0004567   -4.3020543  
O   -2.1456385    0.0005412   -5.4151314  
C    0.0786229    0.0009326   -4.5544999  
O    0.4683756    0.0012594   -5.7221104  
C    1.0143162    0.0008443   -3.4159034  
H    2.1107195    0.0000631   -0.5721869  
H   -1.5042277    0.0009692   -6.1484420  
H    2.0724151    0.0013151   -3.6409746  
C    3.3041272   -0.0001177    3.0120429  
C    2.5845372    0.0004780    1.8395852  
C    1.2040006    0.0000008    2.1983588  
C    1.1422373   -0.0006037    3.6154372  
N    2.4348639   -0.0026109    4.0777464  
C   -0.0655181   -0.0008797    4.3197917  
C   -1.2321768   -0.0002324    3.5801400  
O   -2.4392816   -0.0001146    4.2172520  
C   -1.1911209    0.0000007    2.1655264  
O   -2.4371527    0.0002320    1.5732860  
C    0.0000000    0.0000000    1.4700000  
H    3.0031534    0.0000661    0.8477417  
H    2.7054629    0.0071099    5.0445261  
H   -0.1193549   -0.0014844    5.3997470  
H   -3.1132988    0.0000648    3.5251786  
H   -2.3200282    0.0004071    0.6183591  
H    4.3686625   -0.0004071    3.1724291  
