60

C    4.1385689   -0.0024256    5.0162170  
C    5.1699837   -0.0030012    5.9265194  
C    6.3849137   -0.0032657    5.1791595  
C    6.0289493   -0.0025393    3.8061286  
N    4.6576044   -0.0039929    3.7426600  
C    6.9774641   -0.0022609    2.7789435  
C    8.3095889   -0.0024173    3.1444850  
O    9.2771748   -0.0018085    2.1817847  
C    8.6846304   -0.0035146    4.5090946  
O   10.0494753   -0.0039553    4.7104416  
C    7.7494352   -0.0040629    5.5229663  
H    5.0602035   -0.0043105    6.9974726  
H    4.1157341    0.0066644    2.8975303  
H   10.1243251   -0.0023430    2.6461130  
H   10.2171556   -0.0046702    5.6578000  
H    8.0668274   -0.0050851    6.5591806  
H    3.0737392   -0.0024668    5.1746333  
C    6.6174608   -0.0017048    1.3537072  
C    5.3857487   -0.0012517    0.7819021  
C    5.5854748   -0.0008504   -0.6481134  
C    7.0449747   -0.0011378   -0.8641002  
N    7.6133360   -0.0012549    0.3888384  
C    7.6418658   -0.0012960   -2.0828803  
C    6.7899754   -0.0009490   -3.2605127  
O    7.2316300   -0.0009952   -4.4021091  
C    5.2415210   -0.0003890   -3.0553446  
O    4.5141870    0.0002132   -4.0393394  
C    4.7161325   -0.0005435   -1.6923264  
H    4.4446715   -0.0010218    1.3024657  
H    8.7143806   -0.0016366   -2.2193405  
H    8.5996515   -0.0030073    0.5738403  
C    3.2573665   -0.0002920   -1.5109385  
C    2.5379463   -0.0001709   -0.3591964  
C    1.1435038    0.0000331   -0.7338500  
C    1.1092599   -0.0000083   -2.2088477  
N    2.4227553    0.0001909   -2.6182613  
C   -0.0265539   -0.0002524   -2.9515660  
C   -1.3003040   -0.0002640   -2.2514977  
O   -2.3786790   -0.0004133   -2.8306421  
C   -1.2877727    0.0000311   -0.6895603  
O   -2.3539959    0.0003306   -0.0892030  
C    0.0000000    0.0000000    0.0000000  
H    2.9384091   -0.0000367    0.6389234  
H   -0.0296303   -0.0004086   -4.0327229  
H    2.7280482   -0.0013407   -3.5742119  
C    0.0000000    0.0000000    1.4700000  
C    1.0662921    0.0000102    2.3034270  
C    0.4961870   -0.0000064    3.6418889  
C   -0.9663858    0.0000850    3.4240247  
N   -1.2632773    0.0000084    2.1528658  
C   -1.8985362    0.0000517    4.5177257  
C   -1.3925775   -0.0004564    5.7720543  
O   -2.1456383   -0.0005410    6.8851312  
C    0.0786232   -0.0009323    6.0245000  
O    0.4683759   -0.0012588    7.1921102  
C    1.0143166   -0.0008442    4.8859032  
H    2.1107198   -0.0000632    2.0421868  
H   -2.9622183    0.0003270    4.3293377  
H   -1.5042274   -0.0009692    7.6184419  
H    2.0724152   -0.0013148    5.1109744  
