60

C    2.5735764   -2.1179270   -5.9617322  
C    1.9391419   -1.6189405   -7.0757217  
C    0.9107078   -0.7455665   -6.6129690  
C    0.9662629   -0.7513595   -5.1956450  
N    1.9857142   -1.5963088   -4.8331575  
C    0.0950450    0.0004357   -4.4015596  
C   -0.8492643    0.7723724   -5.0500745  
O   -1.7246254    1.5261841   -4.3230773  
C   -0.9206912    0.7910786   -6.4633567  
O   -1.9151540    1.6089117   -6.9588727  
C   -0.0617114    0.0494565   -7.2473692  
H    2.1863825   -1.8562013   -8.0962969  
H    2.2689340   -1.7929980   -3.8902465  
H   -2.2895725    1.9804026   -4.9616587  
H   -1.8950818    1.5642288   -7.9197076  
H   -0.1405650    0.0838163   -8.3276834  
H    3.3979816   -2.8057482   -5.8828893  
C    3.3321174    0.0004722   -1.3379336  
C    2.6974183    0.0000122   -2.5332313  
C    1.2800441   -0.0002113   -2.2052840  
C    1.2395036    0.0000646   -0.7271298  
N    2.4394063    0.0005463   -0.2131037  
C    0.0000000    0.0000000    0.0000000  
C   -1.1468699    0.0000637   -0.7169543  
O   -2.3742201    0.0000076   -0.1695489  
C   -1.1388769    0.0001611   -2.2096357  
O   -2.2206234    0.0000908   -2.7970412  
C    0.1454523    0.0001820   -2.9324241  
H    3.1367987   -0.0000643   -3.5160945  
H   -2.9844345    0.0001025   -0.9290168  
C    5.7595792    0.0007164   -2.0216246  
C    4.7795905    0.0008679   -1.0815729  
C    5.4318901    0.0011981    0.2065811  
C    6.8826353    0.0012559   -0.0619863  
N    7.0143620    0.0005553   -1.4314888  
C    7.8422297    0.0019360    0.8976402  
C    7.4178697    0.0024334    2.2877673  
O    8.2055936    0.0029964    3.2246727  
C    5.8864744    0.0021300    2.5953928  
O    5.5172093    0.0022369    3.7619704  
C    4.9477897    0.0016670    1.4761417  
H    8.9010988    0.0020959    0.6792256  
H    3.8891774    0.0016646    1.6976447  
H    5.6706935    0.0004920   -3.0958636  
H    7.8875236    0.0019722   -1.9260935  
C    2.5128556    2.1077716    2.9199648  
C    1.9592212    1.6432552    4.0696553  
C    0.8915788    0.7479214    3.6910360  
C    0.8684491    0.7287414    2.2159470  
N    1.8754542    1.5738793    1.8102719  
C    0.0000000    0.0000000    1.4700000  
C   -0.9772830   -0.8200135    2.1664417  
O   -1.8021297   -1.5120829    1.5842315  
C   -0.9711318   -0.8147624    3.7284083  
O   -1.7894187   -1.5009653    4.3257297  
C    0.0140216    0.0115358    4.4216297  
H    2.2638494    1.8988021    5.0689105  
H    0.0117648    0.0094386    5.5031631  
H    3.3327358    2.7953732    2.7900019  
H    2.1123206    1.7707734    0.8551938  
