62

C    6.5136081   -3.0868525   -5.1110081  
C    7.5737314   -2.9844343   -5.9817056  
C    7.6420981   -1.6212284   -6.3959471  
C    6.5895223   -0.9334518   -5.7394619  
N    5.9227654   -1.8531658   -4.9686323  
C    6.3552997    0.4338972   -5.9134901  
C    7.1992036    1.1194897   -6.7655269  
O    7.0157094    2.4562623   -6.9713954  
C    8.2547790    0.4507819   -7.4299105  
O    9.0068807    1.2714035   -8.2449367  
C    8.4862669   -0.8981800   -7.2589094  
H    8.2177934   -3.7930404   -6.2822627  
H    5.5547050    0.9639180   -5.4161695  
H    7.7025584    2.7338459   -7.5914375  
H    9.6975037    0.7421029   -8.6554044  
H    9.3025547   -1.3831096   -7.7814005  
H    6.1313049   -3.9425988   -4.5813844  
C    4.5546442   -2.0975049   -2.8456842  
C    3.3966022   -1.6333854   -2.3093946  
C    2.8128208   -0.7373022   -3.2794821  
C    3.7322610   -0.7172949   -4.4331804  
N    4.7679901   -1.5620814   -4.1068520  
C    3.5352971    0.0116907   -5.5607839  
C    2.3379415    0.8314598   -5.6435736  
O    2.0707008    1.5238117   -6.6169858  
C    1.3504336    0.8257213   -4.4333668  
O    0.3391712    1.5121845   -4.4914816  
C    1.6707636   -0.0012343   -3.2725974  
H    2.9970336   -1.8893867   -1.3442925  
H    4.2221659    0.0121010   -6.3957214  
H    5.2702683   -2.7854719   -2.4255964  
C    1.0965514    0.0001358   -0.8010306  
C    0.0000000    0.0000000    0.0000000  
C   -1.1546565    0.0001470   -0.8669508  
C   -0.6372019    0.0003520   -2.2486278  
N    0.7342867    0.0007338   -2.1395012  
C   -1.4147744    0.0001354   -3.3608712  
C   -2.8576052   -0.0001047   -3.1854454  
O   -3.6427785   -0.0002490   -4.1244896  
C   -3.4275841   -0.0000727   -1.7311660  
O   -4.6406832    0.0000333   -1.5710049  
C   -2.4891868   -0.0001090   -0.6116739  
H   -1.0150456    0.0001617   -4.3654239  
H   -2.8919122   -0.0002919    0.3920871  
H    2.1388270    0.0000663   -0.5261650  
C    0.0000000    0.0000000    1.4700000  
C    1.0521667    0.0011902    2.3562342  
C    0.4917218    0.0011957    3.6679131  
C   -0.9187428   -0.0003148    3.5178682  
N   -1.1833171    0.0009411    2.1707914  
C   -1.7951701   -0.0010350    4.6072090  
C   -1.2375837   -0.0005224    5.8710424  
O   -2.0474215   -0.0015360    6.9697579  
C    0.1673580    0.0013566    6.0411963  
O    0.5673524    0.0020687    7.3615553  
C    1.0325770    0.0023412    4.9669890  
H    2.0953057    0.0030649    2.0900562  
H   -2.0989778   -0.0102372    1.7591824  
H   -2.8710934   -0.0020419    4.4995513  
H   -1.4634884   -0.0006497    7.7393593  
H    1.5290710    0.0033153    7.3880045  
H    2.1042148    0.0039609    5.1284455  
