62

C    8.1095235   -0.0125747   -1.0772940  
C    8.4329404   -0.0146904    0.2598162  
C    9.8567654   -0.0312514    0.3437649  
C   10.3520075   -0.0384209   -0.9853744  
N    9.2646962   -0.0286989   -1.8233939  
C   11.7179133   -0.0543970   -1.2834263  
C   12.5999466   -0.0629906   -0.2203547  
O   13.9445250   -0.0782854   -0.4546354  
C   12.1251591   -0.0564215    1.1128182  
O   13.1281020   -0.0668849    2.0600977  
C   10.7777945   -0.0409348    1.4075962  
H    7.7291917   -0.0065409    1.0744718  
H    9.3051726   -0.0201532   -2.8265237  
H   12.1017727   -0.0600763   -2.2942785  
H   14.3725540   -0.0823401    0.4114135  
H   12.7225441   -0.0614880    2.9325063  
H   10.4439794   -0.0364131    2.4386274  
C    5.5836005   -0.0008282   -1.0808163  
C    4.5679461   -0.0016854   -2.0086701  
C    5.1807168   -0.0015774   -3.2967354  
C    6.5840020   -0.0009183   -3.0900574  
N    6.7941555    0.0014752   -1.7334266  
C    7.5035533   -0.0009455   -4.1432502  
C    6.9972727   -0.0019578   -5.4284959  
O    7.8506655   -0.0023820   -6.4937341  
C    5.6003149   -0.0022512   -5.6550446  
O    5.2537729   -0.0028622   -6.9904296  
C    4.6925710   -0.0019514   -4.6165225  
H    8.5742737   -0.0003012   -3.9923864  
H    7.2981735   -0.0027858   -7.2862092  
H    4.2938967   -0.0030529   -7.0555555  
H    3.6282967   -0.0020065   -4.8209694  
H    5.5402815   -0.0002318   -0.0051389  
C    3.1301149   -0.0010311   -1.7028252  
C    2.5367768   -0.0002767   -0.4864665  
C    1.1089904    0.0001028   -0.7656183  
C    1.0177872   -0.0004148   -2.2415132  
N    2.1993578   -0.0011611   -2.7963820  
C   -0.2459209   -0.0002877   -2.9257118  
C   -1.3675319   -0.0000605   -2.1698524  
O   -2.6129313    0.0000867   -2.6748490  
C   -1.3083584    0.0000910   -0.6783232  
O   -2.3693261    0.0004206   -0.0541692  
C    0.0000000    0.0000000    0.0000000  
H    3.0096017   -0.0001007    0.4807525  
H   -0.2829630   -0.0004687   -4.0053125  
H   -3.1967441    0.0002094   -1.8949034  
C    0.8175213    0.6860729    2.3021913  
C    0.0000000    0.0000000    1.4700000  
C   -0.8887526   -0.7456559    2.3478473  
C   -0.4549825   -0.3816753    3.7138435  
N    0.5448156    0.4573574    3.6934124  
C   -1.0945674   -0.9182058    4.8835240  
C   -2.1210866   -1.7789155    4.6970523  
O   -2.8083856   -2.3554314    5.6976972  
C   -2.5824069   -2.1655116    3.3310774  
O   -3.5227682   -2.9541547    3.2362962  
C   -1.9100805   -1.6015804    2.1470656  
H   -0.7567140   -0.6349833    5.8697035  
H   -3.4728268   -2.9124471    5.2533954  
H   -2.2742832   -1.9066565    1.1752040  
H    1.6189533    1.3585343    2.0405121  
