60

C    6.6549770   -3.2381148   -4.8667985  
C    7.7625838   -3.1912200   -5.6813384  
C    7.8896207   -1.8446212   -6.1342537  
C    6.8222405   -1.1092842   -5.5581420  
N    6.0906966   -1.9859490   -4.7959611  
C    6.6344768    0.2570019   -5.7879159  
C    7.5409123    0.8926123   -6.6140823  
O    7.4046711    2.2260211   -6.8719045  
C    8.6122226    0.1759909   -7.1985188  
O    9.4286641    0.9500431   -7.9970232  
C    8.7979118   -1.1719558   -6.9724974  
H    8.3998740   -4.0252452   -5.9206221  
H    5.8229142    0.8231251   -5.3519419  
H    8.1309503    2.4655978   -7.4621459  
H   10.1258197    0.3902756   -8.3523224  
H    9.6276974   -1.6942536   -7.4341664  
H    6.2220132   -4.0659926   -4.3318968  
C    4.5939382   -2.1037472   -2.7696736  
C    4.8996526   -1.6376001   -4.0079464  
C    3.8355765   -0.7416508   -4.3950543  
C    2.8780295   -0.7238869   -3.2727447  
N    3.3957277   -1.5703485   -2.3196545  
C    1.7334695    0.0049281   -3.2500363  
C    1.4239148    0.8265213   -4.4083522  
O    0.4172710    1.5187840   -4.4841261  
C    2.4237222    0.8227865   -5.6084260  
O    2.1735667    1.5103259   -6.5892281  
C    3.6246410   -0.0037444   -5.5162756  
H    4.3119033   -0.0005912   -6.3513712  
H    5.1430571   -2.7922310   -2.1481048  
H    2.9698479   -1.7683917   -1.4328329  
C    1.1319246    0.0015678   -0.8009268  
C    0.7969914    0.0034958   -2.1169401  
C   -0.6453340    0.0035696   -2.1842669  
C   -1.1266832    0.0015410   -0.7896025  
N    0.0000000    0.0000000    0.0000000  
C   -2.4346129    0.0013913   -0.4276292  
C   -3.4350111    0.0031335   -1.4820181  
O   -4.6384614    0.0030875   -1.2583914  
C   -2.9478961    0.0050442   -2.9661074  
O   -3.7809382    0.0062135   -3.8623773  
C   -1.5113825    0.0053055   -3.2312122  
H   -2.7664565    0.0000174    0.6013448  
H   -1.1823533    0.0068381   -4.2614848  
H    2.1104316    0.0009435   -0.3488059  
C    2.5528530    2.1414826    2.8079335  
C    2.0663498    1.7338582    4.0032312  
C    0.9804344    0.8229586    3.6752840  
C    0.9495562    0.7966882    2.1971295  
N    1.8690446    1.5676019    1.6831036  
C    0.0000000    0.0000000    1.4700000  
C   -0.8785127   -0.7372425    2.1869543  
O   -1.8187535   -1.5261249    1.6395491  
C   -0.8723269   -0.7321790    3.6796354  
O   -1.7010379   -1.4274584    4.2670412  
C    0.1115397    0.0933559    4.4024240  
H    2.4028853    2.0163452    4.9860947  
H   -2.2861435   -1.9184361    2.3990168  
H    0.0832434    0.0693689    5.4835595  
H    3.3664920    2.8238276    2.6198634  
