60

C   -3.2966998    0.0026943   -7.1907178  
C   -4.0096857    0.0037578   -6.0142325  
C   -5.3922178    0.0045999   -6.3652393  
C   -5.4619472    0.0037067   -7.7819473  
N   -4.1719401    0.0045097   -8.2515195  
C   -6.6736441    0.0038801   -8.4795012  
C   -7.8361258    0.0046679   -7.7333005  
O   -9.0467940    0.0045197   -8.3636147  
C   -7.7871161    0.0059409   -6.3189407  
O   -9.0297978    0.0070289   -5.7197040  
C   -6.5921036    0.0060440   -5.6301225  
H   -3.5854989    0.0050133   -5.0247595  
H   -3.9067871   -0.0064032   -9.2197937  
H   -6.7335529    0.0033470   -9.5591357  
H   -9.7169091    0.0054554   -7.6677631  
H   -8.9073066    0.0078218   -4.7654510  
H   -6.5860095    0.0072151   -4.5464071  
C    0.0950448    0.0004350   -4.4015596  
C    1.1192393    0.0002596   -5.2932436  
C    0.5298380    0.0006949   -6.6113645  
C   -0.9321738    0.0011706   -6.4130916  
N   -1.1298099    0.0005870   -5.0515376  
C   -1.8443594    0.0020605   -7.4178900  
C   -1.3534356    0.0023585   -8.7859286  
O   -2.0950470    0.0030847   -9.7597423  
C    0.1910164    0.0016124   -9.0193234  
O    0.6161255    0.0015485  -10.1667301  
C    1.0746171    0.0009551   -7.8560944  
H    2.1679381   -0.0003125   -5.0548237  
H    2.1426822    0.0006461   -8.0262737  
H   -2.0258137    0.0022750   -4.5996288  
C    3.3321173    0.0004714   -1.3379336  
C    2.6974184    0.0000115   -2.5332313  
C    1.2800437   -0.0002119   -2.2052840  
C    1.2395034    0.0000643   -0.7271298  
N    2.4394063    0.0005459   -0.2131037  
C    0.0000000    0.0000000    0.0000000  
C   -1.1468702    0.0000634   -0.7169544  
O   -2.3742202    0.0000072   -0.1695489  
C   -1.1388770    0.0001606   -2.2096356  
O   -2.2206231    0.0000903   -2.7970412  
C    0.1454523    0.0001814   -2.9324241  
H    3.1367986   -0.0000653   -3.5160949  
H   -2.9844345    0.0001025   -0.9290168  
H    4.3940040    0.0007618   -1.1498638  
C    0.0000000    0.0000000    1.4700000  
C    1.0541688    0.0001722    2.3260392  
C    0.5103138    0.0000454    3.6635956  
C   -0.9576371   -0.0002459    3.5155732  
N   -1.2018458    0.0001392    2.1615969  
C   -1.8348311   -0.0008317    4.5510609  
C   -1.2972847   -0.0009736    5.9014604  
O   -2.0050672   -0.0014265    6.9001319  
C    0.2542623   -0.0004184    6.0817573  
O    0.7184670   -0.0002256    7.2139121  
C    1.0974552   -0.0000873    4.8889129  
H    2.0940752    0.0005483    2.0517982  
H   -2.9081052   -0.0011668    4.4207061  
H    2.1707277    0.0000911    5.0223670  
H   -2.1128194   -0.0014912    1.7406791  
