64

C    2.4358064   -3.0509215   -9.0398520  
C    2.1167923   -1.8278575   -8.4968864  
C    2.0758579   -0.8924954   -9.5729997  
C    2.3805260   -1.6087075  -10.7588094  
N    2.5955441   -2.9159994  -10.3991273  
C    2.4298443   -1.0017497  -12.0173636  
C    2.1665118    0.3528379  -12.0800315  
O    2.2008205    0.9955749  -13.2836616  
C    1.8609471    1.0847289  -10.9079474  
O    1.6233240    2.4245600  -11.1353928  
C    1.8123827    0.4866566   -9.6659822  
H    2.8206753   -3.6624461  -11.0316737  
H    2.6615846   -1.5420109  -12.9248962  
H    1.9910618    1.9214741  -13.1048430  
H    1.4247918    2.8454690  -10.2933576  
H    1.5757353    1.0731237   -8.7859069  
H    2.5634431   -4.0085586   -8.5648789  
C    2.5715460   -2.1234227   -6.0298477  
C    2.0605229   -1.6614591   -4.8390870  
C    0.9917284   -0.7734885   -5.1612472  
C    0.8962444   -0.7330737   -6.5758760  
N    1.8711844   -1.5624823   -7.0720513  
C   -0.0522659    0.0437218   -7.2479668  
C   -0.9203938    0.7931399   -6.4779637  
O   -1.8663530    1.5692037   -7.0828604  
C   -0.8406071    0.7663228   -5.0652602  
O   -1.7742823    1.5671135   -4.4404977  
C    0.0950446    0.0004351   -4.4015596  
H    2.4152487   -1.9304416   -3.8588774  
H   -0.1301220    0.0789826   -8.3258795  
H   -2.3586956    2.0022708   -6.3734118  
H   -1.6519911    1.4915157   -3.4892178  
H    3.3811318   -2.8075602   -6.2182240  
C    3.3321173    0.0004713   -1.3379338  
C    2.6974181    0.0000116   -2.5332314  
C    1.2800438   -0.0002119   -2.2052841  
C    1.2395034    0.0000643   -0.7271299  
N    2.4394062    0.0005460   -0.2131038  
C    0.0000000    0.0000000    0.0000000  
C   -1.1468702    0.0000634   -0.7169543  
O   -2.3742203    0.0000074   -0.1695487  
C   -1.1388770    0.0001607   -2.2096355  
O   -2.2206234    0.0000905   -2.7970411  
C    0.1454522    0.0001815   -2.9324241  
H    3.1367984   -0.0000653   -3.5160950  
H   -2.9844346    0.0001026   -0.9290167  
H    4.3940038    0.0007618   -1.1498640  
C    2.5311839    2.1237619    3.0120429  
C    1.9795631    1.6616747    1.8395852  
C    0.9223175    0.7739173    2.1983588  
C    0.8753926    0.7337535    3.6154372  
N    1.8668922    1.5631002    4.0777464  
C   -0.0496243   -0.0427881    4.3197917  
C   -0.9437528   -0.7922060    3.5801400  
O   -1.8685244   -1.5680278    4.2172520  
C   -0.9124520   -0.7656372    2.1655264  
O   -1.8671164   -1.5663939    1.5732860  
C    0.0000000    0.0000000    1.4700000  
H    2.3005065    1.9304404    0.8477417  
H    2.0679347    1.7444845    5.0445261  
H   -0.0904770   -0.0778569    5.3997470  
H   -2.3849669   -2.0011402    3.5251786  
H   -1.7775064   -1.4909735    0.6183591  
H    3.3468514    2.8078103    3.1724291  
