60

C   -3.9737217    0.7080826   -1.7936959  
C   -5.3255069    0.4571937   -1.8405992  
C   -5.5431726   -0.4515257   -2.9183055  
C   -4.2766877   -0.7219841   -3.4969203  
N   -3.3460098   -0.0004261   -2.7913644  
C   -4.1113768   -1.5812561   -4.5873846  
C   -5.2451926   -2.1786161   -5.1029440  
O   -5.1408326   -3.0267399   -6.1672790  
C   -6.5176428   -1.9210278   -4.5396184  
O   -7.5485243   -2.5911712   -5.1653480  
C   -6.6815055   -1.0732370   -3.4640140  
H   -6.0640067    0.8782974   -1.1800818  
H   -3.1488754   -1.7914285   -5.0330533  
H   -6.0370800   -3.3281937   -6.3650960  
H   -8.3722217   -2.3622433   -4.7240796  
H   -7.6687539   -0.8951300   -3.0540169  
H   -3.4078307    1.3374795   -1.1284252  
C    0.0000000    0.0000000    0.0000000  
C    1.0662918   -0.0000103   -0.8334272  
C    0.4961866    0.0000066   -2.1718888  
C   -0.9663862   -0.0000848   -1.9540246  
N   -1.2632777   -0.0000084   -0.6828658  
C   -1.8985367   -0.0000514   -3.0477256  
C   -1.3925783    0.0004569   -4.3020543  
O   -2.1456389    0.0005417   -5.4151310  
C    0.0786225    0.0009329   -4.5544999  
O    0.4683752    0.0012595   -5.7221105  
C    1.0143159    0.0008446   -3.4159033  
H    2.1107193    0.0000632   -0.5721869  
H   -1.5042282    0.0009699   -6.1484418  
C    2.4521470    0.0014842   -3.7217487  
C    3.5087816    0.0013023   -2.8687549  
C    4.7039139    0.0022083   -3.6789976  
C    4.2537117    0.0029674   -5.0840268  
N    2.8785556    0.0020817   -5.0411859  
C    5.0840310    0.0043219   -6.1574662  
C    6.5167198    0.0048564   -5.9126445  
O    7.3462762    0.0060005   -6.8127192  
C    7.0158834    0.0038171   -4.4325636  
O    8.2198443    0.0039486   -4.2140713  
C    6.0245760    0.0026612   -3.3596421  
H    3.4569030    0.0004298   -1.7945474  
H    4.7332257    0.0049894   -7.1801313  
H    6.3784131    0.0021517   -2.3376229  
H    2.2773129    0.0038593   -5.8446485  
C    1.0672568    0.0000697    2.3021913  
C    0.0000000    0.0000000    1.4700000  
C   -1.1601224    0.0000736    2.3478473  
C   -0.5938729    0.0000769    3.7138435  
N    0.7113367    0.0001554    3.6934124  
C   -1.4286986    0.0001879    4.8835240  
C   -2.7683114    0.0006799    4.6970523  
O   -3.6653903    0.0008304    5.6976972  
C   -3.3702025    0.0010610    3.3310774  
O   -4.5974910    0.0013779    3.2362962  
C   -2.4926826    0.0008943    2.1470656  
H   -0.9878360   -0.0000190    5.8697035  
H   -4.5324246    0.0012261    5.2533954  
H   -2.9677772    0.0012974    1.1752040  
H    2.1134392    0.0000545    2.0405121  
