62

C    5.0606022   -1.0740804   -6.7502869  
C    6.0735969   -1.9601658   -6.4653995  
C    6.7580619   -2.2178129   -7.6900322  
C    6.1125732   -1.4543456   -8.6962074  
N    5.0851694   -0.7731742   -8.0920026  
C    6.5231219   -1.4635143  -10.0326794  
C    7.6051844   -2.2576344  -10.3593156  
O    8.0480038   -2.3035040  -11.6495944  
C    8.2621209   -3.0268585   -9.3695958  
O    9.3221450   -3.7659162   -9.8527988  
C    7.8574801   -3.0185083   -8.0509900  
H    6.2916237   -2.3712180   -5.4945778  
H    4.4567318   -0.1412969   -8.5543641  
H    6.0353112   -0.8840207  -10.8043205  
H    8.8007240   -2.9089770  -11.6585770  
H    9.7100627   -4.2556401   -9.1211614  
H    8.3801914   -3.6183321   -7.3151494  
C    3.9300170   -0.7219423   -4.5190964  
C    2.8699641   -0.0020530   -4.0185824  
C    2.3084610    0.7252951   -5.1095815  
C    3.0740003    0.4064308   -6.2603207  
N    4.0515276   -0.4731893   -5.8662066  
C    2.8029524    0.9445742   -7.5219558  
C    1.7395403    1.8203320   -7.6238416  
O    1.4306806    2.3746757   -8.8322792  
C    0.9641562    2.1511178   -6.4871013  
O   -0.0597837    3.0371512   -6.7513650  
C    1.2311460    1.6208145   -5.2421026  
H    3.3827123    0.7056831   -8.4028712  
H    0.6670882    2.9472679   -8.6828509  
H   -0.5337212    3.2075145   -5.9316319  
H    0.6198245    1.8929815   -4.3896417  
H    4.6099240   -1.3920555   -4.0214687  
C    3.2573670   -0.0002921   -1.5109382  
C    2.5379468   -0.0001711   -0.3591962  
C    1.1435043    0.0000330   -0.7338498  
C    1.1092608   -0.0000085   -2.2088474  
N    2.4227562    0.0001906   -2.6182610  
C   -0.0265533   -0.0002525   -2.9515663  
C   -1.3003033   -0.0002641   -2.2514979  
O   -2.3786785   -0.0004132   -2.8306425  
C   -1.2877724    0.0000310   -0.6895608  
O   -2.3539956    0.0003306   -0.0892035  
C    0.0000000    0.0000000    0.0000000  
H    2.9384091   -0.0000370    0.6389240  
H   -0.0296290   -0.0004088   -4.0327231  
H    4.3270394   -0.0004767   -1.6439445  
C    2.5128556    2.1077716    2.9199648  
C    1.9592212    1.6432552    4.0696553  
C    0.8915788    0.7479214    3.6910360  
C    0.8684491    0.7287414    2.2159470  
N    1.8754542    1.5738793    1.8102719  
C    0.0000000    0.0000000    1.4700000  
C   -0.9772830   -0.8200135    2.1664417  
O   -1.8021297   -1.5120829    1.5842315  
C   -0.9711318   -0.8147624    3.7284083  
O   -1.7894187   -1.5009653    4.3257297  
C    0.0140216    0.0115358    4.4216297  
H    2.2638494    1.8988021    5.0689105  
H    0.0117648    0.0094386    5.5031631  
H    3.3327358    2.7953732    2.7900019  
H    2.1123206    1.7707734    0.8551938  
