62

C    7.1564525   -0.0000433    2.6479581  
C    5.9031558   -0.0021398    3.2151534  
C    6.0863316   -0.0029967    4.6297365  
C    7.4845368   -0.0010477    4.8683659  
N    8.1049887   -0.0012348    3.6437620  
C    8.0321991   -0.0009395    6.1547777  
C    7.1523525   -0.0025263    7.2196935  
O    7.6333827   -0.0021471    8.4970445  
C    5.7540020   -0.0048576    7.0019162  
O    5.0104752   -0.0066498    8.1640307  
C    5.2130176   -0.0052390    5.7331137  
H    4.9715041   -0.0040567    2.6756957  
H    9.0980132    0.0104632    3.4962916  
H    9.0969245    0.0003969    6.3433511  
H    6.8623958   -0.0037441    9.0791465  
H    4.0777161   -0.0081388    7.9283150  
H    4.1378066   -0.0072274    5.5974806  
C    4.7795901    0.0008674   -1.0815733  
C    5.8357360    0.0020741   -1.9630616  
C    7.0295750    0.0025512   -1.1824547  
C    6.6358520    0.0012980    0.1802289  
N    5.2632773    0.0022471    0.2058247  
C    7.5556543    0.0010562    1.2332014  
C    8.8973612    0.0017913    0.9045662  
O    9.8380075    0.0012447    1.8936044  
C    9.3099229    0.0034197   -0.4491722  
O   10.6798046    0.0044029   -0.6127733  
C    8.4030660    0.0039324   -1.4884696  
H    5.7555549    0.0036569   -3.0366359  
H    4.6982915   -0.0088488    1.0356738  
H   10.6976506    0.0022148    1.4528343  
H   10.8735673    0.0054535   -1.5551419  
H    8.7489360    0.0053693   -2.5155289  
C    3.3321168    0.0004716   -1.3379341  
C    2.6974177    0.0000118   -2.5332316  
C    1.2800432   -0.0002116   -2.2052842  
C    1.2395033    0.0000644   -0.7271298  
N    2.4394059    0.0005460   -0.2131041  
C    0.0000000    0.0000000    0.0000000  
C   -1.1468704    0.0000635   -0.7169542  
O   -2.3742206    0.0000074   -0.1695488  
C   -1.1388774    0.0001608   -2.2096352  
O   -2.2206238    0.0000906   -2.7970409  
C    0.1454514    0.0001818   -2.9324241  
H    3.1367978   -0.0000649   -3.5160956  
H   -2.9844350    0.0001027   -0.9290164  
H    0.1083567    0.0003684   -4.0135594  
C    0.8175213    0.6860729    2.3021913  
C    0.0000000    0.0000000    1.4700000  
C   -0.8887526   -0.7456559    2.3478473  
C   -0.4549825   -0.3816753    3.7138435  
N    0.5448156    0.4573574    3.6934124  
C   -1.0945674   -0.9182058    4.8835240  
C   -2.1210866   -1.7789155    4.6970523  
O   -2.8083856   -2.3554314    5.6976972  
C   -2.5824069   -2.1655116    3.3310774  
O   -3.5227682   -2.9541547    3.2362962  
C   -1.9100805   -1.6015804    2.1470656  
H   -0.7567140   -0.6349833    5.8697035  
H   -3.4728268   -2.9124471    5.2533954  
H   -2.2742832   -1.9066565    1.1752040  
H    1.6189533    1.3585343    2.0405121  
