60

C    3.6942772   -5.3248927   -7.9839500  
C    2.9926762   -4.4027536   -7.2424082  
C    3.1290336   -3.1462120   -7.9035498  
C    3.9311959   -3.3653988   -9.0526436  
N    4.2588229   -4.6984279   -9.0703111  
C    4.2721102   -2.3429364   -9.9432263  
C    3.7942935   -1.0761876   -9.6689699  
O    4.0967318   -0.0412030  -10.5058410  
C    2.9928191   -0.8375087   -8.5272660  
O    2.5951568    0.4766265   -8.3921502  
C    2.6563292   -1.8456644   -7.6481055  
H    2.4503386   -4.6100093   -6.3358170  
H    4.8131105   -5.1505324   -9.7748282  
H    4.8832244   -2.5034464  -10.8207106  
H    3.6704997    0.7427415  -10.1356754  
H    2.0585005    0.5517990   -7.5971960  
H    3.8378466   -6.3796328   -7.8231103  
C    2.0060354   -2.0933380   -5.2079955  
C    1.0681402   -1.6309435   -4.3416130  
C    0.2140993   -0.7346501   -5.0846522  
C    0.7350360   -0.7126395   -6.4648445  
N    1.8215796   -1.5565848   -6.4731481  
C    0.2009225    0.0171137   -7.4767179  
C   -0.9646766    0.8356540   -7.1870526  
O   -1.5183203    1.5285627   -8.0306493  
C   -1.5330621    0.8277890   -5.7321707  
O   -2.5138752    1.5132041   -5.4762939  
C   -0.8712826    0.0001710   -4.7267111  
H    0.9842757   -1.8882192   -3.3007526  
H    0.5983671    0.0189970   -8.4821753  
H    2.8165825   -2.7808931   -5.0286319  
C    1.0965514    0.0001359   -0.8010305  
C    0.0000000    0.0000000    0.0000000  
C   -1.1546563    0.0001470   -0.8669513  
C   -0.6372014    0.0003519   -2.2486282  
N    0.7342871    0.0007337   -2.1395014  
C   -1.4147739    0.0001352   -3.3608717  
C   -2.8576049   -0.0001048   -3.1854462  
O   -3.6427779   -0.0002494   -4.1244907  
C   -3.4275840   -0.0000725   -1.7311666  
O   -4.6406831    0.0000333   -1.5710060  
C   -2.4891867   -0.0001091   -0.6116744  
H   -2.8919122   -0.0002918    0.3920866  
H    2.1388272    0.0000663   -0.5261648  
H    1.3735872   -0.0006099   -2.9130262  
C    0.0000000    0.0000000    1.4700000  
C    1.0541688    0.0001722    2.3260392  
C    0.5103138    0.0000454    3.6635956  
C   -0.9576371   -0.0002459    3.5155732  
N   -1.2018458    0.0001392    2.1615969  
C   -1.8348311   -0.0008317    4.5510609  
C   -1.2972847   -0.0009736    5.9014604  
O   -2.0050672   -0.0014265    6.9001319  
C    0.2542623   -0.0004184    6.0817573  
O    0.7184670   -0.0002256    7.2139121  
C    1.0974552   -0.0000873    4.8889129  
H    2.0940752    0.0005483    2.0517982  
H   -2.9081052   -0.0011668    4.4207061  
H    2.1707277    0.0000911    5.0223670  
H   -2.1128194   -0.0014912    1.7406791  
