60

C    3.4139327   -0.7157106   -3.0486430  
C    2.4521480    0.0014830   -3.7217483  
C    3.1196678    0.7293942   -4.7509045  
C    4.4992575    0.4136353   -4.6562809  
N    4.6435344   -0.4647552   -3.6111822  
C    5.4593789    0.9531296   -5.5176186  
C    5.0187445    1.8270698   -6.4924252  
O    5.9138847    2.3826163   -7.3602413  
C    3.6464060    2.1547521   -6.6025488  
O    3.3663363    3.0392793   -7.6235855  
C    2.6987037    1.6231153   -5.7529906  
H    5.5104848   -0.8729912   -3.3116471  
H    6.5123601    0.7166040   -5.4506373  
H    5.4042989    2.9535767   -7.9498100  
H    2.4191006    3.2075626   -7.6289354  
H    1.6547132    1.8928996   -5.8615160  
H    3.3203042   -1.3852968   -2.2108799  
C    0.0000000    0.0000000    0.0000000  
C    1.0662921   -0.0000106   -0.8334269  
C    0.4961870    0.0000059   -2.1718889  
C   -0.9663856   -0.0000854   -1.9540246  
N   -1.2632773   -0.0000087   -0.6828657  
C   -1.8985362   -0.0000522   -3.0477258  
C   -1.3925773    0.0004558   -4.3020541  
O   -2.1456384    0.0005402   -5.4151311  
C    0.0786236    0.0009315   -4.5544999  
O    0.4683762    0.0012578   -5.7221098  
C    1.0143167    0.0008435   -3.4159031  
H    2.1107198    0.0000631   -0.5721865  
H   -1.5042271    0.0009682   -6.1484419  
C   -3.9834213    0.7255588   -1.7966836  
C   -5.3237509    0.5085133   -1.8186565  
C   -5.5825287   -0.4184194   -2.8950697  
C   -4.2737046   -0.7258316   -3.5027434  
N   -3.3460094   -0.0004268   -2.7913647  
C   -4.0918496   -1.5661191   -4.5527673  
C   -5.2633971   -2.2105927   -5.1225620  
O   -5.2038133   -2.9838548   -6.0695659  
C   -6.6595190   -1.8994079   -4.4950174  
O   -7.6531000   -2.4358571   -4.9664833  
C   -6.7288173   -0.9765515   -3.3648025  
H   -6.0484724    0.9477749   -1.1565068  
H   -3.1230855   -1.7780515   -4.9834534  
H   -7.6992177   -0.7665493   -2.9359132  
H   -3.4077088    1.3549549   -1.1376654  
C    3.2798086   -0.0005857    2.9199648  
C    2.5571146   -0.0005566    4.0696553  
C    1.1637436   -0.0001548    3.6910360  
C    1.1336965    0.0000200    2.2159470  
N    2.4483514    0.0001428    1.8102719  
C    0.0000000    0.0000000    1.4700000  
C   -1.2757367    0.0000186    2.1664417  
O   -2.3524596    0.0000640    1.5842315  
C   -1.2676493    0.0000873    3.7284083  
O   -2.3355761    0.0004100    4.3257297  
C    0.0181563   -0.0001760    4.4216297  
H    2.9547357   -0.0006076    5.0689105  
H    0.0150794   -0.0003319    5.5031631  
H    4.3498549   -0.0008612    2.7900019  
H    2.7563627   -0.0012824    0.8551938  
