60

C    1.2728640   -3.2162341  -10.1575468  
C    0.7986539   -2.5113066   -9.0755719  
C    0.6782105   -1.1504395   -9.4856147  
C    1.0965611   -1.0850612  -10.8393626  
N    1.4527526   -2.3563422  -11.2156469  
C    1.1090072    0.1066865  -11.5703694  
C    0.6912376    1.2532702  -10.9230736  
O    0.6831112    2.4440981  -11.5900643  
C    0.2705414    1.2083583   -9.5725872  
O   -0.1154920    2.4336487   -9.0696111  
C    0.2582589    0.0330691   -8.8507340  
H    0.5689648   -2.9266314   -8.1092692  
H    1.7805887   -2.6215006  -12.1267964  
H    1.4268434    0.1632010  -12.6023522  
H    0.3619638    3.1057208  -10.9636578  
H   -0.3846492    2.3152705   -8.1535632  
H    1.4983667   -4.2641175  -10.2577880  
C    1.7720688   -2.0859335   -5.3149821  
C    0.8968264   -1.6247192   -4.3847633  
C   -0.0065336   -0.7270828   -5.0652227  
C    0.4171842   -0.7029982   -6.4782596  
N    1.5002594   -1.5471470   -6.5634086  
C   -0.1857664    0.0284587   -7.4494065  
C   -1.3281506    0.8467739   -7.0781196  
O   -1.9388951    1.5411249   -7.8800982  
C   -1.7940047    0.8367265   -5.5872531  
O   -2.7544404    1.5219333   -5.2627298  
C   -1.0641734    0.0073898   -4.6315339  
H    0.8854566   -1.8836209   -3.3409939  
H    2.5929126   -2.7739333   -5.1934844  
H    2.0129033   -1.7433394   -7.4034991  
C    1.1319248    0.0015675   -0.8009270  
C    0.7969916    0.0034959   -2.1169404  
C   -0.6453336    0.0035703   -2.1842672  
C   -1.1266831    0.0015415   -0.7896027  
N    0.0000000    0.0000000    0.0000000  
C   -2.4346129    0.0013924   -0.4276297  
C   -3.4350110    0.0031352   -1.4820184  
O   -4.6384610    0.0030897   -1.2583919  
C   -2.9478958    0.0050460   -2.9661075  
O   -3.7809377    0.0062160   -3.8623775  
C   -1.5113821    0.0053068   -3.2312125  
H    1.4821240    0.0045436   -2.9459192  
H   -2.7664565    0.0000185    0.6013447  
H    2.1104318    0.0009428   -0.3488058  
C    2.5128556    2.1077716    2.9199648  
C    1.9592212    1.6432552    4.0696553  
C    0.8915788    0.7479214    3.6910360  
C    0.8684491    0.7287414    2.2159470  
N    1.8754542    1.5738793    1.8102719  
C    0.0000000    0.0000000    1.4700000  
C   -0.9772830   -0.8200135    2.1664417  
O   -1.8021297   -1.5120829    1.5842315  
C   -0.9711318   -0.8147624    3.7284083  
O   -1.7894187   -1.5009653    4.3257297  
C    0.0140216    0.0115358    4.4216297  
H    2.2638494    1.8988021    5.0689105  
H    0.0117648    0.0094386    5.5031631  
H    3.3327358    2.7953732    2.7900019  
H    2.1123206    1.7707734    0.8551938  
