62

C    5.9393541    0.7149216   -5.9565866  
C    5.7843538    0.4660341   -7.3006465  
C    6.8176468   -0.4420744   -7.6778004  
C    7.5784998   -0.7142400   -6.5120584  
N    7.0194391    0.0057587   -5.4855742  
C    8.6814633   -1.5734609   -6.5123352  
C    9.0223785   -2.1690143   -7.7111980  
O   10.0904226   -3.0170043   -7.7678368  
C    8.2757560   -1.9097059   -8.8851362  
O    8.7409511   -2.5781640   -9.9987342  
C    7.1877032   -1.0619640   -8.8856580  
H    5.0211656    0.8880462   -7.9318697  
H    9.2655630   -1.7849294   -5.6272869  
H   10.1525211   -3.3170863   -8.6840031  
H    8.1818797   -2.3481434  -10.7471566  
H    6.6351914   -0.8825153   -9.8005383  
H    5.3657859    1.3433069   -5.2969579  
C    4.7577216    0.0005129   -1.7610467  
C    5.7407058   -0.0008418   -0.8308213  
C    6.9792949    0.0003734   -1.5939698  
C    6.5459652    0.0023747   -3.0077610  
N    5.2447612    0.0025462   -3.1119592  
C    7.4885871    0.0040732   -4.0924490  
C    8.8042951    0.0041744   -3.7790086  
O    9.7927577    0.0056658   -4.6894925  
C    9.2731064    0.0025541   -2.3618376  
O   10.4857521    0.0026215   -2.1503872  
C    8.2866182    0.0007834   -1.2669577  
H    5.6379822   -0.0023749    0.2408692  
H   10.6134433    0.0053475   -4.1644898  
H    8.6668151   -0.0002416   -0.2541992  
C    3.3041270    0.0001177   -1.5420435  
C    2.5845370   -0.0004780   -0.3695856  
C    1.2040004   -0.0000007   -0.7283590  
C    1.1422370    0.0006038   -2.1454373  
N    2.4348634    0.0026110   -2.6077469  
C   -0.0655187    0.0008799   -2.8497918  
C   -1.2321769    0.0002326   -2.1101398  
O   -2.4392822    0.0001149   -2.7472517  
C   -1.1911211   -0.0000007   -0.6955263  
O   -2.4371526   -0.0002319   -0.1032858  
C    0.0000000    0.0000000    0.0000000  
H    3.0031534   -0.0000661    0.6222578  
H    2.7054623   -0.0071098   -3.5745266  
H   -0.1193555    0.0014846   -3.9297472  
H   -3.1132992   -0.0000646   -2.0551783  
H   -2.3200279   -0.0004070    0.8516411  
C    0.0000000    0.0000000    1.4700000  
C    1.0662921    0.0000102    2.3034270  
C    0.4961870   -0.0000064    3.6418889  
C   -0.9663858    0.0000850    3.4240247  
N   -1.2632773    0.0000084    2.1528658  
C   -1.8985362    0.0000517    4.5177257  
C   -1.3925775   -0.0004564    5.7720543  
O   -2.1456383   -0.0005410    6.8851312  
C    0.0786232   -0.0009323    6.0245000  
O    0.4683759   -0.0012588    7.1921102  
C    1.0143166   -0.0008442    4.8859032  
H    2.1107198   -0.0000632    2.0421868  
H   -2.9622183    0.0003270    4.3293377  
H   -1.5042274   -0.0009692    7.6184419  
H    2.0724152   -0.0013148    5.1109744  
