64

C   -6.3684996    0.0056225   -6.0423160  
C   -5.2524335    0.0038295   -6.8465928  
C   -5.7122588    0.0044114   -8.1968365  
C   -7.1300247    0.0068849   -8.1536974  
N   -7.4955366    0.0056128   -6.8304374  
C   -7.9217143    0.0083800   -9.3060924  
C   -7.2703115    0.0076665  -10.5242265  
O   -7.9948940    0.0094098  -11.6809421  
C   -5.8565353    0.0048313  -10.5878344  
O   -5.3580076    0.0040367  -11.8742301  
C   -5.0748792    0.0030818   -9.4513768  
H   -4.2323667    0.0011863   -6.5024269  
H   -8.4396498    0.0173694   -6.4891251  
H   -9.0026937    0.0101226   -9.2799642  
H   -7.3545298    0.0082305  -12.4042656  
H   -4.3970375    0.0021222  -11.8280031  
H   -3.9941123    0.0007376   -9.5314735  
C   -3.2578655    0.0024039   -2.9908504  
C   -3.9809871    0.0031289   -1.8468776  
C   -5.3695593    0.0043914   -2.2808879  
C   -5.2983968    0.0043642   -3.7578851  
N   -4.0631141    0.0031210   -4.1798622  
C   -6.4794715    0.0054032   -4.5765110  
C   -7.6771926    0.0060339   -3.9481810  
O   -8.8597151    0.0070293   -4.5866777  
C   -7.7819059    0.0057083   -2.4591557  
O   -8.9049090    0.0064466   -1.9550880  
C   -6.5558062    0.0046822   -1.6414745  
H   -3.6170582    0.0027519   -0.8336497  
H   -9.5255211    0.0072470   -3.8754428  
H   -6.6744111    0.0043603   -0.5662243  
C    0.0000000    0.0000000    0.0000000  
C    1.0521667   -0.0011902   -0.8862342  
C    0.4917216   -0.0011957   -2.1979129  
C   -0.9187429    0.0003148   -2.0478680  
N   -1.1833171   -0.0009412   -0.7007912  
C   -1.7951702    0.0010350   -3.1372088  
C   -1.2375841    0.0005225   -4.4010424  
O   -2.0474217    0.0015360   -5.4997576  
C    0.1673577   -0.0013567   -4.5711964  
O    0.5673522   -0.0020688   -5.8915554  
C    1.0325769   -0.0023413   -3.4969890  
H    2.0953057   -0.0030649   -0.6200562  
H   -2.0989779    0.0102372   -0.2891821  
H   -1.4634887    0.0006498   -6.2693588  
H    1.5290708   -0.0033153   -5.9180049  
H    2.1042148   -0.0039610   -3.6584453  
C    3.3003543   -0.0005276    2.9438989  
C    2.5232812   -0.0003497    4.0790748  
C    1.1623199    0.0001319    3.6520102  
C    1.1711883   -0.0000583    2.2336141  
N    2.4852299    0.0014920    1.8362361  
C    0.0000000    0.0000000    1.4700000  
C   -1.2020384   -0.0000520    2.1506477  
O   -2.3759250   -0.0003494    1.4542253  
C   -1.2314658    0.0005113    3.5655508  
O   -2.5054393    0.0008037    4.0950179  
C   -0.0764518    0.0007272    4.3195194  
H    2.8919952    0.0005619    5.0905303  
H    2.8036267   -0.0088181    0.8841339  
H   -3.0835639   -0.0000348    2.1118817  
H   -2.4360050    0.0011527    5.0545920  
H   -0.1304098    0.0013421    5.4019087  
H    4.3715549   -0.0004895    2.8367138  
