66

C    4.5582359   -2.0922264   -2.8633927  
C    4.7995863   -1.5811264   -4.1175831  
C    3.7180587   -0.7032889   -4.4246643  
C    2.8401178   -0.7189699   -3.3107075  
N    3.3790676   -1.5738357   -2.3815388  
C    1.6628945    0.0339172   -3.2649299  
C    1.3667038    0.8171316   -4.3635762  
O    0.2298889    1.5725144   -4.3714928  
C    2.2299650    0.8458158   -5.4846351  
O    1.7963543    1.6742716   -6.4990245  
C    3.3913537    0.1031242   -5.5305966  
H    2.9820488   -1.7789139   -1.4824836  
H    0.2153772    2.0351557   -5.2194414  
H    2.4353791    1.6358679   -7.2172002  
H    4.0328106    0.1452890   -6.4030837  
H    5.1331928   -2.7866339   -2.2750211  
C    6.5313967   -3.1419220   -5.1030970  
C    5.9606910   -1.8982550   -4.9614823  
C    6.7090682   -1.0011000   -5.7798009  
C    7.7325370   -1.7607777   -6.4021561  
N    7.5971574   -3.0560912   -5.9680457  
C    8.6629867   -1.1988827   -7.2815454  
C    8.5581575    0.1544987   -7.5375668  
O    9.4406358    0.7541913   -8.3888091  
C    7.5440752    0.9293687   -6.9259849  
O    7.5720650    2.2620181   -7.2818021  
C    6.6259905    0.3757636   -6.0581324  
H    8.1771604   -3.8259343   -6.2489707  
H    9.4454854   -1.7724043   -7.7590092  
H    9.1931803    1.6872839   -8.4257982  
H    6.8554679    2.7137216   -6.8256717  
H    5.8604828    0.9945297   -5.6046957  
H    6.2634294   -4.0831243   -4.6544421  
C    1.1243410    0.0100105   -0.7919003  
C    0.7474072    0.0234665   -2.1148542  
C   -0.6787384    0.0234379   -2.1414698  
C   -1.1201748    0.0098411   -0.7935547  
N    0.0000000    0.0000000    0.0000000  
C   -2.4730818    0.0063307   -0.4408240  
C   -3.3971962    0.0170429   -1.4675058  
O   -4.7313520    0.0145490   -1.1793468  
C   -2.9763654    0.0303020   -2.8186325  
O   -4.0166484    0.0394464   -3.7247625  
C   -1.6418567    0.0334992   -3.1673480  
H   -2.8160166   -0.0041569    0.5845966  
H   -5.1938823    0.0230023   -2.0274386  
H   -3.6464680    0.0481700   -4.6127343  
H   -1.3497475    0.0435647   -4.2109234  
H    2.1062466    0.0053162   -0.3505405  
C    2.5285572    2.1210227    2.9438989  
C    1.9331703    1.6216660    4.0790748  
C    0.8903039    0.7472258    3.6520102  
C    0.8972198    0.7527806    2.2336141  
N    1.9028376    1.5986179    1.8362361  
C    0.0000000    0.0000000    1.4700000  
C   -0.9207814   -0.7726952    2.1506477  
O   -1.8198395   -1.5274828    1.4542253  
C   -0.9436862   -0.7911793    3.5655508  
O   -1.9197945   -1.6098497    4.0950179  
C   -0.0590329   -0.0485852    4.3195194  
H    2.2150357    1.8593692    5.0905303  
H    2.1533708    1.7953814    0.8841339  
H   -2.3621246   -1.9821033    2.1118817  
H   -1.8668290   -1.5649508    5.0545920  
H   -0.1007624   -0.0827977    5.4019087  
H    3.3491200    2.8096064    2.8367138  
