60

C    0.8698757   -0.0050879   -7.5558273  
C   -0.4198197   -0.0027061   -7.0771351  
C   -1.2848879   -0.0032109   -8.2112674  
C   -0.4591582   -0.0062464   -9.3645614  
N    0.8433383   -0.0053686   -8.9308343  
C   -0.9750317   -0.0078318  -10.6640467  
C   -2.3495141   -0.0066322  -10.8017967  
O   -2.9063652   -0.0084387  -12.0479616  
C   -3.1900183   -0.0032326   -9.6632194  
O   -4.5360111   -0.0019989   -9.9659507  
C   -2.6817882   -0.0013939   -8.3809460  
H   -0.7023491    0.0002702   -6.0383082  
H    1.6527755   -0.0175589   -9.5246725  
H   -0.3510681   -0.0100015  -11.5471476  
H   -3.8637996   -0.0068718  -11.9191952  
H   -5.0330268    0.0002822   -9.1421945  
H   -3.3504496    0.0013878   -7.5280905  
C    1.6707638   -0.0012342   -3.2725973  
C    3.0236191   -0.0024591   -3.2357223  
C    3.4368537   -0.0041815   -4.6306185  
C    2.1706890   -0.0038458   -5.3944318  
N    1.1320375   -0.0020398   -4.6037430  
C    2.1489263   -0.0051905   -6.8313071  
C    3.3380085   -0.0064085   -7.4758355  
O    3.4666346   -0.0077445   -8.8135556  
C    4.6328541   -0.0064069   -6.7331813  
O    5.6771183   -0.0076797   -7.3848957  
C    4.6287466   -0.0050572   -5.2594427  
H    3.6622535   -0.0021324   -2.3689922  
H    4.4282061   -0.0083575   -8.9701847  
H    5.5877284   -0.0049860   -4.7588591  
C    1.0965515    0.0001359   -0.8010305  
C    0.0000000    0.0000000    0.0000000  
C   -1.1546564    0.0001470   -0.8669509  
C   -0.6372018    0.0003521   -2.2486279  
N    0.7342868    0.0007339   -2.1395011  
C   -1.4147743    0.0001355   -3.3608714  
C   -2.8576049   -0.0001046   -3.1854455  
O   -3.6427782   -0.0002491   -4.1244898  
C   -3.4275842   -0.0000725   -1.7311664  
O   -4.6406831    0.0000334   -1.5710053  
C   -2.4891868   -0.0001091   -0.6116742  
H   -1.0150456    0.0001619   -4.3654242  
H   -2.8919123   -0.0002920    0.3920869  
H    2.1388270    0.0000663   -0.5261648  
C    0.0000000    0.0000000    1.4700000  
C    1.0541688    0.0001722    2.3260392  
C    0.5103138    0.0000454    3.6635956  
C   -0.9576371   -0.0002459    3.5155732  
N   -1.2018458    0.0001392    2.1615969  
C   -1.8348311   -0.0008317    4.5510609  
C   -1.2972847   -0.0009736    5.9014604  
O   -2.0050672   -0.0014265    6.9001319  
C    0.2542623   -0.0004184    6.0817573  
O    0.7184670   -0.0002256    7.2139121  
C    1.0974552   -0.0000873    4.8889129  
H    2.0940752    0.0005483    2.0517982  
H   -2.9081052   -0.0011668    4.4207061  
H    2.1707277    0.0000911    5.0223670  
H   -2.1128194   -0.0014912    1.7406791  
