60

C    3.4763191   -0.7069564   -5.9325045  
C    4.8239035   -0.4563836   -5.8154671  
C    5.1707136    0.4518431   -6.8592329  
C    3.9836872    0.7223406   -7.5870559  
N    2.9742268    0.0012781   -6.9991141  
C    3.9518696    1.5811987   -8.6898428  
C    5.1399324    2.1780973   -9.0645400  
O    5.1654510    3.0258043  -10.1340049  
C    6.3347357    1.9204622   -8.3511771  
O    7.4339802    2.5901210   -8.8477257  
C    6.3669174    1.0730795   -7.2633200  
H    5.4768723   -0.8773767   -5.0702224  
H    3.0504748    1.7913987   -9.2488645  
H    6.0791377    3.3269797  -10.2219524  
H    8.1981214    2.3611945   -8.3098728  
H    7.2972049    0.8949251   -6.7367238  
H    2.8338645   -1.3359546   -5.3404140  
C   -0.8287671    0.0000935   -4.7555305  
C    0.4829789    0.0003533   -5.1068098  
C    0.5323572    0.0005984   -6.5498610  
C   -0.8681890    0.0004884   -7.0138227  
N   -1.6437154   -0.0002183   -5.8774035  
C   -1.2464054    0.0010497   -8.3171481  
C   -0.2045426    0.0015872   -9.3305866  
O   -0.4431238    0.0020517  -10.5311605  
C    1.2854927    0.0014608   -8.8619716  
O    2.1713305    0.0016029   -9.7060991  
C    1.5684486    0.0011152   -7.4288673  
H    1.3204180    0.0001888   -4.4320437  
H   -2.2794297    0.0010872   -8.6361648  
H   -2.6471542    0.0010998   -5.8649191  
C    1.0672566   -0.0000698   -0.8321912  
C    0.0000000    0.0000000    0.0000000  
C   -1.1601226   -0.0000736   -0.8778472  
C   -0.5938732   -0.0000770   -2.2438435  
N    0.7113365   -0.0001555   -2.2234123  
C   -1.4286989   -0.0001880   -3.4135239  
C   -2.7683117   -0.0006800   -3.2270522  
O   -3.6653907   -0.0008306   -4.2276967  
C   -3.3702026   -0.0010611   -1.8610771  
O   -4.5974909   -0.0013781   -1.7662957  
C   -2.4926826   -0.0008944   -0.6770655  
H   -4.5324249   -0.0012263   -3.7833950  
H   -2.9677773   -0.0012975    0.2947963  
H    2.1134390   -0.0000546   -0.5705121  
C    2.5528530    2.1414826    2.8079335  
C    2.0663498    1.7338582    4.0032312  
C    0.9804344    0.8229586    3.6752840  
C    0.9495562    0.7966882    2.1971295  
N    1.8690446    1.5676019    1.6831036  
C    0.0000000    0.0000000    1.4700000  
C   -0.8785127   -0.7372425    2.1869543  
O   -1.8187535   -1.5261249    1.6395491  
C   -0.8723269   -0.7321790    3.6796354  
O   -1.7010379   -1.4274584    4.2670412  
C    0.1115397    0.0933559    4.4024240  
H    2.4028853    2.0163452    4.9860947  
H   -2.2861435   -1.9184361    2.3990168  
H    0.0832434    0.0693689    5.4835595  
H    3.3664920    2.8238276    2.6198634  
