60

C    5.6484568    0.0004439   -0.6807742  
C    4.7161324   -0.0005436   -1.6923263  
C    5.4371285   -0.0001080   -2.9230842  
C    6.8175142    0.0008760   -2.5968006  
N    6.9105273    0.0031395   -1.2271436  
C    7.8240137    0.0012220   -3.5672374  
C    7.4298413    0.0002555   -4.8911726  
O    8.3714604    0.0001894   -5.8792857  
C    6.0574641   -0.0003586   -5.2367109  
O    5.8267423   -0.0008767   -6.5968982  
C    5.0639869   -0.0004269   -4.2798782  
H    7.7671531   -0.0062908   -0.7036119  
H    8.8778481    0.0021150   -3.3250882  
H    7.8889788   -0.0002466   -6.7162298  
H    4.8759898   -0.0013000   -6.7441177  
H    4.0211717   -0.0007220   -4.5748589  
H    5.5130312    0.0008845    0.3872233  
C    3.2573666   -0.0002920   -1.5109384  
C    2.5379463   -0.0001710   -0.3591964  
C    1.1435039    0.0000331   -0.7338498  
C    1.1092600   -0.0000083   -2.2088476  
N    2.4227554    0.0001909   -2.6182613  
C   -0.0265538   -0.0002524   -2.9515660  
C   -1.3003040   -0.0002640   -2.2514976  
O   -2.3786789   -0.0004133   -2.8306420  
C   -1.2877727    0.0000311   -0.6895603  
O   -2.3539960    0.0003306   -0.0892032  
C    0.0000000    0.0000000    0.0000000  
H    2.9384090   -0.0000368    0.6389236  
H    2.7280484   -0.0013407   -3.5742118  
C   -0.0307367   -0.0004647   -4.4215603  
C    1.0209921   -0.0006524   -5.2805955  
C    0.4733333   -0.0007746   -6.6165989  
C   -0.9941905   -0.0006125   -6.4644004  
N   -1.2345455   -0.0008271   -5.1097346  
C   -1.8743275   -0.0002663   -7.4973874  
C   -1.3406258   -0.0002643   -8.8493115  
O   -2.0512471   -0.0000283   -9.8459641  
C    0.2104020   -0.0006863   -9.0340215  
O    0.6713833   -0.0009950  -10.1674932  
C    1.0569856   -0.0007586   -7.8435817  
H    2.0616746   -0.0008822   -5.0093141  
H   -2.9472263   -0.0000225   -7.3639796  
H    2.1298741   -0.0008462   -7.9800894  
H   -2.1443179    0.0007706   -4.6862264  
C    0.8175213    0.6860729    2.3021913  
C    0.0000000    0.0000000    1.4700000  
C   -0.8887526   -0.7456559    2.3478473  
C   -0.4549825   -0.3816753    3.7138435  
N    0.5448156    0.4573574    3.6934124  
C   -1.0945674   -0.9182058    4.8835240  
C   -2.1210866   -1.7789155    4.6970523  
O   -2.8083856   -2.3554314    5.6976972  
C   -2.5824069   -2.1655116    3.3310774  
O   -3.5227682   -2.9541547    3.2362962  
C   -1.9100805   -1.6015804    2.1470656  
H   -0.7567140   -0.6349833    5.8697035  
H   -3.4728268   -2.9124471    5.2533954  
H   -2.2742832   -1.9066565    1.1752040  
H    1.6189533    1.3585343    2.0405121  
