64

C    4.0904397    0.6214829   -7.3668846  
C    5.1532676   -0.2100815   -7.0997409  
C    6.0156082   -0.1613853   -8.2349043  
C    5.4222373    0.7241589   -9.1706649  
N    4.2537017    1.1802385   -8.6128729  
C    6.0006710    1.0131975  -10.4102860  
C    7.2001083    0.3972954  -10.7106093  
O    7.8085703    0.6443006  -11.9071772  
C    7.8075465   -0.4896365   -9.7901817  
O    8.9992091   -1.0230571  -10.2359926  
C    7.2373390   -0.7754542   -8.5671956  
H    5.2896353   -0.7823311   -6.1981157  
H    3.6218678    1.8322976   -9.0413426  
H    5.5534132    1.6870919  -11.1279421  
H    8.6207932    0.1213108  -11.9135748  
H    9.3429268   -1.6102819   -9.5558245  
H    7.7259460   -1.4591071   -7.8828270  
C    2.8410613   -0.7209473   -3.3424827  
C    1.6707636   -0.0012343   -3.2725974  
C    1.5557840    0.7262499   -4.4941318  
C    2.6948102    0.4076464   -5.2770985  
N    3.4554127   -0.4719559   -4.5474404  
C    2.9129643    0.9459796   -6.5488672  
C    1.9638386    1.8216625   -7.0392923  
O    2.1270888    2.3761842   -8.2757670  
C    0.8208871    2.1521890   -6.2729824  
O   -0.0311432    3.0381790   -6.8994099  
C    0.6051602    1.6216984   -5.0181645  
H    4.3199268   -0.8821918   -4.8512552  
H    1.3626844    2.9486855   -8.4213471  
H   -0.7762620    3.2083626   -6.3150819  
H   -0.2796638    1.8936683   -4.4546061  
H    3.2868714   -1.3910861   -2.6275514  
C    1.0965514    0.0001358   -0.8010306  
C    0.0000000    0.0000000    0.0000000  
C   -1.1546565    0.0001470   -0.8669508  
C   -0.6372019    0.0003520   -2.2486278  
N    0.7342867    0.0007338   -2.1395012  
C   -1.4147744    0.0001354   -3.3608712  
C   -2.8576052   -0.0001047   -3.1854454  
O   -3.6427785   -0.0002490   -4.1244896  
C   -3.4275841   -0.0000727   -1.7311660  
O   -4.6406832    0.0000333   -1.5710049  
C   -2.4891868   -0.0001090   -0.6116739  
H   -1.0150456    0.0001617   -4.3654239  
H   -2.8919122   -0.0002919    0.3920871  
H    2.1388270    0.0000663   -0.5261650  
C    2.5311839    2.1237619    3.0120429  
C    1.9795631    1.6616747    1.8395852  
C    0.9223175    0.7739173    2.1983588  
C    0.8753926    0.7337535    3.6154372  
N    1.8668922    1.5631002    4.0777464  
C   -0.0496243   -0.0427881    4.3197917  
C   -0.9437528   -0.7922060    3.5801400  
O   -1.8685244   -1.5680278    4.2172520  
C   -0.9124520   -0.7656372    2.1655264  
O   -1.8671164   -1.5663939    1.5732860  
C    0.0000000    0.0000000    1.4700000  
H    2.3005065    1.9304404    0.8477417  
H    2.0679347    1.7444845    5.0445261  
H   -0.0904770   -0.0778569    5.3997470  
H   -2.3849669   -2.0011402    3.5251786  
H   -1.7775064   -1.4909735    0.6183591  
H    3.3468514    2.8078103    3.1724291  
