62

C    4.7161324   -0.0005436   -1.6923263  
C    5.7254240   -0.0020827   -0.7575558  
C    6.9579240   -0.0022076   -1.4755697  
C    6.6349836   -0.0004069   -2.8567406  
N    5.2655548   -0.0013827   -2.9530734  
C    7.6078554    0.0002912   -3.8608870  
C    8.9308318   -0.0005422   -3.4635103  
O    9.9212233    0.0004352   -4.4027330  
C    9.2730464   -0.0027137   -2.0903017  
O   10.6326704   -0.0037268   -1.8562872  
C    8.3138096   -0.0036768   -1.0991451  
H    5.5899959   -0.0041074    0.3104554  
H    4.7441080    0.0100377   -3.8109447  
H    7.3682593    0.0015183   -4.9153040  
H   10.7569971   -0.0006923   -3.9182261  
H   10.7775875   -0.0051583   -0.9051822  
H    8.6062643   -0.0055251   -0.0556198  
C    3.2573666   -0.0002920   -1.5109384  
C    2.5379463   -0.0001710   -0.3591964  
C    1.1435039    0.0000331   -0.7338498  
C    1.1092600   -0.0000083   -2.2088476  
N    2.4227554    0.0001909   -2.6182613  
C   -0.0265538   -0.0002524   -2.9515660  
C   -1.3003040   -0.0002640   -2.2514976  
O   -2.3786789   -0.0004133   -2.8306420  
C   -1.2877727    0.0000311   -0.6895603  
O   -2.3539960    0.0003306   -0.0892032  
C    0.0000000    0.0000000    0.0000000  
H    2.9384090   -0.0000368    0.6389236  
H    2.7280484   -0.0013407   -3.5742118  
C    2.4602699   -2.0944457   -5.9392898  
C    1.9124716   -1.6318086   -4.7860512  
C    0.8432438   -0.7354859   -5.1577936  
C    0.8127859   -0.7137220   -6.6327135  
N    1.8180276   -1.5578237   -7.0448675  
C   -0.0596402    0.0159817   -7.3730582  
C   -1.0334853    0.8347246   -6.6703345  
O   -1.8613803    1.5276079   -7.2472257  
C   -1.0192511    0.8271225   -5.1084303  
O   -1.8341919    1.5127099   -4.5058509  
C   -0.0307367   -0.0004647   -4.4215603  
H    2.2221953   -1.8889425   -3.7887715  
H   -0.0651734    0.0176827   -8.4542048  
H    3.2792570   -2.7820944   -6.0745275  
H    2.0482105   -1.7553499   -8.0014481  
C    2.5311839    2.1237619    3.0120429  
C    1.9795631    1.6616747    1.8395852  
C    0.9223175    0.7739173    2.1983588  
C    0.8753926    0.7337535    3.6154372  
N    1.8668922    1.5631002    4.0777464  
C   -0.0496243   -0.0427881    4.3197917  
C   -0.9437528   -0.7922060    3.5801400  
O   -1.8685244   -1.5680278    4.2172520  
C   -0.9124520   -0.7656372    2.1655264  
O   -1.8671164   -1.5663939    1.5732860  
C    0.0000000    0.0000000    1.4700000  
H    2.3005065    1.9304404    0.8477417  
H    2.0679347    1.7444845    5.0445261  
H   -0.0904770   -0.0778569    5.3997470  
H   -2.3849669   -2.0011402    3.5251786  
H   -1.7775064   -1.4909735    0.6183591  
H    3.3468514    2.8078103    3.1724291  
