60

C    5.6407084    0.0170451   -0.6743878  
C    6.9070328    0.0276883   -1.2117678  
C    6.7574705    0.0178706   -2.6302651  
C    5.3653958    0.0014762   -2.9019005  
N    4.7161324   -0.0005436   -1.6923263  
C    4.8484260   -0.0112556   -4.2008880  
C    5.7532269   -0.0070596   -5.2446776  
O    5.3026480   -0.0186573   -6.5330319  
C    7.1459462    0.0088555   -4.9938830  
O    7.9167817    0.0107073   -6.1380644  
C    7.6566613    0.0211486   -3.7126557  
H    7.8255871    0.0397976   -0.6504254  
H    3.7885338   -0.0239203   -4.4145927  
H    6.0871799   -0.0135228   -7.0967235  
H    8.8436403    0.0218184   -5.8803511  
H    8.7282987    0.0330394   -3.5516247  
H    5.3238838    0.0191630    0.3544836  
C    3.2573666   -0.0002920   -1.5109384  
C    2.5379463   -0.0001710   -0.3591964  
C    1.1435039    0.0000331   -0.7338498  
C    1.1092600   -0.0000083   -2.2088476  
N    2.4227554    0.0001909   -2.6182613  
C   -0.0265538   -0.0002524   -2.9515660  
C   -1.3003040   -0.0002640   -2.2514976  
O   -2.3786789   -0.0004133   -2.8306420  
C   -1.2877727    0.0000311   -0.6895603  
O   -2.3539960    0.0003306   -0.0892032  
C    0.0000000    0.0000000    0.0000000  
H    2.9384090   -0.0000368    0.6389236  
H    2.7280484   -0.0013407   -3.5742118  
C    0.8351665   -0.7268793   -5.2248488  
C    0.5760667   -0.5103271   -6.5401615  
C   -0.5290519    0.4167175   -6.6044785  
C   -0.8951521    0.7247331   -5.2088109  
N   -0.0307367   -0.0004647   -4.4215603  
C   -1.8962314    1.5652910   -4.8441090  
C   -2.6645229    2.2094397   -5.8964091  
O   -3.5858868    2.9829069   -5.6702716  
C   -2.2943358    1.8976154   -7.3815124  
O   -2.9343332    2.4337868   -8.2760426  
C   -1.1944003    0.9745148   -7.6496152  
H    1.0992654   -0.9499858   -7.3705696  
H   -2.1484137    1.7776663   -3.8144438  
H   -0.9442756    0.7640694   -8.6805737  
H    1.5856920   -1.3561889   -4.7747709  
C    2.4951002    2.0940188    2.9809380  
C    1.9440701    1.6314916    1.8291961  
C    0.8759964    0.7350050    2.2038498  
C    0.8497377    0.7130254    3.6788474  
N    1.8560616    1.5571714    4.0882609  
C   -0.0205033   -0.0168748    4.4215661  
C   -0.9962600   -0.8356168    3.7214979  
O   -1.8224391   -1.5286685    4.3006425  
C   -0.9864710   -0.8277881    2.1595606  
O   -1.8030528   -1.5133726    1.5592035  
C    0.0000000    0.0000000    1.4700000  
H    2.2509283    1.8888011    0.8310761  
H   -0.0229599   -0.0187323    5.5027230  
H    3.3143982    2.7817323    3.1139444  
H    2.0889452    1.7545833    5.0442112  
