64

C    7.0425128   -1.9458981   -6.5715758  
C    8.1383854   -2.7770315   -6.5989307  
C    8.6646847   -2.7286317   -7.9237953  
C    7.8417385   -1.8437047   -8.6664851  
N    6.8654154   -1.3876917   -7.8159191  
C    8.0664206   -1.5550938  -10.0159336  
C    9.1416255   -2.1707968  -10.6266873  
O    9.4067993   -1.9241904  -11.9426969  
C    9.9740137   -3.0571155   -9.9025420  
O   11.0026787   -3.5904088  -10.6514016  
C    9.7527929   -3.3425107   -8.5713255  
H    8.5117894   -3.3488109   -5.7666860  
H    6.1415559   -0.7360180   -8.0594961  
H    7.4428112   -0.8816702  -10.5876108  
H   10.1877640   -2.4469514  -12.1664845  
H   11.5164512   -4.1772101  -10.0881027  
H   10.4073145   -4.0256972   -8.0428027  
C    6.2078071   -2.1204373   -4.1884496  
C    6.1274188   -1.6213462   -5.4678683  
C    5.0008410   -0.7471989   -5.5037681  
C    4.4282842   -0.7526502   -4.2060484  
N    5.1843807   -1.5981477   -3.4326984  
C    3.2973506   -0.0000934   -3.8752374  
C    2.7343299    0.7722679   -4.8725555  
O    1.6291395    1.5268265   -4.6038363  
C    3.2908611    0.7906439   -6.1736138  
O    2.6156196    1.6089740   -7.0555033  
C    4.4063832    0.0482703   -6.5007499  
H    5.0245806   -1.7947655   -2.4612116  
H    1.4023571    1.9812319   -5.4256334  
H    3.0556037    1.5640229   -7.9099027  
H    4.8100200    0.0823926   -7.5059317  
H    6.9133539   -2.8087592   -3.7555793  
C    3.3321174    0.0004714   -1.3379332  
C    2.6974186    0.0000115   -2.5332308  
C    1.2800441   -0.0002119   -2.2052838  
C    1.2395035    0.0000643   -0.7271293  
N    2.4394063    0.0005458   -0.2131034  
C    0.0000000    0.0000000    0.0000000  
C   -1.1468701    0.0000634   -0.7169542  
O   -2.3742201    0.0000072   -0.1695492  
C   -1.1388767    0.0001606   -2.2096354  
O   -2.2206229    0.0000903   -2.7970413  
C    0.1454526    0.0001815   -2.9324239  
H   -2.9844344    0.0001023   -0.9290168  
H    0.1083580    0.0003680   -4.0135594  
H    4.3940040    0.0007617   -1.1498630  
C    0.8676693    0.7151171    2.2619005  
C    0.5875920    0.4624972    3.5848544  
C   -0.5048400   -0.4542819    3.6114698  
C   -0.8517165   -0.7276451    2.2635546  
N    0.0000000    0.0000000    1.4700000  
C   -1.8902865   -1.5946756    1.9108239  
C   -2.5912627   -2.1969500    2.9375057  
O   -3.6148162   -3.0527051    2.6493466  
C   -2.2603868   -1.9365747    4.2886322  
O   -3.0513550   -2.6123276    5.1947621  
C   -1.2361111   -1.0811317    4.6373480  
H    1.1060808    0.8876438    4.4271209  
H   -2.1597133   -1.8070987    0.8854031  
H   -3.9636755   -3.3565188    3.4974381  
H   -2.7621927   -2.3810384    6.0827341  
H   -1.0058879   -0.9010589    5.6809233  
H    1.6167816    1.3499334    1.8205408  
