62

C   -0.6507265   -0.7351606   -9.4348042  
C   -1.0205341    0.5284373   -9.0360189  
C   -0.9453615    1.3670871  -10.1873728  
C   -0.5207778    0.5528187  -11.2684008  
N   -0.3491493   -0.7172879  -10.7764754  
C   -0.3379040    1.0490393  -12.5626618  
C   -0.5884976    2.3916541  -12.7694632  
O   -0.4261738    2.9281813  -14.0139723  
C   -1.0124824    3.2203518  -11.7034826  
O   -1.2203158    4.5341732  -12.0695727  
C   -1.1928391    2.7315541  -10.4263478  
H   -0.0616693   -1.5143221  -11.3150601  
H   -0.0143535    0.4336955  -13.3908334  
H   -0.6502573    3.8648800  -13.9388349  
H   -1.5044037    5.0251405  -11.2924959  
H   -1.5182348    3.3905311   -9.6298896  
H   -0.5768429   -1.6474526   -8.8680387  
C    0.6255546   -0.6879834   -5.1891748  
C   -0.1496415   -0.0015615   -4.3176961  
C   -1.0811321    0.7434623   -5.1506212  
C   -0.7158465    0.3787721   -6.5363166  
N    0.2838787   -0.4600982   -6.5652208  
C   -1.4129712    0.9145426   -7.6730016  
C   -2.4290869    1.7752032   -7.4361337  
O   -3.1654577    2.3510479   -8.4016396  
C   -2.8218936    2.1625048   -6.0491001  
O   -3.7565102    2.9510597   -5.9080581  
C   -2.0913496    1.5993468   -4.8997165  
H   -3.8070526    2.9082154   -7.9251186  
H   -2.4067672    1.9049195   -3.9110974  
H    1.4391412   -1.3601754   -4.9673468  
C    3.3003543    0.0005276   -1.4738987  
C    2.5232814    0.0003497   -2.6090747  
C    1.1623200   -0.0001320   -2.1820103  
C    1.1711883    0.0000582   -0.7636140  
N    2.4852300   -0.0014919   -0.3662360  
C    0.0000000    0.0000000    0.0000000  
C   -1.2020384    0.0000519   -0.6806477  
O   -2.3759249    0.0003493    0.0157743  
C   -1.2314656   -0.0005115   -2.0955510  
O   -2.5054392   -0.0008039   -2.6250180  
C   -0.0764516   -0.0007274   -2.8495195  
H    2.8919955   -0.0005620   -3.6205304  
H    2.8036267    0.0088183    0.5858662  
H   -3.0835638    0.0000347   -0.6418818  
H   -2.4360047   -0.0011529   -3.5845921  
H    4.3715549    0.0004895   -1.3667136  
C    0.8175213    0.6860729    2.3021913  
C    0.0000000    0.0000000    1.4700000  
C   -0.8887526   -0.7456559    2.3478473  
C   -0.4549825   -0.3816753    3.7138435  
N    0.5448156    0.4573574    3.6934124  
C   -1.0945674   -0.9182058    4.8835240  
C   -2.1210866   -1.7789155    4.6970523  
O   -2.8083856   -2.3554314    5.6976972  
C   -2.5824069   -2.1655116    3.3310774  
O   -3.5227682   -2.9541547    3.2362962  
C   -1.9100805   -1.6015804    2.1470656  
H   -0.7567140   -0.6349833    5.8697035  
H   -3.4728268   -2.9124471    5.2533954  
H   -2.2742832   -1.9066565    1.1752040  
H    1.6189533    1.3585343    2.0405121  
