60

C   -4.0213163    0.7182966   -6.3657597  
C   -3.3330910    0.0000658   -7.3160011  
C   -4.3009999   -0.7277861   -8.0696485  
C   -5.5735280   -0.4109241   -7.5290960  
N   -5.3674376    0.4680388   -6.4948968  
C   -6.7629225   -0.9500601   -8.0285585  
C   -6.6659640   -1.8247696   -9.0932932  
O   -7.7960830   -2.3800107   -9.6201266  
C   -5.4053667   -2.1535563   -9.6461125  
O   -5.4752681   -3.0387498  -10.7019958  
C   -4.2315665   -1.6222736   -9.1537132  
H   -6.0884449    0.8770741   -5.9284869  
H   -7.7359060   -0.7126945   -7.6209282  
H   -7.5077567   -2.9516235  -10.3435845  
H   -4.5820088   -3.2077641  -11.0168365  
H   -3.2806904   -1.8929092   -9.5976386  
H   -3.6583666    1.3881805   -5.6051796  
C   -0.0307354   -0.0004645   -4.4215603  
C    1.0209938   -0.0006523   -5.2805949  
C    0.4733355   -0.0007745   -6.6165991  
C   -0.9941883   -0.0006122   -6.4644009  
N   -1.2345441   -0.0008266   -5.1097353  
C   -1.8743248   -0.0002659   -7.4973884  
C   -1.3406225   -0.0002638   -8.8493122  
O   -2.0512433   -0.0000278   -9.8459652  
C    0.2104054   -0.0006861   -9.0340223  
O    0.6713873   -0.0009947  -10.1674938  
C    1.0569888   -0.0007584   -7.8435816  
H    2.0616762   -0.0008821   -5.0093140  
H    2.1298771   -0.0008461   -7.9800887  
H   -2.1443165    0.0007711   -4.6862276  
C    3.2573669   -0.0002919   -1.5109381  
C    2.5379467   -0.0001709   -0.3591962  
C    1.1435042    0.0000332   -0.7338501  
C    1.1092607   -0.0000081   -2.2088477  
N    2.4227561    0.0001910   -2.6182614  
C   -0.0265534   -0.0002522   -2.9515663  
C   -1.3003036   -0.0002639   -2.2514981  
O   -2.3786785   -0.0004131   -2.8306428  
C   -1.2877726    0.0000312   -0.6895608  
O   -2.3539957    0.0003306   -0.0892035  
C    0.0000000    0.0000000    0.0000000  
H    2.9384091   -0.0000368    0.6389238  
H    4.3270391   -0.0004764   -1.6439447  
H    2.7280492   -0.0013405   -3.5742114  
C    2.5528530    2.1414826    2.8079335  
C    2.0663498    1.7338582    4.0032312  
C    0.9804344    0.8229586    3.6752840  
C    0.9495562    0.7966882    2.1971295  
N    1.8690446    1.5676019    1.6831036  
C    0.0000000    0.0000000    1.4700000  
C   -0.8785127   -0.7372425    2.1869543  
O   -1.8187535   -1.5261249    1.6395491  
C   -0.8723269   -0.7321790    3.6796354  
O   -1.7010379   -1.4274584    4.2670412  
C    0.1115397    0.0933559    4.4024240  
H    2.4028853    2.0163452    4.9860947  
H   -2.2861435   -1.9184361    2.3990168  
H    0.0832434    0.0693689    5.4835595  
H    3.3664920    2.8238276    2.6198634  
