62

C    7.0002333   -3.0331759   -4.3402137  
C    7.4055421   -3.6821009   -3.1969341  
C    8.5384128   -4.4747682   -3.5474795  
C    8.7801189   -4.2670480   -4.9296359  
N    7.8269414   -3.3879273   -5.3804312  
C    9.8246300   -4.8924990   -5.6170934  
C   10.6401780   -5.7429025   -4.8960713  
O   11.6752287   -6.3793401   -5.5178645  
C   10.4148460   -5.9632980   -3.5164098  
O   11.3126112   -6.8375262   -2.9392734  
C    9.3844377   -5.3468231   -2.8376288  
H    6.9410669   -3.5957264   -2.2295690  
H    7.7523656   -3.0448383   -6.3210216  
H   10.0140608   -4.7384944   -6.6704696  
H   12.1101165   -6.9168342   -4.8431512  
H   11.0902983   -6.9309361   -2.0079005  
H    9.2364042   -5.5352780   -1.7807232  
C    5.8883844   -2.0954747   -4.5533061  
C    4.9762274   -1.6321308   -3.6603568  
C    4.1010830   -0.7362690   -4.3789592  
C    4.5815863   -0.7155458   -5.7737629  
N    5.6672527   -1.5597487   -5.8130038  
C    4.0183660    0.0134746   -6.7702647  
C    2.8618710    0.8325284   -6.4474560  
O    2.2840239    1.5248518   -7.2751529  
C    2.3361182    0.8260250   -4.9766239  
O    1.3633188    1.5118827   -4.6928606  
C    3.0267438   -0.0008951   -3.9901699  
H    4.9226755   -1.8885071   -2.6172766  
H    4.3863443    0.0144162   -7.7868770  
H    6.2134523   -1.7579029   -6.6312018  
C    3.3003547    0.0005277   -1.4738986  
C    2.5232816    0.0003497   -2.6090746  
C    1.1623203   -0.0001319   -2.1820102  
C    1.1711884    0.0000584   -0.7636141  
N    2.4852301   -0.0014919   -0.3662359  
C    0.0000000    0.0000000    0.0000000  
C   -1.2020383    0.0000520   -0.6806479  
O   -2.3759248    0.0003493    0.0157745  
C   -1.2314655   -0.0005115   -2.0955511  
O   -2.5054388   -0.0008040   -2.6250184  
C   -0.0764513   -0.0007274   -2.8495195  
H    2.8036266    0.0088183    0.5858662  
H   -3.0835639    0.0000346   -0.6418822  
H   -2.4360043   -0.0011529   -3.5845924  
H   -0.1304091   -0.0013423   -3.9319089  
H    4.3715553    0.0004897   -1.3667133  
C    0.8681109    0.7263879    2.2709268  
C    0.6127770    0.5096195    3.5869401  
C   -0.4920590   -0.4175482    3.6542670  
C   -0.8620974   -0.7254003    2.2596025  
N    0.0000000    0.0000000    1.4700000  
C   -1.8641242   -1.5660088    1.8976294  
C   -2.6293522   -2.2103885    2.9520183  
O   -3.5512764   -2.9839180    2.7283916  
C   -2.2549728   -1.8987399    4.4361073  
O   -2.8923672   -2.4351063    5.3323774  
C   -1.1543735   -0.9755647    4.7012123  
H    1.1382914    0.9492124    4.4159191  
H   -2.1192137   -1.7782617    0.8686553  
H   -0.9013378   -0.7652422    5.7314848  
H    1.6172880    1.3558399    1.8188057  
