60

C   -4.3061778    2.1200926    1.7410347  
C   -4.7522354    1.6594076    0.5239610  
C   -5.8380687    0.7726196    0.7869697  
C   -6.0104189    0.7315752    2.1942850  
N   -5.0628910    1.5594863    2.7432599  
C   -6.9950451   -0.0443757    2.8133160  
C   -7.8209226   -0.7922861    1.9967786  
O   -8.7993454   -1.5674732    2.5488543  
C   -7.6643683   -0.7648205    0.5905236  
O   -8.5636616   -1.5640976   -0.0845850  
C   -6.6930515    0.0002344   -0.0208356  
H   -4.3443788    1.9284610   -0.4353392  
H   -4.9481100    1.7400037    3.7241870  
H   -7.1314689   -0.0801100    3.8853763  
H   -9.2528984   -1.9995404    1.8134137  
H   -8.3897079   -1.4881503   -1.0277580  
H   -3.5071944    2.8031048    1.9735833  
C   -3.2941076    0.0012874   -2.9038237  
C   -3.9928925    0.0012416   -1.7448244  
C   -5.3903267    0.0018082   -2.1493928  
C   -5.3503938    0.0022637   -3.6275636  
N   -4.1243045    0.0018805   -4.0755523  
C   -6.5485052    0.0028447   -4.4210470  
C   -7.7326800    0.0025760   -3.7675455  
O   -8.9284331    0.0030587   -4.3809097  
C   -7.8059026    0.0017443   -2.2766401  
O   -8.9180023    0.0016649   -1.7489529  
C   -6.5627960    0.0012033   -1.4850530  
H   -3.6076317    0.0007788   -0.7395137  
H   -6.4897389    0.0033754   -5.4996831  
H   -9.5790599    0.0026690   -3.6557628  
C    0.0000000    0.0000000    0.0000000  
C    1.0541688   -0.0001722   -0.8560393  
C    0.5103135   -0.0000454   -2.1935957  
C   -0.9576374    0.0002459   -2.0455730  
N   -1.2018460   -0.0001391   -0.6915968  
C   -1.8348314    0.0008317   -3.0810607  
C   -1.2972851    0.0009737   -4.4314604  
O   -2.0050676    0.0014265   -5.4301315  
C    0.2542619    0.0004184   -4.6117571  
O    0.7184666    0.0002257   -5.7439121  
C    1.0974550    0.0000874   -3.4189130  
H    2.0940752   -0.0005483   -0.5817984  
H    2.1707276   -0.0000911   -3.5523671  
H   -2.1128194    0.0014912   -0.2706789  
C    1.0965515   -0.0001358    2.2710304  
C    0.0000000    0.0000000    1.4700000  
C   -1.1546562   -0.0001469    2.3369512  
C   -0.6372014   -0.0003519    3.7186280  
N    0.7342871   -0.0007337    3.6095011  
C   -1.4147739   -0.0001353    4.8308716  
C   -2.8576048    0.0001048    4.6554461  
O   -3.6427778    0.0002493    5.5944904  
C   -3.4275839    0.0000726    3.2011665  
O   -4.6406829   -0.0000333    3.0410059  
C   -2.4891866    0.0001091    2.0816745  
H   -1.0150448   -0.0001615    5.8354244  
H   -2.8919121    0.0002919    1.0779135  
H    2.1388271   -0.0000662    1.9961646  
H    1.3735872    0.0006099    4.3830260  
