62

C   -0.5494834    0.0892217   -8.7066855  
C    0.1887020   -0.5585563   -9.6699784  
C   -0.3333430   -0.1564399  -10.9350358  
C   -1.3976971    0.7453592  -10.6784533  
N   -1.5033706    0.8707765   -9.3154714  
C   -2.1443488    1.3437094  -11.6979033  
C   -1.8102614    1.0261445  -13.0000997  
O   -2.5065943    1.5822732  -14.0339537  
C   -0.7518056    0.1282576  -13.2763009  
O   -0.5421526   -0.0864659  -14.6228834  
C   -0.0149648   -0.4626114  -12.2710820  
H    1.0025365   -1.2382520   -9.4837520  
H   -2.1651651    1.4538887   -8.8358999  
H   -2.9568370    2.0317234  -11.5089519  
H   -2.1170595    1.2315589  -14.8454506  
H    0.1888950   -0.7039672  -14.7222064  
H    0.7899862   -1.1466074  -12.5133252  
C    2.1801846   -2.1249309   -6.0224128  
C    1.6691588   -1.6625653   -4.8318088  
C    0.6003592   -0.7747106   -5.1542709  
C    0.5048750   -0.7347773   -6.5689139  
N    1.4798201   -1.5643490   -7.0648071  
C   -0.4436396    0.0417841   -7.2412683  
C   -1.3117719    0.7914588   -6.4715206  
O   -2.2577359    1.5673117   -7.0766812  
C   -1.2319854    0.7651224   -5.0588080  
O   -2.1656653    1.5661201   -4.4343180  
C   -0.2963293   -0.0005341   -4.3948471  
H    2.0238859   -1.9312126   -3.8515077  
H    1.6475668   -1.7459252   -8.0378808  
H   -2.7500809    2.0006166   -6.3673799  
H   -2.0433737    1.4908465   -3.4830122  
H    2.9897747   -2.8091277   -6.2105564  
C    3.1301146   -0.0010313   -1.7028256  
C    2.5367765   -0.0002766   -0.4864669  
C    1.1089901    0.0001027   -0.7656184  
C    1.0177865   -0.0004150   -2.2415133  
N    2.1993571   -0.0011612   -2.7963824  
C   -0.2459219   -0.0002879   -2.9257116  
C   -1.3675326   -0.0000606   -2.1698520  
O   -2.6129318    0.0000865   -2.6748483  
C   -1.3083588    0.0000910   -0.6783229  
O   -2.3693264    0.0004206   -0.0541685  
C    0.0000000    0.0000000    0.0000000  
H    3.0096016   -0.0001007    0.4807518  
H   -3.1967444    0.0002093   -1.8949026  
H    4.1849275   -0.0015114   -1.9271979  
C    2.5128556    2.1077716    2.9199648  
C    1.9592212    1.6432552    4.0696553  
C    0.8915788    0.7479214    3.6910360  
C    0.8684491    0.7287414    2.2159470  
N    1.8754542    1.5738793    1.8102719  
C    0.0000000    0.0000000    1.4700000  
C   -0.9772830   -0.8200135    2.1664417  
O   -1.8021297   -1.5120829    1.5842315  
C   -0.9711318   -0.8147624    3.7284083  
O   -1.7894187   -1.5009653    4.3257297  
C    0.0140216    0.0115358    4.4216297  
H    2.2638494    1.8988021    5.0689105  
H    0.0117648    0.0094386    5.5031631  
H    3.3327358    2.7953732    2.7900019  
H    2.1123206    1.7707734    0.8551938  
