64

C    5.9055105   -1.0762179   -2.9610486  
C    6.0986232   -1.9621221   -1.9264725  
C    7.4997472   -2.2196708   -1.8549125  
C    8.1160941   -1.4563332   -2.8792947  
N    7.1194121   -0.7753303   -3.5331126  
C    9.4962056   -1.4654531   -3.1028974  
C   10.2682142   -2.2593902   -2.2771587  
O   11.6211978   -2.3052045   -2.4513682  
C    9.6716914   -3.0284831   -1.2497965  
O   10.5743233   -3.7673646   -0.5131471  
C    8.3102144   -3.0201811   -1.0288066  
H    5.3246975   -2.3731198   -1.3010829  
H    7.2557081   -0.1435701   -4.3014118  
H    9.9720810   -0.8860572   -3.8820286  
H   11.9625553   -2.9105466   -1.7803228  
H   10.0900831   -4.2570086    0.1586894  
H    7.8818924   -3.6199014   -0.2342289  
C    3.4043356   -0.7242389   -2.9869841  
C    2.4861704   -0.0045255   -3.7159919  
C    3.2157604    0.7227065   -4.7026185  
C    4.5865270    0.4039559   -4.5256371  
N    4.6659996   -0.4754876   -3.4745040  
C    5.5977279    0.9420306   -5.3273462  
C    5.2182041    1.8176016   -6.3261032  
O    6.1649636    2.3718711   -7.1381655  
C    3.8556310    2.1482716   -6.5181120  
O    3.6391791    3.0341224   -7.5533706  
C    2.8575500    1.6180360   -5.7274084  
H    6.6442992    0.7032256   -5.1974919  
H    5.6928644    2.9443333   -7.7567723  
H    2.6943224    3.2044170   -7.6154168  
H    1.8225157    1.8901111   -5.8981659  
H    3.2592089   -1.3942253   -2.1569147  
C    0.0000000    0.0000000    0.0000000  
C    1.0521669   -0.0011848   -0.8862341  
C    0.4917221   -0.0011931   -2.1979130  
C   -0.9187427    0.0003100   -2.0478683  
N   -1.1833170   -0.0009472   -0.7007915  
C   -1.7951698    0.0010259   -3.1372090  
C   -1.2375835    0.0005161   -4.4010425  
O   -2.0474208    0.0015256   -5.4997580  
C    0.1673584   -0.0013557   -4.5711962  
O    0.5673529   -0.0020659   -5.8915551  
C    1.0325773   -0.0023359   -3.4969890  
H    2.0953059   -0.0030542   -0.6200560  
H   -2.0989777    0.0102265   -0.2891825  
H   -2.8710930    0.0020274   -3.0295514  
H   -1.4634881    0.0006427   -6.2693593  
H    1.5290715   -0.0033076   -5.9180042  
C    3.2798086   -0.0005857    2.9199648  
C    2.5571146   -0.0005566    4.0696553  
C    1.1637436   -0.0001548    3.6910360  
C    1.1336965    0.0000200    2.2159470  
N    2.4483514    0.0001428    1.8102719  
C    0.0000000    0.0000000    1.4700000  
C   -1.2757367    0.0000186    2.1664417  
O   -2.3524596    0.0000640    1.5842315  
C   -1.2676493    0.0000873    3.7284083  
O   -2.3355761    0.0004100    4.3257297  
C    0.0181563   -0.0001760    4.4216297  
H    2.9547357   -0.0006076    5.0689105  
H    0.0150794   -0.0003319    5.5031631  
H    4.3498549   -0.0008612    2.7900019  
H    2.7563627   -0.0012824    0.8551938  
