62

C    1.5672959   -1.1099781   -7.2542752  
C    2.5510993   -1.9942768   -6.8766330  
C    3.3450128   -2.2526406   -8.0331578  
C    2.7932924   -1.4914320   -9.0952747  
N    1.7140868   -0.8108598   -8.5885652  
C    3.3243547   -1.5018482  -10.3885854  
C    4.4327468   -2.2949162  -10.6137248  
O    4.9917666   -2.3419259  -11.8580323  
C    4.9973796   -3.0618885   -9.5669395  
O    6.0980745   -3.8001373   -9.9500850  
C    4.4738346   -3.0523069   -8.2908772  
H    2.6799425   -2.4037094   -5.8893350  
H    1.1297771   -0.1804790   -9.1073933  
H    2.9084321   -0.9240764  -11.2024590  
H    5.7429100   -2.9463707  -11.7972456  
H    6.4180688   -4.2883318   -9.1853150  
H    4.9278111   -3.6504093   -7.5094326  
C    0.2315707   -0.7260330   -5.1498919  
C    0.4808480   -0.5092810   -6.4670686  
C   -0.5209812    0.4176789   -6.9381511  
C   -1.3804948    0.7254271   -5.7791349  
N   -0.8712826    0.0001710   -4.7267111  
C   -2.4455050    1.5658368   -5.8133218  
C   -2.7667993    2.2100973   -7.0759516  
O   -3.7062213    2.9834467   -7.2090626  
C   -1.8701895    1.8985555   -8.3164504  
O   -2.1311485    2.4348231   -9.3848975  
C   -0.7493902    0.9755954   -8.1558109  
H   -3.0629932    1.7780163   -4.9515804  
H   -0.1333307    0.7653459   -9.0195185  
H    0.7606203   -1.3553539   -4.4527902  
C    1.0965514    0.0001359   -0.8010305  
C    0.0000000    0.0000000    0.0000000  
C   -1.1546563    0.0001470   -0.8669513  
C   -0.6372014    0.0003519   -2.2486282  
N    0.7342871    0.0007337   -2.1395014  
C   -1.4147739    0.0001352   -3.3608717  
C   -2.8576049   -0.0001048   -3.1854462  
O   -3.6427779   -0.0002494   -4.1244907  
C   -3.4275840   -0.0000725   -1.7311666  
O   -4.6406831    0.0000333   -1.5710060  
C   -2.4891867   -0.0001091   -0.6116744  
H   -2.8919122   -0.0002918    0.3920866  
H    2.1388272    0.0000663   -0.5261648  
H    1.3735872   -0.0006099   -2.9130262  
C    0.8576279    0.7185626    2.2703808  
C    0.0000000    0.0000000    1.4700000  
C   -0.8668858   -0.7285659    2.3373528  
C   -0.4876752   -0.4117774    3.6669281  
N    0.5635254    0.4678311    3.5902241  
C   -1.1297612   -0.9515493    4.7854808  
C   -2.1738724   -1.8268314    4.5576857  
O   -2.8357962   -2.3827064    5.6140350  
C   -2.5667212   -2.1555554    3.2384331  
O   -3.6226318   -3.0413663    3.1773122  
C   -1.9335634   -1.6236449    2.1344818  
H    1.0363952    0.8769718    4.3757045  
H   -0.8454472   -0.7142436    5.8013813  
H   -3.5178062   -2.9546422    5.2385129  
H   -3.8247440   -3.2102924    2.2519915  
H   -2.2566033   -1.8942483    1.1360343  
H    1.6567807    1.3889844    2.0042067  
