60

C    4.0575067   -3.6495876   -5.0839525  
C    4.7203688   -4.4725153   -4.2031168  
C    4.0451124   -4.3719194   -2.9507160  
C    2.9688718   -3.4655119   -3.1297662  
N    3.0064170   -3.0442283   -4.4358013  
C    2.0864042   -3.1263647   -2.0997084  
C    2.2939973   -3.7131484   -0.8665139  
O    1.4617084   -3.4175043    0.1741120  
C    3.3625049   -4.6196470   -0.6680936  
O    3.4368143   -5.1187738    0.6159200  
C    4.2336323   -4.9544772   -1.6837466  
H    5.5849789   -5.0707799   -4.4344691  
H    1.2642898   -2.4361229   -2.2296913  
H    1.7794911   -3.9267100    0.9310719  
H    4.1844916   -5.7222558    0.6648539  
H    5.0430344   -5.6517843   -1.5017876  
H    4.2521828   -3.4454550   -6.1228889  
C    2.0577021   -2.1067615   -5.0538589  
C    2.0213365   -1.6421649   -6.3293598  
C    0.8918560   -0.7471749   -6.4193661  
C    0.2687255   -0.7282836   -5.0821513  
N    1.0227497   -1.5732438   -4.3008835  
C   -0.8287665    0.0000939   -4.7555305  
C   -1.4369821    0.8199929   -5.7901197  
O   -2.4278334    1.5117412   -5.5951870  
C   -0.7939004    0.8150431   -7.2135754  
O   -1.2973746    1.5011527   -8.0927953  
C    0.3886470   -0.0108721   -7.4444394  
H    2.7073328   -1.8974429   -7.1173043  
H    0.8279778   -0.0085678   -8.4327244  
H    0.8492698   -1.7702610   -3.3323090  
C    1.0672569   -0.0000698   -0.8321910  
C    0.0000000    0.0000000    0.0000000  
C   -1.1601223   -0.0000736   -0.8778472  
C   -0.5938729   -0.0000768   -2.2438435  
N    0.7113367   -0.0001553   -2.2234123  
C   -1.4286985   -0.0001877   -3.4135239  
C   -2.7683113   -0.0006798   -3.2270524  
O   -3.6653902   -0.0008302   -4.2276970  
C   -3.3702024   -0.0010610   -1.8610774  
O   -4.5974910   -0.0013779   -1.7662963  
C   -2.4926825   -0.0008943   -0.6770658  
H   -4.5324245   -0.0012258   -3.7833954  
H   -2.9677772   -0.0012974    0.2947961  
H    2.1134391   -0.0000547   -0.5705119  
C    2.4951002    2.0940188    2.9809380  
C    1.9440701    1.6314916    1.8291961  
C    0.8759964    0.7350050    2.2038498  
C    0.8497377    0.7130254    3.6788474  
N    1.8560616    1.5571714    4.0882609  
C   -0.0205033   -0.0168748    4.4215661  
C   -0.9962600   -0.8356168    3.7214979  
O   -1.8224391   -1.5286685    4.3006425  
C   -0.9864710   -0.8277881    2.1595606  
O   -1.8030528   -1.5133726    1.5592035  
C    0.0000000    0.0000000    1.4700000  
H    2.2509283    1.8888011    0.8310761  
H   -0.0229599   -0.0187323    5.5027230  
H    3.3143982    2.7817323    3.1139444  
H    2.0889452    1.7545833    5.0442112  
