62

C   -4.8567933    3.7167020    1.5892413  
C   -4.1633905    4.5191051    2.4654881  
C   -2.7779441    4.3668128    2.1622646  
C   -2.6863523    3.4514747    1.0825915  
N   -3.9665820    3.0748255    0.7604665  
C   -1.4660668    3.0652565    0.5199838  
C   -0.3173339    3.6132785    1.0568846  
O    0.9008591    3.2709049    0.5452221  
C   -0.3881848    4.5279460    2.1344652  
O    0.8429023    4.9847416    2.5576743  
C   -1.5916655    4.9092037    2.6901658  
H   -4.6021036    5.1372170    3.2299899  
H   -1.3895027    2.3679633   -0.3028904  
H    1.5589433    3.7589681    1.0570674  
H    0.7058382    5.5969755    3.2870485  
H   -1.6145420    5.6116304    3.5151217  
H   -5.9158504    3.5503682    1.4908042  
C   -4.3329675    2.1450165   -0.3175488  
C   -5.5711461    1.7385426   -0.6826123  
C   -5.3538023    0.8273989   -1.7957513  
C   -3.8860920    0.7997430   -1.9736453  
N   -3.2823486    1.5701202   -1.1099313  
C   -3.2578655    0.0024282   -2.9908505  
C   -4.0594178   -0.7340900   -3.7935896  
O   -3.6090876   -1.5234311   -4.7836320  
C   -5.5440605   -0.7276259   -3.6388183  
O   -6.2117105   -1.4223052   -4.4049024  
C   -6.1645245    0.0985292   -2.5879063  
H   -6.5153538    2.0219323   -0.2499015  
H   -4.4116850   -1.9150023   -5.1730707  
H   -7.2431276    0.0755590   -2.5084194  
C    0.0000000    0.0000000    0.0000000  
C    1.0521666   -0.0011982   -0.8862343  
C    0.4917215   -0.0011996   -2.1979132  
C   -0.9187429    0.0003215   -2.0478682  
N   -1.1833171   -0.0009323   -0.7007913  
C   -1.7951703    0.0010483   -3.1372089  
C   -1.2375841    0.0005313   -4.4010422  
O   -2.0474218    0.0015510   -5.4997578  
C    0.1673576   -0.0013585   -4.5711963  
O    0.5673520   -0.0020735   -5.8915554  
C    1.0325768   -0.0023493   -3.4969892  
H    2.0953056   -0.0030808   -0.6200564  
H   -2.0989778    0.0102529   -0.2891822  
H   -1.4634888    0.0006601   -6.2693595  
H    1.5290707   -0.0033271   -5.9180047  
H    2.1042146   -0.0039770   -3.6584456  
C    1.0672568    0.0000697    2.3021913  
C    0.0000000    0.0000000    1.4700000  
C   -1.1601224    0.0000736    2.3478473  
C   -0.5938729    0.0000769    3.7138435  
N    0.7113367    0.0001554    3.6934124  
C   -1.4286986    0.0001879    4.8835240  
C   -2.7683114    0.0006799    4.6970523  
O   -3.6653903    0.0008304    5.6976972  
C   -3.3702025    0.0010610    3.3310774  
O   -4.5974910    0.0013779    3.2362962  
C   -2.4926826    0.0008943    2.1470656  
H   -0.9878360   -0.0000190    5.8697035  
H   -4.5324246    0.0012261    5.2533954  
H   -2.9677772    0.0012974    1.1752040  
H    2.1134392    0.0000545    2.0405121  
