64

C    4.6933491   -3.0387594   -0.3951994  
C    3.8830987   -3.6872685    0.5077940  
C    4.7325864   -4.4806236    1.3345697  
C    6.0619648   -4.2737317    0.8852634  
N    6.0021295   -3.3944215   -0.1672809  
C    7.1650856   -4.9000065    1.4732216  
C    6.9218035   -5.7503972    2.5342715  
O    7.9627346   -6.3876209    3.1453526  
C    5.6024439   -5.9699727    2.9967582  
O    5.5248321   -6.8442999    4.0611228  
C    4.5136863   -5.3526846    2.4170277  
H    2.8114829   -3.6001826    0.5630120  
H    6.7925129   -3.0517898   -0.6829152  
H    8.1807339   -4.7466356    1.1353774  
H    7.5781230   -6.9249568    3.8500577  
H    4.6006060   -6.9371250    4.3117090  
H    3.5147304   -5.5405224    2.7929036  
C    4.3489003   -2.1006738   -1.4732768  
C    3.1285974   -1.6364578   -1.8466932  
C    3.3412599   -0.7405808   -2.9589047  
C    4.7959153   -0.7207993   -3.2046241  
N    5.3494458   -1.5655063   -2.2702989  
C    5.4017633    0.0079523   -4.1760004  
C    4.5653390    0.8276900   -5.0367904  
O    5.0159492    1.5198389   -5.9402175  
C    3.0222816    0.8221878   -4.7944084  
O    2.3079739    1.5086269   -5.5126188  
C    2.4861704   -0.0045255   -3.7159919  
H    2.1869569   -1.8922660   -1.3944885  
H    6.4704902    0.0081996   -4.3395029  
H    6.3291330   -1.7643306   -2.1823805  
C    0.0000000    0.0000000    0.0000000  
C    1.0521669   -0.0011848   -0.8862341  
C    0.4917221   -0.0011931   -2.1979130  
C   -0.9187427    0.0003100   -2.0478683  
N   -1.1833170   -0.0009472   -0.7007915  
C   -1.7951698    0.0010259   -3.1372090  
C   -1.2375835    0.0005161   -4.4010425  
O   -2.0474208    0.0015256   -5.4997580  
C    0.1673584   -0.0013557   -4.5711962  
O    0.5673529   -0.0020659   -5.8915551  
C    1.0325773   -0.0023359   -3.4969890  
H    2.0953059   -0.0030542   -0.6200560  
H   -2.0989777    0.0102265   -0.2891825  
H   -2.8710930    0.0020274   -3.0295514  
H   -1.4634881    0.0006427   -6.2693593  
H    1.5290715   -0.0033076   -5.9180042  
C    3.3003543   -0.0005276    2.9438989  
C    2.5232812   -0.0003497    4.0790748  
C    1.1623199    0.0001319    3.6520102  
C    1.1711883   -0.0000583    2.2336141  
N    2.4852299    0.0014920    1.8362361  
C    0.0000000    0.0000000    1.4700000  
C   -1.2020384   -0.0000520    2.1506477  
O   -2.3759250   -0.0003494    1.4542253  
C   -1.2314658    0.0005113    3.5655508  
O   -2.5054393    0.0008037    4.0950179  
C   -0.0764518    0.0007272    4.3195194  
H    2.8919952    0.0005619    5.0905303  
H    2.8036267   -0.0088181    0.8841339  
H   -3.0835639   -0.0000348    2.1118817  
H   -2.4360050    0.0011527    5.0545920  
H   -0.1304098    0.0013421    5.4019087  
H    4.3715549   -0.0004895    2.8367138  
