62

C    7.4245170   -0.0073517    2.4566577  
C    6.7509478   -0.0103920    3.6561421  
C    7.7366381   -0.0126724    4.6871660  
C    9.0043857   -0.0105789    4.0509770  
N    8.7786408   -0.0093146    2.6968527  
C   10.2077583   -0.0116580    4.7627946  
C   10.1299273   -0.0146028    6.1419646  
O   11.2742523   -0.0154202    6.8859623  
C    8.8744168   -0.0171003    6.7950382  
O    8.9639903   -0.0203133    8.1717396  
C    7.6868571   -0.0163108    6.0934497  
H    5.6808061   -0.0120085    3.7735620  
H    9.4912273    0.0028164    1.9897077  
H   11.1772051   -0.0102189    4.2838657  
H   10.9980547   -0.0178411    7.8116918  
H    8.0729215   -0.0218188    8.5345050  
H    6.7403300   -0.0184602    6.6212370  
C    6.9078739   -0.0046646    1.0804408  
C    5.6166932   -0.0033645    0.6749416  
C    5.6800152   -0.0008098   -0.7784970  
C    7.1258514   -0.0007965   -1.0885645  
N    7.8505605   -0.0031316   -0.0028482  
C    7.6141447    0.0013734   -2.4401011  
C    6.6996209    0.0030472   -3.4365839  
O    7.0134393    0.0051620   -4.7433182  
C    5.2335528    0.0027107   -3.1558600  
O    4.4582992    0.0044331   -4.1119979  
C    4.7577216    0.0005129   -1.7610467  
H    4.7307110   -0.0041440    1.2865874  
H    8.6761780    0.0015371   -2.6375709  
H    6.1552205    0.0059338   -5.2044175  
C    3.3041270    0.0001177   -1.5420435  
C    2.5845370   -0.0004780   -0.3695856  
C    1.2040004   -0.0000007   -0.7283590  
C    1.1422370    0.0006038   -2.1454373  
N    2.4348634    0.0026110   -2.6077469  
C   -0.0655187    0.0008799   -2.8497918  
C   -1.2321769    0.0002326   -2.1101398  
O   -2.4392822    0.0001149   -2.7472517  
C   -1.1911211   -0.0000007   -0.6955263  
O   -2.4371526   -0.0002319   -0.1032858  
C    0.0000000    0.0000000    0.0000000  
H    3.0031534   -0.0000661    0.6222578  
H    2.7054623   -0.0071098   -3.5745266  
H   -0.1193555    0.0014846   -3.9297472  
H   -3.1132992   -0.0000646   -2.0551783  
H   -2.3200279   -0.0004070    0.8516411  
C    0.8400945    0.7047457    2.2710304  
C    0.0000000    0.0000000    1.4700000  
C   -0.8844236   -0.7423113    2.3369512  
C   -0.4878984   -0.4098547    3.7186280  
N    0.5629682    0.4714286    3.6095011  
C   -1.0836927   -0.9095027    4.8308716  
C   -2.1891196   -1.8367527    4.6554461  
O   -2.7906899   -2.3413415    5.5944904  
C   -2.6257283   -2.2031529    3.2011665  
O   -3.5549479   -2.9829990    3.0410059  
C   -1.9068976   -1.5999348    2.0816745  
H   -0.7774656   -0.6525820    5.8354244  
H   -2.2155208   -1.8586617    1.0779135  
H    1.6384792    1.3747609    1.9961646  
H    1.0518368    0.8833920    4.3830260  
