60

C    6.2927186   -0.7017184   -3.4168595  
C    7.5959522   -0.4513391   -3.0544239  
C    8.1281186    0.4580709   -4.0158671  
C    7.0946285    0.7294558   -4.9486988  
N    5.9945976    0.0077625   -4.5566444  
C    7.2654176    1.5895815   -6.0376453  
C    8.5019424    2.1868578   -6.1874639  
O    8.7229865    3.0357912   -7.2331516  
C    9.5457260    1.9283516   -5.2674051  
O   10.7172707    2.5985324   -5.5532122  
C    9.3780309    1.0797186   -4.1930559  
H    8.1012701   -0.8732161   -2.2025629  
H    6.4817740    1.8004624   -6.7522318  
H    9.6372579    3.3370278   -7.1517283  
H   11.3698714    2.3689549   -4.8846241  
H   10.1960177    0.9009189   -3.5050103  
H    5.5526941   -1.3313682   -2.9533256  
C    1.7334697    0.0049246   -3.2500361  
C    3.0863258    0.0047395   -3.2131614  
C    3.4995613    0.0065854   -4.6080567  
C    2.2333973    0.0076339   -5.3718701  
N    1.1947442    0.0067482   -4.5811810  
C    2.2116358    0.0095928   -6.8087451  
C    3.4007181    0.0108539   -7.4532716  
O    3.5293452    0.0127176   -8.7909908  
C    4.6955643    0.0102154   -6.7106176  
O    5.7398288    0.0113176   -7.3623315  
C    4.6914550    0.0081545   -5.2368793  
H    3.7249597    0.0035934   -2.3464312  
H    1.2717200    0.0101175   -7.3411622  
H    4.4909169    0.0132660   -8.9476192  
C    1.1319247    0.0015655   -0.8009267  
C    0.7969916    0.0034943   -2.1169401  
C   -0.6453337    0.0035710   -2.1842668  
C   -1.1266832    0.0015433   -0.7896026  
N    0.0000000    0.0000000    0.0000000  
C   -2.4346130    0.0013964   -0.4276294  
C   -3.4350109    0.0031408   -1.4820183  
O   -4.6384610    0.0030973   -1.2583915  
C   -2.9478956    0.0050505   -2.9661075  
O   -3.7809378    0.0062218   -3.8623775  
C   -1.5113821    0.0053090   -3.2312122  
H   -2.7664565    0.0000232    0.6013446  
H   -1.1823527    0.0068407   -4.2614846  
H    2.1104317    0.0009391   -0.3488056  
C    0.8400945    0.7047457    2.2710304  
C    0.0000000    0.0000000    1.4700000  
C   -0.8844236   -0.7423113    2.3369512  
C   -0.4878984   -0.4098547    3.7186280  
N    0.5629682    0.4714286    3.6095011  
C   -1.0836927   -0.9095027    4.8308716  
C   -2.1891196   -1.8367527    4.6554461  
O   -2.7906899   -2.3413415    5.5944904  
C   -2.6257283   -2.2031529    3.2011665  
O   -3.5549479   -2.9829990    3.0410059  
C   -1.9068976   -1.5999348    2.0816745  
H   -0.7774656   -0.6525820    5.8354244  
H   -2.2155208   -1.8586617    1.0779135  
H    1.6384792    1.3747609    1.9961646  
H    1.0518368    0.8833920    4.3830260  
