64

C   -8.3858717    0.9879337   -2.4288756  
C   -7.5657081   -0.0885040   -2.6760230  
C   -8.4090013   -1.2296297   -2.8219302  
C   -9.7449822   -0.7842687   -2.6524144  
N   -9.6949293    0.5666534   -2.4134130  
C  -10.8445916   -1.6441674   -2.7312936  
C  -10.5909355   -2.9778989   -2.9862388  
O  -11.6280194   -3.8609613   -3.0738363  
C   -9.2648775   -3.4414732   -3.1579504  
O   -9.1771676   -4.7959491   -3.4050229  
C   -8.1795860   -2.5937754   -3.0799988  
H  -10.4913237    1.1595504   -2.2643802  
H  -11.8652369   -1.3109990   -2.6029021  
H  -11.2361228   -4.7253622   -3.2540938  
H   -8.2489346   -5.0267460   -3.5085637  
H   -7.1753217   -2.9778434   -3.2157301  
H   -8.1405527    2.0226269   -2.2609840  
C   -4.4706944    2.1246862   -0.3281859  
C   -5.6599778    1.6264299   -0.8075742  
C   -5.3396889    0.7516500   -1.8877480  
C   -3.9276472    0.7558729   -2.0220872  
N   -3.4313258    1.6012781   -1.0610605  
C   -3.2578655    0.0024282   -2.9908505  
C   -4.0275333   -0.7695740   -3.8392615  
O   -3.4247947   -1.5249624   -4.8031638  
C   -5.4377033   -0.7867288   -3.7211790  
O   -6.0624936   -1.6048448   -4.6396926  
C   -6.0991482   -0.0434787   -2.7658800  
H   -6.6381202    1.8650658   -0.4264137  
H   -2.4588260    1.7971332   -0.9065740  
H   -4.1336020   -1.9789343   -5.2772601  
H   -7.0119839   -1.5590485   -4.4914533  
H   -4.2816969    2.8131210    0.4776036  
C    0.0000000    0.0000000    0.0000000  
C    1.0521666   -0.0011982   -0.8862343  
C    0.4917215   -0.0011996   -2.1979132  
C   -0.9187429    0.0003215   -2.0478682  
N   -1.1833171   -0.0009323   -0.7007913  
C   -1.7951703    0.0010483   -3.1372089  
C   -1.2375841    0.0005313   -4.4010422  
O   -2.0474218    0.0015510   -5.4997578  
C    0.1673576   -0.0013585   -4.5711963  
O    0.5673520   -0.0020735   -5.8915554  
C    1.0325768   -0.0023493   -3.4969892  
H    2.0953056   -0.0030808   -0.6200564  
H   -2.0989778    0.0102529   -0.2891822  
H   -1.4634888    0.0006601   -6.2693595  
H    1.5290707   -0.0033271   -5.9180047  
H    2.1042146   -0.0039770   -3.6584456  
C    3.2573670    0.0002920    2.9809380  
C    2.5379467    0.0001709    1.8291961  
C    1.1435042   -0.0000331    2.2038498  
C    1.1092607    0.0000083    3.6788474  
N    2.4227561   -0.0001909    4.0882609  
C   -0.0265533    0.0002524    4.4215661  
C   -1.3003036    0.0002640    3.7214979  
O   -2.3786784    0.0004133    4.3006425  
C   -1.2877726   -0.0000311    2.1595606  
O   -2.3539958   -0.0003306    1.5592035  
C    0.0000000    0.0000000    1.4700000  
H    2.9384090    0.0000368    0.8310761  
H   -0.0296291    0.0004086    5.5027230  
H    4.3270393    0.0004765    3.1139444  
H    2.7280493    0.0013407    5.0442112  
