62

C    1.1243414    0.0099912   -0.7919008  
C    0.7474077    0.0234538   -2.1148545  
C   -0.6787381    0.0234497   -2.1414700  
C   -1.1201746    0.0098604   -0.7935548  
N    0.0000000    0.0000000    0.0000000  
C   -2.4730815    0.0063734   -0.4408243  
C   -3.3971956    0.0171016   -1.4675064  
O   -4.7313519    0.0146310   -1.1793472  
C   -2.9763648    0.0303539   -2.8186327  
O   -4.0166472    0.0395161   -3.7247626  
C   -1.6418562    0.0335279   -3.1673481  
H    1.4178718    0.0310959   -2.9571207  
H   -2.8160167   -0.0041081    0.5845958  
H   -5.1938816    0.0230922   -2.0274387  
H   -3.6464673    0.0482334   -4.6127345  
H    2.1062466    0.0052798   -0.3505407  
C    1.5236698   -1.9535955   -5.5953572  
C    0.7582187   -1.5822012   -4.5428700  
C   -0.2204381   -0.6598275   -5.0978089  
C    0.1097185   -0.5877875   -6.5373887  
N    1.1311693   -1.3441370   -6.8349859  
C   -0.6387792    0.2324873   -7.4495222  
C   -1.6704573    0.9479597   -6.9464571  
O   -2.4537270    1.7547954   -7.6823555  
C   -2.0287020    0.8961218   -5.4983086  
O   -2.9800439    1.5738411   -5.1098947  
C   -1.2456326    0.0471742   -4.5828769  
H    0.8467098   -1.8955443   -3.5166819  
H   -3.0949060    2.1236233   -7.0483140  
H    2.3626182   -2.6311775   -5.6000643  
C    0.1145133   -0.8107405   -9.6364353  
C    0.3788857   -0.4395501  -10.9156538  
C    0.1433654    0.9825929  -10.9985685  
C   -0.2829188    1.4125918   -9.6531415  
N   -0.2801568    0.2783996   -8.8743670  
C   -0.5999017    2.6889702   -9.3183511  
C   -0.5158086    3.7071339  -10.3521808  
O   -0.7806861    4.8849870  -10.1501817  
C   -0.0668134    3.2742313  -11.7842433  
O    0.0074006    4.1225894  -12.6629028  
C    0.2491117    1.8682508  -12.0235396  
H    0.7018360   -1.0880186  -11.7105161  
H   -0.9102242    2.9833087   -8.3253883  
H    0.5594104    1.5767505  -13.0177550  
H    0.1745912   -1.7883487   -9.1863661  
C    2.5311839    2.1237619    3.0120429  
C    1.9795631    1.6616747    1.8395852  
C    0.9223175    0.7739173    2.1983588  
C    0.8753926    0.7337535    3.6154372  
N    1.8668922    1.5631002    4.0777464  
C   -0.0496243   -0.0427881    4.3197917  
C   -0.9437528   -0.7922060    3.5801400  
O   -1.8685244   -1.5680278    4.2172520  
C   -0.9124520   -0.7656372    2.1655264  
O   -1.8671164   -1.5663939    1.5732860  
C    0.0000000    0.0000000    1.4700000  
H    2.3005065    1.9304404    0.8477417  
H    2.0679347    1.7444845    5.0445261  
H   -0.0904770   -0.0778569    5.3997470  
H   -2.3849669   -2.0011402    3.5251786  
H   -1.7775064   -1.4909735    0.6183591  
H    3.3468514    2.8078103    3.1724291  
