60

C    2.6279989   -4.3055464    1.4832128  
C    3.7537325   -4.9158934    1.9858739  
C    4.8569031   -4.4652309    1.2019620  
C    4.3387415   -3.5737575    0.2279445  
N    2.9821907   -3.5009161    0.4256375  
C    5.1457116   -2.9364199   -0.7193614  
C    6.5004833   -3.2036571   -0.6825417  
O    7.3341527   -2.6079659   -1.5842964  
C    7.0363245   -4.0904643    0.2814418  
O    8.4031207   -4.2532000    0.1880105  
C    6.2407855   -4.7197759    1.2161135  
H    3.7767966   -5.6024329    2.8148044  
H    2.3472088   -2.9365692   -0.1094253  
H    8.2240512   -2.9272423   -1.3857839  
H    8.6839783   -4.8665734    0.8739377  
H    6.6797143   -5.3941048    1.9421305  
H    1.6002467   -4.3816198    1.7944942  
C    4.6171595   -2.0114327   -1.7322441  
C    3.3328188   -1.6298292   -1.9231035  
C    3.3780282   -0.7112573   -3.0503486  
C    4.8069993   -0.6523619   -3.4260564  
N    5.5382126   -1.4125189   -2.6569807  
C    5.2745461    0.1606798   -4.5148398  
C    4.3562413    0.8817939   -5.1975148  
O    4.6514324    1.6829996   -6.2352881  
C    2.9068167    0.8432087   -4.8427746  
O    2.1270277    1.5254609   -5.5073661  
C    2.4521483    0.0014840   -3.7217481  
H    2.4622557   -1.9341723   -1.3676120  
H    6.3245851    0.1848315   -4.7673174  
H    3.7953904    2.0581840   -6.5102100  
C    0.0000000    0.0000000    0.0000000  
C    1.0662923   -0.0000101   -0.8334270  
C    0.4961873    0.0000065   -2.1718887  
C   -0.9663854   -0.0000848   -1.9540250  
N   -1.2632773   -0.0000083   -0.6828660  
C   -1.8985359   -0.0000514   -3.0477261  
C   -1.3925770    0.0004566   -4.3020547  
O   -2.1456378    0.0005414   -5.4151314  
C    0.0786240    0.0009326   -4.5545000  
O    0.4683767    0.0012591   -5.7221100  
C    1.0143171    0.0008444   -3.4159031  
H    2.1107200    0.0000633   -0.5721865  
H   -2.9622181   -0.0003268   -2.8593381  
H   -1.5042265    0.0009697   -6.1484419  
C    0.0000000    0.0000000    1.4700000  
C    1.0541688    0.0001722    2.3260392  
C    0.5103138    0.0000454    3.6635956  
C   -0.9576371   -0.0002459    3.5155732  
N   -1.2018458    0.0001392    2.1615969  
C   -1.8348311   -0.0008317    4.5510609  
C   -1.2972847   -0.0009736    5.9014604  
O   -2.0050672   -0.0014265    6.9001319  
C    0.2542623   -0.0004184    6.0817573  
O    0.7184670   -0.0002256    7.2139121  
C    1.0974552   -0.0000873    4.8889129  
H    2.0940752    0.0005483    2.0517982  
H   -2.9081052   -0.0011668    4.4207061  
H    2.1707277    0.0000911    5.0223670  
H   -2.1128194   -0.0014912    1.7406791  
