62

C    0.2582588    0.0330691   -8.8507341  
C    1.2939181   -0.6417597   -9.4544601  
C    1.2806670   -0.2772020  -10.8334166  
C    0.2058101    0.6306190  -11.0136109  
N   -0.3951475    0.7955924   -9.7903977  
C   -0.1050061    1.1982578  -12.2529530  
C    0.6837938    0.8432195  -13.3299498  
O    0.4246377    1.3682856  -14.5628963  
C    1.7604641   -0.0612686  -13.1702642  
O    2.4510809   -0.3149277  -14.3373304  
C    2.0675006   -0.6218539  -11.9479705  
H    1.9744666   -1.3149209   -8.9618130  
H   -1.1815962    1.3917647   -9.6058523  
H   -0.9229581    1.8906673  -12.3969185  
H    1.0831701    0.9944663  -15.1627789  
H    3.1609210   -0.9343250  -14.1421947  
H    2.8981971   -1.3118075  -11.8563949  
C    1.7720688   -2.0859335   -5.3149821  
C    0.8968264   -1.6247192   -4.3847633  
C   -0.0065337   -0.7270827   -5.0652227  
C    0.4171841   -0.7029979   -6.4782596  
N    1.5002595   -1.5471470   -6.5634086  
C   -0.1857666    0.0284588   -7.4494065  
C   -1.3281508    0.8467740   -7.0781196  
O   -1.9388956    1.5411252   -7.8800978  
C   -1.7940047    0.8367265   -5.5872531  
O   -2.7544406    1.5219332   -5.2627294  
C   -1.0641734    0.0073898   -4.6315339  
H    0.8854566   -1.8836208   -3.3409939  
H    2.5929127   -2.7739332   -5.1934844  
H    2.0129032   -1.7433391   -7.4034991  
C    1.1319248    0.0015675   -0.8009270  
C    0.7969916    0.0034959   -2.1169404  
C   -0.6453336    0.0035703   -2.1842672  
C   -1.1266831    0.0015415   -0.7896027  
N    0.0000000    0.0000000    0.0000000  
C   -2.4346129    0.0013924   -0.4276297  
C   -3.4350110    0.0031352   -1.4820184  
O   -4.6384610    0.0030897   -1.2583919  
C   -2.9478958    0.0050460   -2.9661075  
O   -3.7809377    0.0062160   -3.8623775  
C   -1.5113821    0.0053068   -3.2312125  
H    1.4821240    0.0045436   -2.9459192  
H   -2.7664565    0.0000185    0.6013447  
H    2.1104318    0.0009428   -0.3488058  
C    2.5311839    2.1237619    3.0120429  
C    1.9795631    1.6616747    1.8395852  
C    0.9223175    0.7739173    2.1983588  
C    0.8753926    0.7337535    3.6154372  
N    1.8668922    1.5631002    4.0777464  
C   -0.0496243   -0.0427881    4.3197917  
C   -0.9437528   -0.7922060    3.5801400  
O   -1.8685244   -1.5680278    4.2172520  
C   -0.9124520   -0.7656372    2.1655264  
O   -1.8671164   -1.5663939    1.5732860  
C    0.0000000    0.0000000    1.4700000  
H    2.3005065    1.9304404    0.8477417  
H    2.0679347    1.7444845    5.0445261  
H   -0.0904770   -0.0778569    5.3997470  
H   -2.3849669   -2.0011402    3.5251786  
H   -1.7775064   -1.4909735    0.6183591  
H    3.3468514    2.8078103    3.1724291  
