64

C   -4.3326183    0.7210109   -6.3151830  
C   -3.6548373    0.0018781   -7.2722243  
C   -4.6310807   -0.7254140   -8.0155909  
C   -5.8976980   -0.4072967   -7.4620486  
N   -5.6802106    0.4718433   -6.4303368  
C   -7.0926341   -0.9456000   -7.9490248  
C   -7.0074010   -1.8207520   -9.0143982  
O   -8.1433610   -2.3752198   -9.5293499  
C   -5.7528504   -2.1507886   -9.5800808  
O   -5.8343860   -3.0362813  -10.6348781  
C   -4.5735869   -1.6203273   -9.1000033  
H   -6.3949914    0.8816781   -5.8566609  
H   -8.0611604   -0.7072766   -7.5314600  
H   -7.8629940   -2.9473208  -10.2555456  
H   -4.9445640   -3.2061546  -10.9588602  
H   -3.6275694   -1.8919149   -9.5536219  
H   -3.9612791    1.3908470   -5.5586213  
C   -0.2963294   -0.0005341   -4.3948471  
C    0.7248285   -0.0020374   -5.3166395  
C    0.1197345   -0.0021750   -6.6083289  
C   -1.2847550   -0.0004188   -6.4100066  
N   -1.5029814   -0.0014076   -5.0546493  
C   -2.1980212    0.0002560   -7.4686534  
C   -1.6841009   -0.0005557   -8.7508631  
O   -2.5311380    0.0004005   -9.8211629  
C   -0.2858204   -0.0026831   -8.9690929  
O    0.0686625   -0.0036788  -10.3023925  
C    0.6157252   -0.0036228   -7.9251871  
H    1.7764813   -0.0040306   -5.0863877  
H   -2.4039877    0.0099828   -4.6118854  
H   -1.9739388   -0.0007062  -10.6103355  
H    1.0289085   -0.0050800  -10.3618040  
H    1.6811962   -0.0054371   -8.1232953  
C    3.1301143   -0.0010313   -1.7028257  
C    2.5367765   -0.0002767   -0.4864669  
C    1.1089900    0.0001027   -0.7656184  
C    1.0177864   -0.0004150   -2.2415133  
N    2.1993571   -0.0011613   -2.7963824  
C   -0.2459220   -0.0002879   -2.9257116  
C   -1.3675327   -0.0000606   -2.1698519  
O   -2.6129319    0.0000866   -2.6748482  
C   -1.3083588    0.0000910   -0.6783229  
O   -2.3693264    0.0004206   -0.0541685  
C    0.0000000    0.0000000    0.0000000  
H    3.0096014   -0.0001008    0.4807517  
H   -3.1967445    0.0002093   -1.8949025  
H    4.1849272   -0.0015113   -1.9271980  
C    2.5311839    2.1237619    3.0120429  
C    1.9795631    1.6616747    1.8395852  
C    0.9223175    0.7739173    2.1983588  
C    0.8753926    0.7337535    3.6154372  
N    1.8668922    1.5631002    4.0777464  
C   -0.0496243   -0.0427881    4.3197917  
C   -0.9437528   -0.7922060    3.5801400  
O   -1.8685244   -1.5680278    4.2172520  
C   -0.9124520   -0.7656372    2.1655264  
O   -1.8671164   -1.5663939    1.5732860  
C    0.0000000    0.0000000    1.4700000  
H    2.3005065    1.9304404    0.8477417  
H    2.0679347    1.7444845    5.0445261  
H   -0.0904770   -0.0778569    5.3997470  
H   -2.3849669   -2.0011402    3.5251786  
H   -1.7775064   -1.4909735    0.6183591  
H    3.3468514    2.8078103    3.1724291  
