64

C   -4.5189775    2.1246694   -0.2045469  
C   -3.4217425    1.6624058   -0.8936442  
C   -3.9056800    0.7751177   -1.9001854  
C   -5.3180923    0.7354090   -1.7759236  
N   -5.6571955    1.5645633   -0.7356687  
C   -6.1291076   -0.0406008   -2.6095007  
C   -5.5029174   -0.7899449   -3.5865099  
O   -6.2471510   -1.5652559   -4.4279511  
C   -4.0948410   -0.7638251   -3.7259887  
O   -3.6223028   -1.5644416   -4.7453337  
C   -3.2941075    0.0012873   -2.9038235  
H   -2.3983457    1.9307552   -0.6945477  
H   -6.5926190    1.7461788   -0.4194748  
H   -7.2061218   -0.0753210   -2.5198566  
H   -5.6225447   -1.9984079   -5.0241983  
H   -2.6635122   -1.4893478   -4.7714900  
H   -4.5796114    2.8084909    0.6247125  
C    0.0000000    0.0000000    0.0000000  
C    1.0541688   -0.0001722   -0.8560392  
C    0.5103135   -0.0000454   -2.1935954  
C   -0.9576375    0.0002459   -2.0455728  
N   -1.2018462   -0.0001392   -0.6915966  
C   -1.8348315    0.0008316   -3.0810604  
C   -1.2972851    0.0009737   -4.4314603  
O   -2.0050681    0.0014265   -5.4301316  
C    0.2542617    0.0004185   -4.6117570  
O    0.7184664    0.0002257   -5.7439119  
C    1.0974549    0.0000874   -3.4189129  
H    2.0940751   -0.0005482   -0.5817983  
H   -2.1128195    0.0014911   -0.2706785  
C    4.3304646   -2.1219089   -1.2732989  
C    5.3835927   -1.6226244   -2.0041232  
C    4.8312730   -0.7479127   -2.9861734  
C    3.4245689   -0.7532348   -2.8042910  
N    3.1541554   -1.5992005   -1.7574694  
C    2.5562209   -0.0001551   -3.6003007  
C    3.1181940    0.7726055   -4.5979003  
O    2.3162976    1.5276815   -5.4040250  
C    4.5194615    0.7908606   -4.7952161  
O    4.9245909    1.6096321   -5.8290571  
C    5.3766891    0.0479714   -4.0104850  
H    6.4220542   -1.8605489   -1.8492591  
H    2.2402064   -1.7958553   -1.3914017  
H    2.9020995    1.9822982   -6.0232382  
H    5.8833591    1.5645647   -5.8949091  
H    6.4456639    0.0820134   -4.1854490  
H    4.3252214   -2.8106332   -0.4458991  
C    3.3041272   -0.0001177    3.0120429  
C    2.5845372    0.0004780    1.8395852  
C    1.2040006    0.0000008    2.1983588  
C    1.1422373   -0.0006037    3.6154372  
N    2.4348639   -0.0026109    4.0777464  
C   -0.0655181   -0.0008797    4.3197917  
C   -1.2321768   -0.0002324    3.5801400  
O   -2.4392816   -0.0001146    4.2172520  
C   -1.1911209    0.0000007    2.1655264  
O   -2.4371527    0.0002320    1.5732860  
C    0.0000000    0.0000000    1.4700000  
H    3.0031534    0.0000661    0.8477417  
H    2.7054629    0.0071099    5.0445261  
H   -0.1193549   -0.0014844    5.3997470  
H   -3.1132988    0.0000648    3.5251786  
H   -2.3200282    0.0004071    0.6183591  
H    4.3686625   -0.0004071    3.1724291  
