62

C    8.7184388   -0.0009991   -0.3845226  
C    8.1180696   -0.0002780    0.8532268  
C    9.1638594   -0.0000798    1.8232394  
C   10.3911418   -0.0004205    1.1121113  
N   10.0845357   -0.0029270   -0.2260226  
C   11.6350648   -0.0000406    1.7504271  
C   11.6401443    0.0010037    3.1317857  
O   12.8270571    0.0017659    3.8057654  
C   10.4260903    0.0009827    3.8590332  
O   10.5981244    0.0016708    5.2278819  
C    9.1985648    0.0003349    3.2299803  
H    7.0569036   -0.0010421    1.0346625  
H   10.7534029    0.0068342   -0.9746906  
H   12.5740212   -0.0004412    1.2141781  
H   12.6069142    0.0021306    4.7464041  
H    9.7304317    0.0016345    5.6434714  
H    8.2854194    0.0001541    3.8136263  
C    4.5679461   -0.0016854   -2.0086701  
C    5.6049853   -0.0016931   -1.1391129  
C    6.7955420   -0.0024716   -1.9752194  
C    6.2781462   -0.0029781   -3.3604576  
N    4.9730339   -0.0024398   -3.3863778  
C    7.1539718   -0.0037578   -4.4997622  
C    8.4861199   -0.0036307   -4.2658482  
O    9.4181587   -0.0043052   -5.2340138  
C    9.0391358   -0.0027522   -2.8793659  
O   10.2622858   -0.0028087   -2.7410729  
C    8.1201341   -0.0020061   -1.7272553  
H    5.5667631   -0.0011377   -0.0631881  
H    6.7483985   -0.0043217   -5.5009716  
H   10.2688728   -0.0039787   -4.7592102  
C    3.1301149   -0.0010311   -1.7028252  
C    2.5367768   -0.0002767   -0.4864665  
C    1.1089904    0.0001028   -0.7656183  
C    1.0177872   -0.0004148   -2.2415132  
N    2.1993578   -0.0011611   -2.7963820  
C   -0.2459209   -0.0002877   -2.9257118  
C   -1.3675319   -0.0000605   -2.1698524  
O   -2.6129313    0.0000867   -2.6748490  
C   -1.3083584    0.0000910   -0.6783232  
O   -2.3693261    0.0004206   -0.0541692  
C    0.0000000    0.0000000    0.0000000  
H    3.0096017   -0.0001007    0.4807525  
H   -0.2829630   -0.0004687   -4.0053125  
H   -3.1967441    0.0002094   -1.8949034  
C    2.5311839    2.1237619    3.0120429  
C    1.9795631    1.6616747    1.8395852  
C    0.9223175    0.7739173    2.1983588  
C    0.8753926    0.7337535    3.6154372  
N    1.8668922    1.5631002    4.0777464  
C   -0.0496243   -0.0427881    4.3197917  
C   -0.9437528   -0.7922060    3.5801400  
O   -1.8685244   -1.5680278    4.2172520  
C   -0.9124520   -0.7656372    2.1655264  
O   -1.8671164   -1.5663939    1.5732860  
C    0.0000000    0.0000000    1.4700000  
H    2.3005065    1.9304404    0.8477417  
H    2.0679347    1.7444845    5.0445261  
H   -0.0904770   -0.0778569    5.3997470  
H   -2.3849669   -2.0011402    3.5251786  
H   -1.7775064   -1.4909735    0.6183591  
H    3.3468514    2.8078103    3.1724291  
