62

C   -3.8366290    2.1201965    1.7631685  
C   -4.4482709    1.6585778    0.6206850  
C   -5.4861930    0.7714750    1.0334408  
C   -5.4600164    0.7312096    2.4510514  
N   -4.4454555    1.5598678    2.8616731  
C   -6.3479933   -0.0447957    3.2021170  
C   -7.2795608   -0.7935625    2.5095068  
O   -8.1707595   -1.5688420    3.1934066  
C   -7.3212221   -0.7668822    1.0951622  
O   -8.3056767   -1.5669619    0.5528851  
C   -6.4453444   -0.0017740    0.3535602  
H   -4.1787187    1.9272270   -0.3863711  
H   -4.1947143    1.7410307    3.8168113  
H   -6.3331320   -0.0799388    4.2827403  
H   -8.7224829   -2.0015535    2.5288566  
H   -8.2653732   -1.4915108   -0.4053874  
H   -3.0133293    2.8036987    1.8813265  
C   -3.3460096   -0.0004265   -2.7913646  
C   -4.0050883   -0.0007136   -1.6040609  
C   -5.4169930   -0.0010574   -1.9063180  
C   -5.5272434   -0.0009755   -3.3775878  
N   -4.2366049   -0.0001893   -3.8541817  
C   -6.6998413   -0.0016249   -4.0607553  
C   -7.9358013   -0.0022343   -3.2959434  
O   -9.0426027   -0.0027802   -3.8187159  
C   -7.8427528   -0.0020796   -1.7367297  
O   -8.8766027   -0.0022816   -1.0821960  
C   -6.5211391   -0.0016368   -1.1144846  
H   -3.5536952   -0.0005051   -0.6279167  
H   -6.7586581   -0.0016816   -5.1403161  
H   -3.9810064   -0.0015040   -4.8246018  
C    0.0000000    0.0000000    0.0000000  
C    1.0662919   -0.0000103   -0.8334269  
C    0.4961869    0.0000064   -2.1718889  
C   -0.9663859   -0.0000850   -1.9540246  
N   -1.2632774   -0.0000084   -0.6828657  
C   -1.8985363   -0.0000518   -3.0477257  
C   -1.3925778    0.0004564   -4.3020545  
O   -2.1456384    0.0005409   -5.4151311  
C    0.0786230    0.0009323   -4.5544998  
O    0.4683758    0.0012588   -5.7221098  
C    1.0143164    0.0008442   -3.4159030  
H    2.1107195    0.0000633   -0.5721867  
H   -1.5042275    0.0009691   -6.1484418  
H    2.0724152    0.0013148   -3.6409744  
C    3.3041272   -0.0001177    3.0120429  
C    2.5845372    0.0004780    1.8395852  
C    1.2040006    0.0000008    2.1983588  
C    1.1422373   -0.0006037    3.6154372  
N    2.4348639   -0.0026109    4.0777464  
C   -0.0655181   -0.0008797    4.3197917  
C   -1.2321768   -0.0002324    3.5801400  
O   -2.4392816   -0.0001146    4.2172520  
C   -1.1911209    0.0000007    2.1655264  
O   -2.4371527    0.0002320    1.5732860  
C    0.0000000    0.0000000    1.4700000  
H    3.0031534    0.0000661    0.8477417  
H    2.7054629    0.0071099    5.0445261  
H   -0.1193549   -0.0014844    5.3997470  
H   -3.1132988    0.0000648    3.5251786  
H   -2.3200282    0.0004071    0.6183591  
H    4.3686625   -0.0004071    3.1724291  
