60

C    1.3070836   -1.1463650   -9.4813161  
C    1.7089420   -0.7440080  -10.7339479  
C    1.4637756    0.6585618  -10.8193372  
C    0.9072288    1.0601305   -9.5779972  
N    0.8239920   -0.0604686   -8.7893617  
C    0.5409661    2.3816503   -9.3055516  
C    0.7404446    3.3148431  -10.3043205  
O    0.4007524    4.6195464  -10.0913165  
C    1.2941140    2.9335400  -11.5496614  
O    1.4298166    3.9779729  -12.4407781  
C    1.6554210    1.6299614  -11.8192267  
H    2.1263070   -1.3830280  -11.4931929  
H    0.1161745    2.6941093   -8.3615587  
H    0.6188153    5.0946010  -10.9037429  
H    1.8103949    3.6353581  -13.2552589  
H    2.0770269    1.3677931  -12.7825517  
H    1.3255075   -2.1222846   -9.0272235  
C    1.9957414   -2.1407950   -5.0258942  
C    1.9855628   -1.7332340   -6.3163859  
C    0.8551751   -0.8225482   -6.4132068  
C    0.2799738   -0.7963197   -5.0512087  
N    0.9444052   -1.5670716   -4.2336130  
C   -0.8712826    0.0001710   -4.7267111  
C   -1.4226083    0.7372644   -5.7177045  
O   -2.4987599    1.5259552   -5.5567518  
C   -0.8649829    0.7322382   -7.1023305  
O   -1.4179254    1.4273749   -7.9545398  
C    0.3165529   -0.0930927   -7.4101075  
H    2.6616911   -2.0156333   -7.1051684  
H   -2.6523123    1.9181962   -6.4352288  
H    2.6823202   -2.8229904   -4.5502975  
C    1.0965514    0.0001359   -0.8010305  
C    0.0000000    0.0000000    0.0000000  
C   -1.1546563    0.0001470   -0.8669513  
C   -0.6372014    0.0003519   -2.2486282  
N    0.7342871    0.0007337   -2.1395014  
C   -1.4147739    0.0001352   -3.3608717  
C   -2.8576049   -0.0001048   -3.1854462  
O   -3.6427779   -0.0002494   -4.1244907  
C   -3.4275840   -0.0000725   -1.7311666  
O   -4.6406831    0.0000333   -1.5710060  
C   -2.4891867   -0.0001091   -0.6116744  
H   -2.8919122   -0.0002918    0.3920866  
H    2.1388272    0.0000663   -0.5261648  
H    1.3735872   -0.0006099   -2.9130262  
C    2.4951002    2.0940188    2.9809380  
C    1.9440701    1.6314916    1.8291961  
C    0.8759964    0.7350050    2.2038498  
C    0.8497377    0.7130254    3.6788474  
N    1.8560616    1.5571714    4.0882609  
C   -0.0205033   -0.0168748    4.4215661  
C   -0.9962600   -0.8356168    3.7214979  
O   -1.8224391   -1.5286685    4.3006425  
C   -0.9864710   -0.8277881    2.1595606  
O   -1.8030528   -1.5133726    1.5592035  
C    0.0000000    0.0000000    1.4700000  
H    2.2509283    1.8888011    0.8310761  
H   -0.0229599   -0.0187323    5.5027230  
H    3.3143982    2.7817323    3.1139444  
H    2.0889452    1.7545833    5.0442112  
