60

C   10.0014771   -0.7090246   -1.4575761  
C   11.2782526   -0.4587086   -1.9044064  
C   11.1658656    0.4492209   -2.9987705  
C    9.7846789    0.7198103   -3.1749235  
N    9.1056899   -0.0009146   -2.2240571  
C    9.3028281    1.5784378   -4.1675804  
C   10.2322295    2.1750069   -4.9973365  
O    9.8163408    3.0224783   -5.9831563  
C   11.6145702    1.9172756   -4.8375653  
O   12.4129542    2.5865973   -5.7419645  
C   12.0906221    1.0701200   -3.8586742  
H   12.1796442   -0.8796779   -1.4929820  
H    8.2513921    1.7887057   -4.3071207  
H   10.6133179    3.3234439   -6.4386919  
H   13.3305491    2.3576268   -5.5653469  
H   13.1550877    0.8918843   -3.7605726  
H    9.6588250   -1.3377611   -0.6536867  
C    6.5597224   -0.0008209    1.3835014  
C    7.6114515   -0.0009111    0.5244666  
C    7.0637929   -0.0009868   -0.8115369  
C    5.5962696   -0.0009036   -0.6593385  
N    5.3559136   -0.0012035    0.6953269  
C    4.7161325   -0.0005435   -1.6923264  
C    5.2498343   -0.0004421   -3.0442497  
O    4.5392134   -0.0001859   -4.0409037  
C    6.8008623   -0.0007795   -3.2289604  
O    7.2618442   -0.0010042   -4.3624314  
C    7.6474458   -0.0008759   -2.0385198  
H    8.6521340   -0.0011057    0.7957479  
H    6.5627892   -0.0007236    2.4614074  
H    4.4461412    0.0003273    1.1188351  
C    3.2573665   -0.0002920   -1.5109385  
C    2.5379463   -0.0001709   -0.3591964  
C    1.1435038    0.0000331   -0.7338500  
C    1.1092599   -0.0000083   -2.2088477  
N    2.4227553    0.0001909   -2.6182613  
C   -0.0265539   -0.0002524   -2.9515660  
C   -1.3003040   -0.0002640   -2.2514977  
O   -2.3786790   -0.0004133   -2.8306421  
C   -1.2877727    0.0000311   -0.6895603  
O   -2.3539959    0.0003306   -0.0892030  
C    0.0000000    0.0000000    0.0000000  
H    2.9384091   -0.0000367    0.6389234  
H   -0.0296303   -0.0004086   -4.0327229  
H    2.7280482   -0.0013407   -3.5742119  
C    2.3971438    2.0127888    3.1728260  
C    1.9431056    1.6308205    1.9564670  
C    0.8496017    0.7127664    2.2356185  
C    0.7794028    0.6545384    3.7115134  
N    1.6840587    1.4146091    4.2663826  
C   -0.1885723   -0.1578550    4.3957118  
C   -1.0476298   -0.8789867    3.6398520  
O   -2.0015663   -1.6796266    4.1448486  
C   -1.0022026   -0.8410666    2.1483229  
O   -1.8147390   -1.5232959    1.5241687  
C    0.0000000    0.0000000    1.4700000  
H    2.3054237    1.9346118    0.9892483  
H   -0.2170646   -0.1815267    5.4753125  
H   -2.4487139   -2.0549881    3.3649027  
H    3.2048689    2.6911772    3.3971983  
