62

C    8.2821317   -0.0035479   -2.2216869  
C    8.5346631   -0.0034775   -3.5739794  
C    9.9521849   -0.0044808   -3.7328237  
C   10.5168074   -0.0054243   -2.4316215  
N    9.4751158   -0.0028751   -1.5374803  
C   11.8966104   -0.0068565   -2.2059445  
C   12.7214570   -0.0076520   -3.3140092  
O   14.0765968   -0.0094064   -3.1508915  
C   12.1770536   -0.0063563   -4.6203166  
O   13.1287542   -0.0069550   -5.6191193  
C   10.8159427   -0.0046700   -4.8437006  
H    7.7889297   -0.0016826   -4.3504268  
H    9.5682700   -0.0134026   -0.5378844  
H   12.3332290   -0.0074371   -1.2167192  
H   14.4584255   -0.0093915   -4.0382874  
H   12.6777660   -0.0060266   -6.4689504  
H   10.4282475   -0.0035237   -5.8557130  
C    5.7656457   -0.0007214   -2.0564738  
C    7.0030818   -0.0022250   -1.4971666  
C    6.8178420   -0.0019791   -0.0652022  
C    5.3606050   -0.0002254    0.1655476  
N    4.7795901    0.0008674   -1.0815733  
C    4.7760820    0.0001002    1.3903079  
C    5.6398491   -0.0011492    2.5592564  
O    5.2097730   -0.0009118    3.7052649  
C    7.1861464   -0.0027620    2.3384241  
O    7.9234036   -0.0035160    3.3150064  
C    7.6977097   -0.0032523    0.9701572  
H    3.7050038    0.0012662    1.5376176  
H    8.7695754   -0.0045760    0.8258449  
H    5.4911001   -0.0004232   -3.0988333  
C    3.3321168    0.0004716   -1.3379341  
C    2.6974177    0.0000118   -2.5332316  
C    1.2800432   -0.0002116   -2.2052842  
C    1.2395033    0.0000644   -0.7271298  
N    2.4394059    0.0005460   -0.2131041  
C    0.0000000    0.0000000    0.0000000  
C   -1.1468704    0.0000635   -0.7169542  
O   -2.3742206    0.0000074   -0.1695488  
C   -1.1388774    0.0001608   -2.2096352  
O   -2.2206238    0.0000906   -2.7970409  
C    0.1454514    0.0001818   -2.9324241  
H    3.1367978   -0.0000649   -3.5160956  
H   -2.9844350    0.0001027   -0.9290164  
H    0.1083567    0.0003684   -4.0135594  
C    2.5285572    2.1210227    2.9438989  
C    1.9331703    1.6216660    4.0790748  
C    0.8903039    0.7472258    3.6520102  
C    0.8972198    0.7527806    2.2336141  
N    1.9028376    1.5986179    1.8362361  
C    0.0000000    0.0000000    1.4700000  
C   -0.9207814   -0.7726952    2.1506477  
O   -1.8198395   -1.5274828    1.4542253  
C   -0.9436862   -0.7911793    3.5655508  
O   -1.9197945   -1.6098497    4.0950179  
C   -0.0590329   -0.0485852    4.3195194  
H    2.2150357    1.8593692    5.0905303  
H    2.1533708    1.7953814    0.8841339  
H   -2.3621246   -1.9821033    2.1118817  
H   -1.8668290   -1.5649508    5.0545920  
H   -0.1007624   -0.0827977    5.4019087  
H    3.3491200    2.8096064    2.8367138  
