62

C    3.1174612   -3.2371306   -7.8827100  
C    2.6170209   -1.9850034   -7.6103051  
C    3.0922293   -1.1145871   -8.6355613  
C    3.8842672   -1.8985464   -9.5130637  
N    3.8801908   -3.1819516   -9.0257539  
C    4.5145799   -1.3664813  -10.6419580  
C    4.3419452   -0.0185195  -10.8896967  
O    4.9348370    0.5524563  -11.9784944  
C    3.5557271    0.7802832  -10.0256419  
O    3.4804374    2.1038898  -10.4074011  
C    2.9338374    0.2561149   -8.9116280  
H    4.3494541   -3.9637636   -9.4459233  
H    5.1196685   -1.9586081  -11.3146050  
H    4.6896937    1.4867838  -11.9643013  
H    2.9317144    2.5730982   -9.7715155  
H    2.3379853    0.8927433   -8.2680892  
H    2.9918490   -4.1649096   -7.3512909  
C    1.8844580   -2.1024763   -5.2000028  
C    1.7579316   -1.6369210   -6.4693819  
C    0.6249275   -0.7419054   -6.4785611  
C    0.0979868   -0.7240442   -5.1005903  
N    0.9053926   -1.5695642   -4.3752752  
C   -0.9736297    0.0040464   -4.6965763  
C   -1.6535189    0.8247015   -5.6849139  
O   -2.6280811    1.5162662   -5.4198316  
C   -1.1127789    0.8208472   -7.1503119  
O   -1.6771970    1.5075996   -7.9911821  
C    0.0504535   -0.0048498   -7.4649010  
H    0.4187481   -0.0017852   -8.4817951  
H    2.6104397   -2.7902094   -4.7976810  
H    0.8008847   -1.7673170   -3.3970019  
C    1.1188642    0.0008222   -0.8003808  
C    0.0000000    0.0000000    0.0000000  
C   -1.1323862    0.0008899   -0.8673528  
C   -0.6382663    0.0019679   -2.1969280  
N    0.7324016    0.0038481   -2.1202242  
C   -1.4770914    0.0027318   -3.3154808  
C   -2.8395473    0.0020945   -3.0876857  
O   -3.7039201    0.0024425   -4.1440349  
C   -3.3517868    0.0013931   -1.7684331  
O   -4.7300497    0.0012366   -1.7073121  
C   -2.5248543    0.0009123   -0.6644817  
H    1.3576314   -0.0056167   -2.9057046  
H   -4.5940032    0.0021826   -3.7685128  
H   -4.9934602    0.0007259   -0.7819913  
H   -2.9462577    0.0005603    0.3339659  
H    2.1619895    0.0009355   -0.5342068  
C    0.0000000    0.0000000    1.4700000  
C    1.0541688    0.0001722    2.3260392  
C    0.5103138    0.0000454    3.6635956  
C   -0.9576371   -0.0002459    3.5155732  
N   -1.2018458    0.0001392    2.1615969  
C   -1.8348311   -0.0008317    4.5510609  
C   -1.2972847   -0.0009736    5.9014604  
O   -2.0050672   -0.0014265    6.9001319  
C    0.2542623   -0.0004184    6.0817573  
O    0.7184670   -0.0002256    7.2139121  
C    1.0974552   -0.0000873    4.8889129  
H    2.0940752    0.0005483    2.0517982  
H   -2.9081052   -0.0011668    4.4207061  
H    2.1707277    0.0000911    5.0223670  
H   -2.1128194   -0.0014912    1.7406791  
