64

C    6.4533193   -3.0008595   -5.3010196  
C    5.8586843   -1.7794896   -5.0839173  
C    6.5266066   -0.8366726   -5.9203238  
C    7.5279066   -1.5467987   -6.6309901  
N    7.4573696   -2.8578082   -6.2298717  
C    8.3827821   -0.9317137   -7.5505807  
C    8.2237574    0.4248960   -7.7567347  
O    9.0315730    1.0754840   -8.6439679  
C    7.2306934    1.1507983   -7.0569453  
O    7.1981972    2.4935985   -7.3718660  
C    6.3871654    0.5447052   -6.1494002  
H    8.0389606   -3.6013873   -6.5716684  
H    9.1480197   -1.4673083   -8.0953293  
H    8.7563302    2.0014623   -8.6356237  
H    6.5006895    2.9100775   -6.8564702  
H    5.6360417    1.1267194   -5.6282947  
H    6.2416184   -3.9624540   -4.8657286  
C    4.6027286   -2.0944966   -2.9150972  
C    3.4411565   -1.6373420   -2.3369735  
C    2.8377887   -0.7405118   -3.2676952  
C    3.6836209   -0.6899842   -4.4052107  
N    4.7469283   -1.5221607   -4.1572674  
C    3.3988815    0.0972714   -5.5250055  
C    2.2389987    0.8469468   -5.4960815  
O    1.9125740    1.6330029   -6.5631224  
C    1.3824833    0.8101281   -4.3700960  
O    0.2670644    1.6125635   -4.4937161  
C    1.6628945    0.0339172   -3.2649299  
H    3.0744459   -1.9151388   -1.3636571  
H    4.0395083    0.1402698   -6.3950343  
H    1.0776868    2.0643813   -6.3392002  
H   -0.2575672    1.5298016   -3.6915218  
H    5.3404960   -2.7824367   -2.5390700  
C    1.1243410    0.0100105   -0.7919003  
C    0.7474072    0.0234665   -2.1148542  
C   -0.6787384    0.0234379   -2.1414698  
C   -1.1201748    0.0098411   -0.7935547  
N    0.0000000    0.0000000    0.0000000  
C   -2.4730818    0.0063307   -0.4408240  
C   -3.3971962    0.0170429   -1.4675058  
O   -4.7313520    0.0145490   -1.1793468  
C   -2.9763654    0.0303020   -2.8186325  
O   -4.0166484    0.0394464   -3.7247625  
C   -1.6418567    0.0334992   -3.1673480  
H   -2.8160166   -0.0041569    0.5845966  
H   -5.1938823    0.0230023   -2.0274386  
H   -3.6464680    0.0481700   -4.6127343  
H   -1.3497475    0.0435647   -4.2109234  
H    2.1062466    0.0053162   -0.3505405  
C    0.0000000    0.0000000    1.4700000  
C    1.0662921    0.0000102    2.3034270  
C    0.4961870   -0.0000064    3.6418889  
C   -0.9663858    0.0000850    3.4240247  
N   -1.2632773    0.0000084    2.1528658  
C   -1.8985362    0.0000517    4.5177257  
C   -1.3925775   -0.0004564    5.7720543  
O   -2.1456383   -0.0005410    6.8851312  
C    0.0786232   -0.0009323    6.0245000  
O    0.4683759   -0.0012588    7.1921102  
C    1.0143166   -0.0008442    4.8859032  
H    2.1107198   -0.0000632    2.0421868  
H   -2.9622183    0.0003270    4.3293377  
H   -1.5042274   -0.0009692    7.6184419  
H    2.0724152   -0.0013148    5.1109744  
