62

C    8.0833506   -0.7162232    1.3132386  
C    8.7119462   -0.4679226    2.5114382  
C    9.7779215    0.4407392    2.2419367  
C    9.7502360    0.7138316    0.8503259  
N    8.7105012   -0.0061705    0.3163157  
C   10.6616034    1.5737882    0.2301057  
C   11.6181585    2.1691367    1.0293172  
O   12.5324076    3.0178188    0.4753293  
C   11.6622159    1.9089085    2.4196976  
O   12.6734446    2.5772760    3.0785177  
C   10.7636158    1.0604407    3.0321897  
H    8.4367917   -0.8906707    3.4625254  
H   10.6459112    1.7859640   -0.8300530  
H   13.0994736    3.3176126    1.1977039  
H   12.6329003    2.3466132    4.0116605  
H   10.8221996    0.8802947    4.0992390  
H    7.2381546   -1.3447536    1.0906347  
C    4.7161325   -0.0005435   -1.6923264  
C    5.7254235   -0.0020770   -0.7575556  
C    6.9579233   -0.0022047   -1.4755696  
C    6.6349842   -0.0004112   -2.8567408  
N    5.2655550   -0.0013886   -2.9530733  
C    7.6078547    0.0002826   -3.8608869  
C    8.9308324   -0.0005479   -3.4635103  
O    9.9212226    0.0004256   -4.4027325  
C    9.2730455   -0.0027122   -2.0903013  
O   10.6326707   -0.0037232   -1.8562870  
C    8.3138093   -0.0036710   -1.0991449  
H    5.5899958   -0.0040966    0.3104558  
H    4.7441078    0.0100272   -3.8109451  
H    7.3682591    0.0015041   -4.9153037  
H   10.7569961   -0.0006985   -3.9182258  
H   10.7775870   -0.0051496   -0.9051819  
C    3.2573665   -0.0002920   -1.5109385  
C    2.5379463   -0.0001709   -0.3591964  
C    1.1435038    0.0000331   -0.7338500  
C    1.1092599   -0.0000083   -2.2088477  
N    2.4227553    0.0001909   -2.6182613  
C   -0.0265539   -0.0002524   -2.9515660  
C   -1.3003040   -0.0002640   -2.2514977  
O   -2.3786790   -0.0004133   -2.8306421  
C   -1.2877727    0.0000311   -0.6895603  
O   -2.3539959    0.0003306   -0.0892030  
C    0.0000000    0.0000000    0.0000000  
H    2.9384091   -0.0000367    0.6389234  
H   -0.0296303   -0.0004086   -4.0327229  
H    2.7280482   -0.0013407   -3.5742119  
C    0.8681109    0.7263879    2.2709268  
C    0.6127770    0.5096195    3.5869401  
C   -0.4920590   -0.4175482    3.6542670  
C   -0.8620974   -0.7254003    2.2596025  
N    0.0000000    0.0000000    1.4700000  
C   -1.8641242   -1.5660088    1.8976294  
C   -2.6293522   -2.2103885    2.9520183  
O   -3.5512764   -2.9839180    2.7283916  
C   -2.2549728   -1.8987399    4.4361073  
O   -2.8923672   -2.4351063    5.3323774  
C   -1.1543735   -0.9755647    4.7012123  
H    1.1382914    0.9492124    4.4159191  
H   -2.1192137   -1.7782617    0.8686553  
H   -0.9013378   -0.7652422    5.7314848  
H    1.6172880    1.3558399    1.8188057  
