62

C    3.3259257   -3.0728570   -5.6008252  
C    4.1049558   -3.7510781   -6.5094473  
C    5.0459161   -4.5181030   -5.7605379  
C    4.7904426   -4.2657095   -4.3883295  
N    3.7412217   -3.3825481   -4.3268666  
C    5.5305060   -4.8570616   -3.3600303  
C    6.5467873   -5.7191380   -3.7235845  
O    7.3004182   -6.3241346   -2.7597204  
C    6.8172293   -5.9833540   -5.0873542  
O    7.8608989   -6.8633280   -5.2867133  
C    6.0877200   -5.4001158   -6.1023305  
H    4.0077802   -3.6984970   -7.5803283  
H    3.3300509   -3.0276776   -3.4824810  
H    5.3408861   -4.6687222   -2.3122825  
H    7.9439857   -6.8761312   -3.2227388  
H    7.9775853   -6.9872515   -6.2336192  
H    6.3181895   -5.6215483   -7.1378640  
C    2.2088371   -2.1426203   -5.8191641  
C    1.6816905   -1.7351237   -6.9971466  
C    0.6077895   -0.8240074   -6.6323121  
C    0.6276204   -0.7974852   -5.1539729  
N    1.5640842   -1.5684497   -4.6716465  
C   -0.2963293   -0.0005341   -4.3948471  
C   -1.1988050    0.7367192   -5.0813820  
O   -2.1196091    1.5258333   -4.5021932  
C   -1.2438091    0.7314050   -6.5733964  
O   -2.0920757    1.4267093   -7.1321594  
C   -0.2854243   -0.0943970   -7.3293552  
H    1.9842845   -2.0178252   -7.9909238  
H   -2.6127110    1.9180870   -5.2452546  
H   -0.3507734   -0.0705869   -8.4088885  
C    3.1301146   -0.0010313   -1.7028256  
C    2.5367765   -0.0002766   -0.4864669  
C    1.1089901    0.0001027   -0.7656184  
C    1.0177865   -0.0004150   -2.2415133  
N    2.1993571   -0.0011612   -2.7963824  
C   -0.2459219   -0.0002879   -2.9257116  
C   -1.3675326   -0.0000606   -2.1698520  
O   -2.6129318    0.0000865   -2.6748483  
C   -1.3083588    0.0000910   -0.6783229  
O   -2.3693264    0.0004206   -0.0541685  
C    0.0000000    0.0000000    0.0000000  
H    3.0096016   -0.0001007    0.4807518  
H   -3.1967444    0.0002093   -1.8949026  
H    4.1849275   -0.0015114   -1.9271979  
C    2.5311839    2.1237619    3.0120429  
C    1.9795631    1.6616747    1.8395852  
C    0.9223175    0.7739173    2.1983588  
C    0.8753926    0.7337535    3.6154372  
N    1.8668922    1.5631002    4.0777464  
C   -0.0496243   -0.0427881    4.3197917  
C   -0.9437528   -0.7922060    3.5801400  
O   -1.8685244   -1.5680278    4.2172520  
C   -0.9124520   -0.7656372    2.1655264  
O   -1.8671164   -1.5663939    1.5732860  
C    0.0000000    0.0000000    1.4700000  
H    2.3005065    1.9304404    0.8477417  
H    2.0679347    1.7444845    5.0445261  
H   -0.0904770   -0.0778569    5.3997470  
H   -2.3849669   -2.0011402    3.5251786  
H   -1.7775064   -1.4909735    0.6183591  
H    3.3468514    2.8078103    3.1724291  
