60

C    9.8589885    0.7108131   -0.9441873  
C   11.2062574    0.4604504   -1.0652303  
C   11.5561217   -0.4484594   -0.0230796  
C   10.3711966   -0.7195707    0.7079319  
N    9.3599991    0.0017983    0.1233597  
C   10.3425976   -1.5791887    1.8102150  
C   11.5317776   -2.1762297    2.1811202  
O   11.5604194   -3.0246680    3.2499254  
C   12.7245220   -1.9179904    1.4645371  
O   13.8252392   -2.5878841    1.9574970  
C   12.7535289   -1.0698580    0.3771755  
H   11.8570632    0.8820175   -1.8120412  
H    9.4428167   -1.7898587    2.3716541  
H   12.4743809   -3.3258161    3.3350660  
H   14.5878248   -2.3585150    1.4176296  
H   13.6822970   -0.8912526   -0.1519436  
H    9.2147920    1.3401559   -1.5340158  
C    5.6938820    0.0016101   -2.2318647  
C    4.7390840    0.0009613   -1.2727298  
C    5.4706527    0.0008610   -0.0152296  
C    6.8949560    0.0014077   -0.4126515  
N    7.0320415    0.0019290   -1.7108028  
C    7.9554493    0.0015310    0.5571111  
C    7.6088229    0.0015156    1.8644688  
O    8.4940071    0.0016138    2.8756501  
C    6.1802431    0.0013411    2.2972750  
O    5.9381808    0.0012125    3.5041826  
C    5.1106706    0.0011730    1.2834017  
H    7.9484094    0.0015982    3.6827902  
H    4.0886168    0.0011646    1.6378545  
H    5.5602487    0.0018873   -3.3019653  
C    3.2798077    0.0005856   -1.4499661  
C    2.5571132    0.0005565   -2.5996564  
C    1.1637425    0.0001547   -2.2210366  
C    1.1336959   -0.0000200   -0.7459475  
N    2.4483509   -0.0001429   -0.3402730  
C    0.0000000    0.0000000    0.0000000  
C   -1.2757370   -0.0000187   -0.6964411  
O   -2.3524597   -0.0000640   -0.1142306  
C   -1.2676502   -0.0000874   -2.2584078  
O   -2.3355774   -0.0004102   -2.8557287  
C    0.0181551    0.0001758   -2.9516297  
H    2.9547342    0.0006074   -3.5989118  
H    0.0150776    0.0003317   -4.0331632  
H    2.7563626    0.0012823    0.6148051  
C    0.0000000    0.0000000    1.4700000  
C    1.0662921    0.0000102    2.3034270  
C    0.4961870   -0.0000064    3.6418889  
C   -0.9663858    0.0000850    3.4240247  
N   -1.2632773    0.0000084    2.1528658  
C   -1.8985362    0.0000517    4.5177257  
C   -1.3925775   -0.0004564    5.7720543  
O   -2.1456383   -0.0005410    6.8851312  
C    0.0786232   -0.0009323    6.0245000  
O    0.4683759   -0.0012588    7.1921102  
C    1.0143166   -0.0008442    4.8859032  
H    2.1107198   -0.0000632    2.0421868  
H   -2.9622183    0.0003270    4.3293377  
H   -1.5042274   -0.0009692    7.6184419  
H    2.0724152   -0.0013148    5.1109744  
