62

C    4.0834644    0.0818328   -8.1639979  
C    5.1026441   -0.5671987   -8.8216450  
C    5.0371954   -0.1668371  -10.1891330  
C    3.9489480    0.7352329  -10.3070866  
N    3.3905644    0.8624922   -9.0594362  
C    3.5893857    1.3321454  -11.5191916  
C    4.3423037    1.0128375  -12.6324455  
O    4.0349560    1.5675126  -13.8411175  
C    5.4316050    0.1146527  -12.5349580  
O    6.0823395   -0.1018830  -13.7320375  
C    5.7867234   -0.4747986  -11.3395644  
H    5.8059885   -1.2465825   -8.3713807  
H    2.6061637    1.4462071   -8.8314601  
H    2.7609859    2.0203568  -11.6157422  
H    4.6748473    1.2157253  -14.4736113  
H    6.8039031   -0.7194660  -13.5786067  
H    6.6259715   -1.1590648  -11.2957369  
C    5.7490607   -2.1284786   -4.7144778  
C    4.8671665   -1.6645342   -3.7660657  
C    3.9696975   -0.7771949   -4.4307298  
C    4.3561282   -0.7391884   -5.7949702  
N    5.4407941   -1.5693622   -5.9325542  
C    3.6896895    0.0363916   -6.7484506  
C    2.6133592    0.7870479   -6.3169351  
O    1.9266964    1.5620108   -7.2062837  
C    2.2128025    0.7626344   -4.9598146  
O    1.1236815    1.5644119   -4.6872123  
C    2.8699641   -0.0020530   -4.0185824  
H    4.8709993   -1.9318255   -2.7232165  
H    5.9263183   -1.7522465   -6.7920894  
H    1.2244406    1.9962425   -6.7047427  
H    0.9184891    1.4904381   -3.7501808  
H    6.5744613   -2.8128719   -4.6181474  
C    3.2573670   -0.0002921   -1.5109382  
C    2.5379468   -0.0001711   -0.3591962  
C    1.1435043    0.0000330   -0.7338498  
C    1.1092608   -0.0000085   -2.2088474  
N    2.4227562    0.0001906   -2.6182610  
C   -0.0265533   -0.0002525   -2.9515663  
C   -1.3003033   -0.0002641   -2.2514979  
O   -2.3786785   -0.0004132   -2.8306425  
C   -1.2877724    0.0000310   -0.6895608  
O   -2.3539956    0.0003306   -0.0892035  
C    0.0000000    0.0000000    0.0000000  
H    2.9384091   -0.0000370    0.6389240  
H   -0.0296290   -0.0004088   -4.0327231  
H    4.3270394   -0.0004767   -1.6439445  
C    0.8681109    0.7263879    2.2709268  
C    0.6127770    0.5096195    3.5869401  
C   -0.4920590   -0.4175482    3.6542670  
C   -0.8620974   -0.7254003    2.2596025  
N    0.0000000    0.0000000    1.4700000  
C   -1.8641242   -1.5660088    1.8976294  
C   -2.6293522   -2.2103885    2.9520183  
O   -3.5512764   -2.9839180    2.7283916  
C   -2.2549728   -1.8987399    4.4361073  
O   -2.8923672   -2.4351063    5.3323774  
C   -1.1543735   -0.9755647    4.7012123  
H    1.1382914    0.9492124    4.4159191  
H   -2.1192137   -1.7782617    0.8686553  
H   -0.9013378   -0.7652422    5.7314848  
H    1.6172880    1.3558399    1.8188057  
