64

C   -0.4696769    0.0864361   -8.6251231  
C    0.2536841   -0.5614859   -9.5995014  
C   -0.2880493   -0.1600255  -10.8564634  
C   -1.3485830    0.7415402  -10.5837486  
N   -1.4331418    0.8674552   -9.2193398  
C   -2.1111491    1.3392598  -11.5917241  
C   -1.7971994    1.0212923  -12.8988239  
O   -2.5096629    1.5768005  -13.9219660  
C   -0.7428690    0.1236292  -13.1910651  
O   -0.5540603   -0.0915530  -14.5406549  
C    0.0096642   -0.4666177  -12.1971695  
H    1.0705262   -1.2408543   -9.4256600  
H   -2.0876039    1.4505470   -8.7297847  
H   -2.9208280    2.0270930  -11.3904570  
H   -2.1326505    1.2258921  -14.7392727  
H    0.1755557   -0.7088641  -14.6510683  
H    0.8109789   -1.1504559  -12.4516068  
C    2.3020059   -2.1258165   -5.9826638  
C    1.8093622   -1.6631472   -4.7844542  
C    0.7354063   -0.7757530   -5.0906400  
C    0.6179776   -0.7364004   -6.5036468  
N    1.5853777   -1.5658598   -7.0142844  
C   -0.3410999    0.0396022   -7.1615059  
C   -1.1974268    0.7893049   -6.3786729  
O   -2.1529117    1.5646261   -6.9693855  
C   -1.0957281    0.7635435   -4.9673579  
O   -2.0198646    1.5644923   -4.3287681  
C   -0.1496415   -0.0015615   -4.3176961  
H    2.1793383   -1.9313018   -3.8096702  
H    1.7380683   -1.7477623   -7.9897732  
H   -2.6343333    1.9980531   -6.2526992  
H   -1.8828075    1.4896274   -3.3794448  
H    3.1087988   -2.8098333   -6.1830798  
C    3.3003543    0.0005276   -1.4738987  
C    2.5232814    0.0003497   -2.6090747  
C    1.1623200   -0.0001320   -2.1820103  
C    1.1711883    0.0000582   -0.7636140  
N    2.4852300   -0.0014919   -0.3662360  
C    0.0000000    0.0000000    0.0000000  
C   -1.2020384    0.0000519   -0.6806477  
O   -2.3759249    0.0003493    0.0157743  
C   -1.2314656   -0.0005115   -2.0955510  
O   -2.5054392   -0.0008039   -2.6250180  
C   -0.0764516   -0.0007274   -2.8495195  
H    2.8919955   -0.0005620   -3.6205304  
H    2.8036267    0.0088183    0.5858662  
H   -3.0835638    0.0000347   -0.6418818  
H   -2.4360047   -0.0011529   -3.5845921  
H    4.3715549    0.0004895   -1.3667136  
C    0.8175213    0.6860729    2.3021913  
C    0.0000000    0.0000000    1.4700000  
C   -0.8887526   -0.7456559    2.3478473  
C   -0.4549825   -0.3816753    3.7138435  
N    0.5448156    0.4573574    3.6934124  
C   -1.0945674   -0.9182058    4.8835240  
C   -2.1210866   -1.7789155    4.6970523  
O   -2.8083856   -2.3554314    5.6976972  
C   -2.5824069   -2.1655116    3.3310774  
O   -3.5227682   -2.9541547    3.2362962  
C   -1.9100805   -1.6015804    2.1470656  
H   -0.7567140   -0.6349833    5.8697035  
H   -3.4728268   -2.9124471    5.2533954  
H   -2.2742832   -1.9066565    1.1752040  
H    1.6189533    1.3585343    2.0405121  
