62

C    4.0196159   -3.6302061    0.3675541  
C    4.8600945   -3.0309768   -0.5418343  
C    6.1790528   -3.4937551   -0.2576071  
C    6.0803598   -4.3808214    0.8447988  
N    4.7558234   -4.4394975    1.2008570  
C    7.1902505   -5.0273789    1.3969718  
C    8.4221721   -4.7740648    0.8256764  
O    9.5389409   -5.3792077    1.3253172  
C    8.5410259   -3.8918566   -0.2745051  
O    9.8345538   -3.7432922   -0.7306381  
C    7.4465572   -3.2534546   -0.8195806  
H    4.3792132   -4.9978130    1.9454570  
H    7.1217183   -5.7044840    2.2372303  
H   10.2805048   -5.0689105    0.7895345  
H    9.8267478   -3.1321567   -1.4736427  
H    7.5686032   -2.5829539   -1.6622021  
H    2.9534340   -3.5432459    0.4886035  
C    4.4498807   -2.0927813   -1.5965448  
C    3.2085348   -1.6305556   -1.8956814  
C    3.3524544   -0.7335188   -3.0179324  
C    4.7897028   -0.7108877   -3.3504919  
N    5.3998261   -1.5552201   -2.4517473  
C    5.3348516    0.0196508   -4.3558921  
C    4.4468029    0.8384418   -5.1642765  
O    4.8411373    1.5320447   -6.0925628  
C    2.9210854    0.8299296   -4.8297317  
O    2.1637298    1.5155489   -5.5032294  
C    2.4521483    0.0014840   -3.7217481  
H    2.2961919   -1.8884108   -1.3879859  
H    6.3918374    0.0219799   -4.5832377  
H    6.3833796   -1.7523003   -2.4229412  
C    0.0000000    0.0000000    0.0000000  
C    1.0662923   -0.0000101   -0.8334270  
C    0.4961873    0.0000065   -2.1718887  
C   -0.9663854   -0.0000848   -1.9540250  
N   -1.2632773   -0.0000083   -0.6828660  
C   -1.8985359   -0.0000514   -3.0477261  
C   -1.3925770    0.0004566   -4.3020547  
O   -2.1456378    0.0005414   -5.4151314  
C    0.0786240    0.0009326   -4.5545000  
O    0.4683767    0.0012591   -5.7221100  
C    1.0143171    0.0008444   -3.4159031  
H    2.1107200    0.0000633   -0.5721865  
H   -2.9622181   -0.0003268   -2.8593381  
H   -1.5042265    0.0009697   -6.1484419  
C    3.3041272   -0.0001177    3.0120429  
C    2.5845372    0.0004780    1.8395852  
C    1.2040006    0.0000008    2.1983588  
C    1.1422373   -0.0006037    3.6154372  
N    2.4348639   -0.0026109    4.0777464  
C   -0.0655181   -0.0008797    4.3197917  
C   -1.2321768   -0.0002324    3.5801400  
O   -2.4392816   -0.0001146    4.2172520  
C   -1.1911209    0.0000007    2.1655264  
O   -2.4371527    0.0002320    1.5732860  
C    0.0000000    0.0000000    1.4700000  
H    3.0031534    0.0000661    0.8477417  
H    2.7054629    0.0071099    5.0445261  
H   -0.1193549   -0.0014844    5.3997470  
H   -3.1132988    0.0000648    3.5251786  
H   -2.3200282    0.0004071    0.6183591  
H    4.3686625   -0.0004071    3.1724291  
