64

C   -0.5696112   -0.3787123   -9.5370985  
C   -0.3387417   -0.2312762  -10.8852203  
C   -0.5585672    1.1430605  -11.1974302  
C   -0.9241379    1.7909185   -9.9897194  
N   -0.9230346    0.8377674   -9.0017320  
C   -1.2153065    3.1567390   -9.9223019  
C   -1.1356927    3.8818175  -11.0953756  
O   -1.4093744    5.2189890  -11.0862294  
C   -0.7730306    3.2532819  -12.3103796  
O   -0.7385710    4.1103746  -13.3909106  
C   -0.4859139    1.9058544  -12.3776808  
H   -0.0487576   -1.0177780  -11.5607324  
H   -1.4946758    3.6564434   -9.0049962  
H   -1.2964494    5.5270251  -11.9948694  
H   -0.4854241    3.6068005  -14.1706124  
H   -0.2111766    1.4521910  -13.3227665  
H   -0.5115298   -1.2556466   -8.9153497  
C    0.8795090   -0.7144666   -5.2160929  
C    0.5956261   -0.4617039   -6.5382079  
C   -0.4970339    0.4548920   -6.5615830  
C   -0.8401209    0.7280013   -5.2126464  
N    0.0139741    0.0003876   -4.4216236  
C   -1.8778313    1.5948029   -4.8568371  
C   -2.5818286    2.1971054   -5.8814335  
O   -3.6047039    3.0526435   -5.5902400  
C   -2.2547536    1.9369819   -7.2335336  
O   -3.0484118    2.6127296   -8.1373118  
C   -1.2313278    1.0817645   -7.5852857  
H    1.1117892   -0.8866401   -7.3820076  
H   -2.1443759    1.8070321   -3.8306233  
H   -3.9560269    3.3565200   -6.4372913  
H   -2.7617374    2.3816187   -9.0261362  
H    1.6299825   -1.3492180   -4.7769582  
C    3.2798085    0.0005853   -1.4499648  
C    2.5571144    0.0005562   -2.5996554  
C    1.1637436    0.0001546   -2.2210360  
C    1.1336965   -0.0000201   -0.7459470  
N    2.4483513   -0.0001430   -0.3402717  
C    0.0000000    0.0000000    0.0000000  
C   -1.2757367   -0.0000188   -0.6964414  
O   -2.3524597   -0.0000640   -0.1142313  
C   -1.2676494   -0.0000875   -2.2584081  
O   -2.3355762   -0.0004102   -2.8557294  
C    0.0181562    0.0001757   -2.9516296  
H    2.9547357    0.0006072   -3.5989105  
H    4.3498550    0.0008609   -1.3200021  
H    2.7563627    0.0012824    0.6148063  
C    0.8676693    0.7151171    2.2619005  
C    0.5875920    0.4624972    3.5848544  
C   -0.5048400   -0.4542819    3.6114698  
C   -0.8517165   -0.7276451    2.2635546  
N    0.0000000    0.0000000    1.4700000  
C   -1.8902865   -1.5946756    1.9108239  
C   -2.5912627   -2.1969500    2.9375057  
O   -3.6148162   -3.0527051    2.6493466  
C   -2.2603868   -1.9365747    4.2886322  
O   -3.0513550   -2.6123276    5.1947621  
C   -1.2361111   -1.0811317    4.6373480  
H    1.1060808    0.8876438    4.4271209  
H   -2.1597133   -1.8070987    0.8854031  
H   -3.9636755   -3.3565188    3.4974381  
H   -2.7621927   -2.3810384    6.0827341  
H   -1.0058879   -0.9010589    5.6809233  
H    1.6167816    1.3499334    1.8205408  
