62

C    2.7581250   -1.9455315   -7.5770232  
C    3.8518423   -2.7767388   -7.6501288  
C    4.3224826   -2.7281956   -8.9957656  
C    3.4693725   -1.8431088   -9.7034031  
N    2.5293741   -1.3871428   -8.8128319  
C    3.6376515   -1.5543297  -11.0610023  
C    4.6864263   -2.1700257  -11.7161100  
O    4.8965521   -1.9232583  -13.0419932  
C    5.5481977   -3.0565023  -11.0273965  
O    6.5447245   -3.5897663  -11.8185400  
C    5.3826177   -3.3420633   -9.6881571  
H    4.2595567   -3.3486583   -6.8342425  
H    1.7960433   -0.7353844   -9.0259473  
H    2.9908145   -0.8807839  -11.6061091  
H    5.6674735   -2.4460444  -13.2981980  
H    7.0814777   -4.1766810  -11.2772168  
H    6.0585405   -4.0253685   -9.1874558  
C    2.0234327   -2.1203367   -5.1612090  
C    1.8898405   -1.6210653   -6.4361003  
C    0.7628124   -0.7468332   -6.4249092  
C    0.2448267   -0.7524210   -5.1044597  
N    1.0324262   -1.5980776   -4.3633998  
C   -0.8712826    0.0001710   -4.7267111  
C   -1.4753121    0.7727083   -5.6995997  
O   -2.5682877    1.5273086   -5.3849614  
C   -0.9734761    0.7912223   -7.0227154  
O   -1.6848159    1.6097208   -7.8755934  
C    0.1273888    0.0488143   -7.3961487  
H    0.9132304   -1.7948166   -3.3861243  
H   -2.8290816    1.9818423   -6.1965344  
H   -1.2808193    1.5648550   -8.7475899  
H    0.4887931    0.0830450   -8.4172720  
H    2.7463510   -2.8087677   -4.7582058  
C    1.0965514    0.0001359   -0.8010305  
C    0.0000000    0.0000000    0.0000000  
C   -1.1546563    0.0001470   -0.8669513  
C   -0.6372014    0.0003519   -2.2486282  
N    0.7342871    0.0007337   -2.1395014  
C   -1.4147739    0.0001352   -3.3608717  
C   -2.8576049   -0.0001048   -3.1854462  
O   -3.6427779   -0.0002494   -4.1244907  
C   -3.4275840   -0.0000725   -1.7311666  
O   -4.6406831    0.0000333   -1.5710060  
C   -2.4891867   -0.0001091   -0.6116744  
H   -2.8919122   -0.0002918    0.3920866  
H    2.1388272    0.0000663   -0.5261648  
H    1.3735872   -0.0006099   -2.9130262  
C    2.5528530    2.1414826    2.8079335  
C    2.0663498    1.7338582    4.0032312  
C    0.9804344    0.8229586    3.6752840  
C    0.9495562    0.7966882    2.1971295  
N    1.8690446    1.5676019    1.6831036  
C    0.0000000    0.0000000    1.4700000  
C   -0.8785127   -0.7372425    2.1869543  
O   -1.8187535   -1.5261249    1.6395491  
C   -0.8723269   -0.7321790    3.6796354  
O   -1.7010379   -1.4274584    4.2670412  
C    0.1115397    0.0933559    4.4024240  
H    2.4028853    2.0163452    4.9860947  
H   -2.2861435   -1.9184361    2.3990168  
H    0.0832434    0.0693689    5.4835595  
H    3.3664920    2.8238276    2.6198634  
