62

C    4.0590624    0.5276878   -8.6759833  
C    5.1402584   -0.3228399   -8.6851807  
C    5.6458178   -0.3391789  -10.0188772  
C    4.8259313    0.5280638  -10.7854292  
N    3.8712649    1.0362668   -9.9398769  
C    5.0335847    0.7559169  -12.1491557  
C    6.0883046    0.0965124  -12.7499308  
O    6.3362757    0.2830995  -14.0791077  
C    6.9173063   -0.7730614  -12.0019905  
O    7.9246490   -1.3551164  -12.7434894  
C    6.7128735   -0.9985269  -10.6566677  
H    5.5174224   -0.8656678   -7.8354291  
H    3.1545928    1.6896822  -10.1995126  
H    4.4121996    1.4155639  -12.7390287  
H    7.1046459   -0.2621144  -14.2926819  
H    8.4375456   -1.9266675  -12.1639451  
H    7.3643009   -1.6702737  -10.1099717  
C    4.0798265   -0.6874371   -4.4914234  
C    3.0267438   -0.0008951   -3.9901699  
C    2.4924115    0.7437616   -5.1199821  
C    3.3677822    0.3787490   -6.2544761  
N    4.3000994   -0.4599785   -5.8921081  
C    3.1674947    0.9141049   -7.5729470  
C    2.1392103    1.7746768   -7.7500961  
O    1.8362017    2.3501474   -8.9261318  
C    1.2379635    2.1622968   -6.6250777  
O    0.3220284    2.9507491   -6.8587996  
C    1.4641035    1.5995618   -5.2819045  
H    1.0597870    2.9073480   -8.7367645  
H    0.7890793    1.9053561   -4.4938292  
H    4.7431529   -1.3594463   -3.9704862  
C    3.3003547    0.0005277   -1.4738986  
C    2.5232816    0.0003497   -2.6090746  
C    1.1623203   -0.0001319   -2.1820102  
C    1.1711884    0.0000584   -0.7636141  
N    2.4852301   -0.0014919   -0.3662359  
C    0.0000000    0.0000000    0.0000000  
C   -1.2020383    0.0000520   -0.6806479  
O   -2.3759248    0.0003493    0.0157745  
C   -1.2314655   -0.0005115   -2.0955511  
O   -2.5054388   -0.0008040   -2.6250184  
C   -0.0764513   -0.0007274   -2.8495195  
H    2.8036266    0.0088183    0.5858662  
H   -3.0835639    0.0000346   -0.6418822  
H   -2.4360043   -0.0011529   -3.5845924  
H   -0.1304091   -0.0013423   -3.9319089  
H    4.3715553    0.0004897   -1.3667133  
C    0.0000000    0.0000000    1.4700000  
C    1.0541688    0.0001722    2.3260392  
C    0.5103138    0.0000454    3.6635956  
C   -0.9576371   -0.0002459    3.5155732  
N   -1.2018458    0.0001392    2.1615969  
C   -1.8348311   -0.0008317    4.5510609  
C   -1.2972847   -0.0009736    5.9014604  
O   -2.0050672   -0.0014265    6.9001319  
C    0.2542623   -0.0004184    6.0817573  
O    0.7184670   -0.0002256    7.2139121  
C    1.0974552   -0.0000873    4.8889129  
H    2.0940752    0.0005483    2.0517982  
H   -2.9081052   -0.0011668    4.4207061  
H    2.1707277    0.0000911    5.0223670  
H   -2.1128194   -0.0014912    1.7406791  
