64

C    4.0186404    0.5550905   -8.6600681  
C    5.1062512   -0.2847455   -8.7252298  
C    5.5688283   -0.2630253  -10.0743594  
C    4.7173199    0.6153460  -10.7922198  
N    3.7859769    1.0932842   -9.9040796  
C    4.8790938    0.8791221  -12.1556860  
C    5.9195962    0.2448644  -12.8062605  
O    6.1231292    0.4669054  -14.1375329  
C    6.7796382   -0.6352872  -12.1073490  
O    7.7676046   -1.1891541  -12.8950654  
C    6.6204707   -0.8961865  -10.7623119  
H    5.5151669   -0.8450551   -7.9019223  
H    3.0557469    1.7462162  -10.1241364  
H    4.2334354    1.5474253  -12.7085872  
H    6.8888987   -0.0655617  -14.3892120  
H    8.3037448   -1.7701537  -12.3467975  
H    7.2948713   -1.5752246  -10.2538150  
C    4.0903621   -0.7060772   -4.4543997  
C    3.0267438   -0.0008951   -3.9901699  
C    2.4927473    0.7404273   -5.1082596  
C    3.3384967    0.4069148   -6.2702697  
N    4.2884154   -0.4739735   -5.8070422  
C    3.1596790    0.9054494   -7.5197466  
C    2.0610437    1.8325296   -7.7343587  
O    1.8174802    2.3361500   -8.8230936  
C    1.1527701    2.2000355   -6.5178953  
O    0.2249105    2.9797496   -6.6863680  
C    1.4446981    1.5979725   -5.2193766  
H    0.8109661    1.8574605   -4.3822546  
H    4.7463089   -1.3756297   -3.9221186  
H    5.0126351   -0.8864510   -6.3659837  
C    3.3003547    0.0005277   -1.4738986  
C    2.5232816    0.0003497   -2.6090746  
C    1.1623203   -0.0001319   -2.1820102  
C    1.1711884    0.0000584   -0.7636141  
N    2.4852301   -0.0014919   -0.3662359  
C    0.0000000    0.0000000    0.0000000  
C   -1.2020383    0.0000520   -0.6806479  
O   -2.3759248    0.0003493    0.0157745  
C   -1.2314655   -0.0005115   -2.0955511  
O   -2.5054388   -0.0008040   -2.6250184  
C   -0.0764513   -0.0007274   -2.8495195  
H    2.8036266    0.0088183    0.5858662  
H   -3.0835639    0.0000346   -0.6418822  
H   -2.4360043   -0.0011529   -3.5845924  
H   -0.1304091   -0.0013423   -3.9319089  
H    4.3715553    0.0004897   -1.3667133  
C    2.5311839    2.1237619    3.0120429  
C    1.9795631    1.6616747    1.8395852  
C    0.9223175    0.7739173    2.1983588  
C    0.8753926    0.7337535    3.6154372  
N    1.8668922    1.5631002    4.0777464  
C   -0.0496243   -0.0427881    4.3197917  
C   -0.9437528   -0.7922060    3.5801400  
O   -1.8685244   -1.5680278    4.2172520  
C   -0.9124520   -0.7656372    2.1655264  
O   -1.8671164   -1.5663939    1.5732860  
C    0.0000000    0.0000000    1.4700000  
H    2.3005065    1.9304404    0.8477417  
H    2.0679347    1.7444845    5.0445261  
H   -0.0904770   -0.0778569    5.3997470  
H   -2.3849669   -2.0011402    3.5251786  
H   -1.7775064   -1.4909735    0.6183591  
H    3.3468514    2.8078103    3.1724291  
