60

C    5.2104360   -4.5819047   -4.0747427  
C    4.3967642   -3.4735729   -4.0299581  
C    5.0964125   -2.4167053   -4.6842696  
C    6.3419764   -2.9439925   -5.1114258  
N    6.3795840   -4.2603568   -4.7236268  
C    7.2923652   -2.1796181   -5.7950068  
C    6.9795394   -0.8589721   -6.0523249  
O    7.8713156   -0.0676862   -6.7168675  
C    5.7420929   -0.3145387   -5.6338367  
O    5.5795150    1.0149656   -5.9644874  
C    4.8041502   -1.0679545   -4.9591845  
H    3.4196545   -3.4316511   -3.5799662  
H    7.1371507   -4.8955200   -4.8986690  
H    8.2435736   -2.5755242   -6.1231263  
H    7.4612525    0.8039525   -6.7900756  
H    4.7190105    1.3045068   -5.6462087  
H    5.0499096   -5.5759629   -3.6939035  
C    2.8912669   -0.6998116   -3.3332350  
C    1.7334695    0.0049281   -3.2500363  
C    1.6041098    0.7488997   -4.4807302  
C    2.7899379    0.4174237   -5.2935811  
N    3.5303610   -0.4649347   -4.5411804  
C    3.0393018    0.9187047   -6.5298007  
C    2.0755503    1.8468030   -7.0975613  
O    2.2101243    2.3528611   -8.2039495  
C    0.8125763    2.2121887   -6.2542377  
O   -0.0056409    2.9927353   -6.7217077  
C    0.6534232    1.6072170   -4.9341878  
H    3.9152830    0.6624806   -7.1093831  
H   -0.2239005    1.8652503   -4.3567400  
H    3.3315067   -1.3708305   -2.6136436  
C    1.1319246    0.0015678   -0.8009268  
C    0.7969914    0.0034958   -2.1169401  
C   -0.6453340    0.0035696   -2.1842669  
C   -1.1266832    0.0015410   -0.7896025  
N    0.0000000    0.0000000    0.0000000  
C   -2.4346129    0.0013913   -0.4276292  
C   -3.4350111    0.0031335   -1.4820181  
O   -4.6384614    0.0030875   -1.2583914  
C   -2.9478961    0.0050442   -2.9661074  
O   -3.7809382    0.0062135   -3.8623773  
C   -1.5113825    0.0053055   -3.2312122  
H   -2.7664565    0.0000174    0.6013448  
H   -1.1823533    0.0068381   -4.2614848  
H    2.1104316    0.0009435   -0.3488059  
C    0.8175213    0.6860729    2.3021913  
C    0.0000000    0.0000000    1.4700000  
C   -0.8887526   -0.7456559    2.3478473  
C   -0.4549825   -0.3816753    3.7138435  
N    0.5448156    0.4573574    3.6934124  
C   -1.0945674   -0.9182058    4.8835240  
C   -2.1210866   -1.7789155    4.6970523  
O   -2.8083856   -2.3554314    5.6976972  
C   -2.5824069   -2.1655116    3.3310774  
O   -3.5227682   -2.9541547    3.2362962  
C   -1.9100805   -1.6015804    2.1470656  
H   -0.7567140   -0.6349833    5.8697035  
H   -3.4728268   -2.9124471    5.2533954  
H   -2.2742832   -1.9066565    1.1752040  
H    1.6189533    1.3585343    2.0405121  
