60

C    5.8273924   -3.2542789   -9.2338199  
C    6.1177514   -2.4869669  -10.3380804  
C    5.7378618   -1.1479287  -10.0262136  
C    5.2178259   -1.1594446   -8.7066097  
N    5.2849735   -2.4542799   -8.2554877  
C    4.7455560   -0.0078468   -8.0697627  
C    4.7995189    1.1770132   -8.7778396  
O    4.3518462    2.3314630   -8.2035160  
C    5.3145695    1.2086986  -10.0956162  
O    5.3008616    2.4640233  -10.6677309  
C    5.7803977    0.0729585  -10.7246035  
H    6.5491592   -2.8481447  -11.2559206  
H    4.9962733   -2.7678533   -7.3464751  
H    4.4778027    3.0294391   -8.8594337  
H    5.6648009    2.3975049  -11.5558338  
H    6.1691005    0.1281267  -11.7347248  
H    5.9629717   -4.3091770   -9.0671864  
C    5.9718891   -2.1066115   -4.3836097  
C    5.8824617   -1.6421429   -5.6565381  
C    4.7503164   -0.7470245   -5.6994995  
C    4.1834492   -0.7279189   -4.3374836  
N    4.9692736   -1.5728897   -3.5882214  
C    3.1006054    0.0006263   -3.9654951  
C    2.4499046    0.8204920   -4.9739315  
O    1.4681174    1.5123812   -4.7379557  
C    3.0331140    0.8153163   -6.4229465  
O    2.4935217    1.5013961   -7.2804980  
C    4.2049177   -0.0107667   -6.7027951  
H    6.5349997   -1.8975860   -6.4723545  
H    6.6857550   -2.7940673   -3.9597116  
H    4.8362804   -1.7697855   -2.6132382  
C    3.2798083    0.0005857   -1.4499652  
C    2.5571142    0.0005565   -2.5996556  
C    1.1637432    0.0001548   -2.2210361  
C    1.1336964   -0.0000200   -0.7459473  
N    2.4483512   -0.0001428   -0.3402723  
C    0.0000000    0.0000000    0.0000000  
C   -1.2757368   -0.0000186   -0.6964415  
O   -2.3524598   -0.0000639   -0.1142311  
C   -1.2676497   -0.0000872   -2.2584083  
O   -2.3355766   -0.0004101   -2.8557295  
C    0.0181558    0.0001758   -2.9516296  
H    0.0150788    0.0003319   -4.0331631  
H    4.3498547    0.0008612   -1.3200026  
H    2.7563626    0.0012823    0.6148059  
C    0.8175213    0.6860729    2.3021913  
C    0.0000000    0.0000000    1.4700000  
C   -0.8887526   -0.7456559    2.3478473  
C   -0.4549825   -0.3816753    3.7138435  
N    0.5448156    0.4573574    3.6934124  
C   -1.0945674   -0.9182058    4.8835240  
C   -2.1210866   -1.7789155    4.6970523  
O   -2.8083856   -2.3554314    5.6976972  
C   -2.5824069   -2.1655116    3.3310774  
O   -3.5227682   -2.9541547    3.2362962  
C   -1.9100805   -1.6015804    2.1470656  
H   -0.7567140   -0.6349833    5.8697035  
H   -3.4728268   -2.9124471    5.2533954  
H   -2.2742832   -1.9066565    1.1752040  
H    1.6189533    1.3585343    2.0405121  
