60

C    0.5323420    0.5336368   -9.3560348  
C    1.6118129   -0.3165310   -9.2895182  
C    2.2104884   -0.3313895  -10.5841100  
C    1.4465605    0.5363438  -11.4059243  
N    0.4342534    1.0434026  -10.6295595  
C    1.7501067    0.7656103  -12.7513187  
C    2.8449546    0.1071410  -13.2765854  
O    3.1862878    0.2951205  -14.5847018  
C    3.6192926   -0.7629023  -12.4726933  
O    4.6768095   -1.3438987  -13.1416082  
C    3.3202604   -0.9897619  -11.1454262  
H    1.9281132   -0.8600755   -8.4157297  
H   -0.2625057    1.6968418  -10.9386312  
H    1.1717614    1.4256381  -13.3830491  
H    3.9680594   -0.2496334  -14.7438919  
H    5.1476341   -1.9158552  -12.5277722  
H    3.9316325   -1.6618371  -10.5546494  
C    0.2574167   -0.6856119   -5.1816675  
C   -0.8287665    0.0000939   -4.7555305  
C   -1.2821020    0.7456926   -5.9196052  
C   -0.3285015    0.3820838   -6.9896608  
N    0.5761657   -0.4566991   -6.5630339  
C   -0.4351974    0.9186760   -8.3184836  
C   -1.4487061    1.7790894   -8.5671268  
O   -1.6679604    2.3556225   -9.7611028  
C   -2.4274561    2.1653064   -7.5083328  
O   -3.3248661    2.9536923   -7.8055247  
C   -2.2967102    1.6013191   -6.1530657  
H   -2.4560485    2.9123845   -9.6266159  
H   -3.0259295    1.9061167   -5.4144400  
H    0.8824806   -1.3579200   -4.6157427  
C    1.0672569   -0.0000698   -0.8321910  
C    0.0000000    0.0000000    0.0000000  
C   -1.1601223   -0.0000736   -0.8778472  
C   -0.5938729   -0.0000768   -2.2438435  
N    0.7113367   -0.0001553   -2.2234123  
C   -1.4286985   -0.0001877   -3.4135239  
C   -2.7683113   -0.0006798   -3.2270524  
O   -3.6653902   -0.0008302   -4.2276970  
C   -3.3702024   -0.0010610   -1.8610774  
O   -4.5974910   -0.0013779   -1.7662963  
C   -2.4926825   -0.0008943   -0.6770658  
H   -4.5324245   -0.0012258   -3.7833954  
H   -2.9677772   -0.0012974    0.2947961  
H    2.1134391   -0.0000547   -0.5705119  
C    2.5128556    2.1077716    2.9199648  
C    1.9592212    1.6432552    4.0696553  
C    0.8915788    0.7479214    3.6910360  
C    0.8684491    0.7287414    2.2159470  
N    1.8754542    1.5738793    1.8102719  
C    0.0000000    0.0000000    1.4700000  
C   -0.9772830   -0.8200135    2.1664417  
O   -1.8021297   -1.5120829    1.5842315  
C   -0.9711318   -0.8147624    3.7284083  
O   -1.7894187   -1.5009653    4.3257297  
C    0.0140216    0.0115358    4.4216297  
H    2.2638494    1.8988021    5.0689105  
H    0.0117648    0.0094386    5.5031631  
H    3.3327358    2.7953732    2.7900019  
H    2.1123206    1.7707734    0.8551938  
