60

C    7.8346894   -2.1207735   -3.2453234  
C    6.8747946   -1.6593867   -4.1160649  
C    7.5271206   -0.7726224   -5.0231039  
C    8.8960139   -0.7323150   -4.6537365  
N    9.0481293   -1.5606232   -3.5695848  
C    9.8401477    0.0434100   -5.3331838  
C    9.3943283    0.7918482   -6.4052211  
O   10.2740855    1.5668447   -7.1040917  
C    8.0323618    0.7651207   -6.7888234  
O    7.7452187    1.5648575   -7.8757055  
C    7.1003450    0.0002888   -6.1188200  
H    5.8324128   -1.9279691   -4.0988443  
H    9.9138681   -1.7416796   -3.0945110  
H   10.8848711    0.0785835   -5.0565634  
H    9.7632990    1.9993556   -7.8007237  
H    6.8058018    1.4893973   -8.0691085  
H    7.7495004   -2.8039968   -2.4177318  
C    3.2973507   -0.0000930   -3.8752373  
C    4.6090968    0.0000009   -4.2265165  
C    4.6584752   -0.0001359   -5.6695676  
C    3.2579291   -0.0002893   -6.1335296  
N    2.4824026   -0.0006539   -4.9971104  
C    2.8797130   -0.0000493   -7.4368552  
C    3.9215762    0.0001635   -8.4502935  
O    3.6829951    0.0003259   -9.6508676  
C    5.4116113    0.0000766   -7.9816782  
O    6.2974493   -0.0000527   -8.8258056  
C    5.6945668    0.0000918   -6.5485739  
H    5.4465356   -0.0000332   -3.5517502  
H    1.8466888   -0.0000377   -7.7558720  
H    1.4789639    0.0007238   -4.9846265  
C    3.3321175    0.0004715   -1.3379331  
C    2.6974186    0.0000117   -2.5332308  
C    1.2800441   -0.0002117   -2.2052838  
C    1.2395036    0.0000644   -0.7271292  
N    2.4394065    0.0005460   -0.2131033  
C    0.0000000    0.0000000    0.0000000  
C   -1.1468701    0.0000635   -0.7169542  
O   -2.3742199    0.0000073   -0.1695491  
C   -1.1388766    0.0001607   -2.2096354  
O   -2.2206227    0.0000905   -2.7970412  
C    0.1454526    0.0001817   -2.9324239  
H   -2.9844344    0.0001026   -0.9290168  
H    0.1083579    0.0003683   -4.0135594  
H    4.3940038    0.0007619   -1.1498630  
C    2.5128556    2.1077716    2.9199648  
C    1.9592212    1.6432552    4.0696553  
C    0.8915788    0.7479214    3.6910360  
C    0.8684491    0.7287414    2.2159470  
N    1.8754542    1.5738793    1.8102719  
C    0.0000000    0.0000000    1.4700000  
C   -0.9772830   -0.8200135    2.1664417  
O   -1.8021297   -1.5120829    1.5842315  
C   -0.9711318   -0.8147624    3.7284083  
O   -1.7894187   -1.5009653    4.3257297  
C    0.0140216    0.0115358    4.4216297  
H    2.2638494    1.8988021    5.0689105  
H    0.0117648    0.0094386    5.5031631  
H    3.3327358    2.7953732    2.7900019  
H    2.1123206    1.7707734    0.8551938  
