64

C   -0.0635679    0.6371974   -9.3631280  
C    1.0280852   -0.1932402   -9.4686508  
C    1.4609484   -0.1413677  -10.8267883  
C    0.5879829    0.7448638  -11.5082948  
N   -0.3270045    1.1982798  -10.5907831  
C    0.7181521    1.0368332  -12.8693969  
C    1.7485264    0.4232097  -13.5549436  
O    1.9214315    0.6731180  -14.8856057  
C    2.6296201   -0.4643630  -12.8925956  
O    3.6039284   -0.9952731  -13.7124752  
C    2.5016358   -0.7530715  -11.5499152  
H    1.4586978   -0.7667965   -8.6657812  
H   -1.0663161    1.8501204  -10.7818438  
H    0.0560213    1.7112661  -13.3946839  
H    2.6851523    0.1513416  -15.1644338  
H    4.1558714   -1.5831271  -13.1876991  
H    3.1916056   -1.4371461  -11.0698506  
C    0.1064599   -0.7138168   -5.1554291  
C   -0.9736297    0.0040464   -4.6965763  
C   -1.4912366    0.7334044   -5.8077560  
C   -0.6795014    0.4177976   -6.9273113  
N    0.2821068   -0.4618995   -6.4959643  
C   -0.8998162    0.9585819   -8.1976664  
C   -1.9590505    1.8336800   -8.3405056  
O   -2.2193121    2.3905127   -9.5592005  
C   -2.7800670    2.1612319   -7.2353095  
O   -3.7933061    3.0470083   -7.5387750  
C   -2.5631421    1.6283221   -5.9817238  
H    0.9955157   -0.8703468   -7.0723323  
H   -2.9888525    2.9621254   -9.4394872  
H   -4.3001574    3.2151108   -6.7384957  
H   -3.2086819    1.8980388   -5.1540709  
H    0.7663119   -1.3844919   -4.6322183  
C    1.1188642    0.0008222   -0.8003808  
C    0.0000000    0.0000000    0.0000000  
C   -1.1323862    0.0008899   -0.8673528  
C   -0.6382663    0.0019679   -2.1969280  
N    0.7324016    0.0038481   -2.1202242  
C   -1.4770914    0.0027318   -3.3154808  
C   -2.8395473    0.0020945   -3.0876857  
O   -3.7039201    0.0024425   -4.1440349  
C   -3.3517868    0.0013931   -1.7684331  
O   -4.7300497    0.0012366   -1.7073121  
C   -2.5248543    0.0009123   -0.6644817  
H    1.3576314   -0.0056167   -2.9057046  
H   -4.5940032    0.0021826   -3.7685128  
H   -4.9934602    0.0007259   -0.7819913  
H   -2.9462577    0.0005603    0.3339659  
H    2.1619895    0.0009355   -0.5342068  
C    0.0000000    0.0000000    1.4700000  
C    1.0662921    0.0000102    2.3034270  
C    0.4961870   -0.0000064    3.6418889  
C   -0.9663858    0.0000850    3.4240247  
N   -1.2632773    0.0000084    2.1528658  
C   -1.8985362    0.0000517    4.5177257  
C   -1.3925775   -0.0004564    5.7720543  
O   -2.1456383   -0.0005410    6.8851312  
C    0.0786232   -0.0009323    6.0245000  
O    0.4683759   -0.0012588    7.1921102  
C    1.0143166   -0.0008442    4.8859032  
H    2.1107198   -0.0000632    2.0421868  
H   -2.9622183    0.0003270    4.3293377  
H   -1.5042274   -0.0009692    7.6184419  
H    2.0724152   -0.0013148    5.1109744  
