60

C   -3.8510408    0.7189163   -8.0169553  
C   -2.8583697    0.0009056   -8.6426812  
C   -3.4759381   -0.7269026   -9.7026361  
C   -4.8582816   -0.4102419   -9.6747607  
N   -5.0522365    0.4685640   -8.6380839  
C   -5.7760844   -0.9493961  -10.5812602  
C   -5.2895047   -1.8239172  -11.5334317  
O   -6.1421000   -2.3791667  -12.4432636  
C   -3.9136639   -2.1525015  -11.5771361  
O   -3.5852390   -3.0375225  -12.5832266  
C   -3.0077032   -1.6212007  -10.6829998  
H   -5.9323629    0.8774412   -8.3808325  
H   -6.8309188   -0.7121835  -10.5652184  
H   -5.6050372   -2.9506323  -13.0074045  
H   -2.6389573   -3.2064064  -12.5428297  
H   -1.9598675   -1.8916791  -10.7409630  
H   -3.7975004    1.3887029   -7.1758381  
C   -0.8712823    0.0001712   -4.7267111  
C    0.4246872    0.0002195   -5.1323438  
C    0.4138924    0.0002758   -6.5761999  
C   -1.0047702    0.0002857   -6.9813996  
N   -1.7322698   -0.0001786   -5.8136522  
C   -1.4369659    0.0007305   -8.2678326  
C   -0.4382364    0.0010073   -9.3238038  
O   -0.7266369    0.0013504  -10.5133939  
C    1.0700316    0.0007501   -8.9176841  
O    1.9199265    0.0006730   -9.7979910  
C    1.4124573    0.0005497   -7.4976147  
H    1.2895156    0.0000338   -4.4930590  
H    2.4590211    0.0005778   -7.2248003  
H   -2.7343169    0.0012690   -5.7593665  
C    1.0965515    0.0001358   -0.8010304  
C    0.0000000    0.0000000    0.0000000  
C   -1.1546562    0.0001470   -0.8669514  
C   -0.6372012    0.0003520   -2.2486282  
N    0.7342873    0.0007338   -2.1395014  
C   -1.4147737    0.0001354   -3.3608717  
C   -2.8576047   -0.0001047   -3.1854463  
O   -3.6427778   -0.0002491   -4.1244908  
C   -3.4275837   -0.0000725   -1.7311667  
O   -4.6406828    0.0000333   -1.5710061  
C   -2.4891866   -0.0001090   -0.6116745  
H   -2.8919121   -0.0002919    0.3920865  
H    2.1388272    0.0000662   -0.5261647  
H    1.3735873   -0.0006098   -2.9130261  
C    0.8400945    0.7047457    2.2710304  
C    0.0000000    0.0000000    1.4700000  
C   -0.8844236   -0.7423113    2.3369512  
C   -0.4878984   -0.4098547    3.7186280  
N    0.5629682    0.4714286    3.6095011  
C   -1.0836927   -0.9095027    4.8308716  
C   -2.1891196   -1.8367527    4.6554461  
O   -2.7906899   -2.3413415    5.5944904  
C   -2.6257283   -2.2031529    3.2011665  
O   -3.5549479   -2.9829990    3.0410059  
C   -1.9068976   -1.5999348    2.0816745  
H   -0.7774656   -0.6525820    5.8354244  
H   -2.2155208   -1.8586617    1.0779135  
H    1.6384792    1.3747609    1.9961646  
H    1.0518368    0.8833920    4.3830260  
