62

C    0.0000000    0.0000000    0.0000000  
C    1.0521666   -0.0011903   -0.8862342  
C    0.4917221   -0.0011958   -2.1979133  
C   -0.9187425    0.0003147   -2.0478684  
N   -1.1833171   -0.0009412   -0.7007915  
C   -1.7951697    0.0010349   -3.1372093  
C   -1.2375833    0.0005223   -4.4010427  
O   -2.0474206    0.0015358   -5.4997581  
C    0.1673585   -0.0013568   -4.5711967  
O    0.5673528   -0.0020688   -5.8915550  
C    1.0325774   -0.0023413   -3.4969890  
H    2.0953060   -0.0030649   -0.6200559  
H   -2.0989774    0.0102371   -0.2891827  
H   -1.4634879    0.0006496   -6.2693593  
H    1.5290719   -0.0033154   -5.9180046  
H    2.1042151   -0.0039610   -3.6584456  
C   -3.2578649    0.0024037   -2.9908511  
C   -3.9809867    0.0031286   -1.8468784  
C   -5.3695592    0.0043912   -2.2808889  
C   -5.2983960    0.0043640   -3.7578856  
N   -4.0631136    0.0031208   -4.1798630  
C   -6.4794703    0.0054028   -4.5765119  
C   -7.6771912    0.0060335   -3.9481819  
O   -8.8597146    0.0070287   -4.5866792  
C   -7.7819054    0.0057080   -2.4591569  
O   -8.9049083    0.0064463   -1.9550895  
C   -6.5558058    0.0046819   -1.6414754  
H   -3.6170579    0.0027518   -0.8336497  
H   -9.5255205    0.0072465   -3.8754444  
H   -6.6744112    0.0043600   -0.5662256  
C   -6.3684983    0.0056220   -6.0423175  
C   -5.2527148    0.0048411   -6.8163336  
C   -5.6940438    0.0055473   -8.1911293  
C   -7.1689801    0.0068421   -8.1543465  
N   -7.5147049    0.0064256   -6.8226695  
C   -7.9654998    0.0081952   -9.2530990  
C   -7.3275444    0.0081630  -10.5590647  
O   -7.9579162    0.0092593  -11.6083185  
C   -5.7668146    0.0065507  -10.6217204  
O   -5.2184671    0.0062025  -11.7156010  
C   -5.0160777    0.0054526   -9.3686265  
H   -4.2364790    0.0036976   -6.4643713  
H   -9.0455518    0.0092606   -9.2041395  
H   -3.9357934    0.0045443   -9.4206767  
H   -8.4548532    0.0086297   -6.4717226  
C    3.3003543   -0.0005276    2.9438989  
C    2.5232812   -0.0003497    4.0790748  
C    1.1623199    0.0001319    3.6520102  
C    1.1711883   -0.0000583    2.2336141  
N    2.4852299    0.0014920    1.8362361  
C    0.0000000    0.0000000    1.4700000  
C   -1.2020384   -0.0000520    2.1506477  
O   -2.3759250   -0.0003494    1.4542253  
C   -1.2314658    0.0005113    3.5655508  
O   -2.5054393    0.0008037    4.0950179  
C   -0.0764518    0.0007272    4.3195194  
H    2.8919952    0.0005619    5.0905303  
H    2.8036267   -0.0088181    0.8841339  
H   -3.0835639   -0.0000348    2.1118817  
H   -2.4360050    0.0011527    5.0545920  
H   -0.1304098    0.0013421    5.4019087  
H    4.3715549   -0.0004895    2.8367138  
