60

C    0.5379602   -3.2565507  -10.3257546  
C    0.3963152   -2.4894447  -11.4588699  
C    0.1599822   -1.1503045  -11.0282316  
C    0.1687153   -1.1615486   -9.6098788  
N    0.3989097   -2.4563271   -9.2159549  
C   -0.0323591   -0.0097871   -8.8431965  
C   -0.2458418    1.1749603   -9.5206748  
O   -0.4473693    2.3295611   -8.8211764  
C   -0.2585198    1.2063749  -10.9354783  
O   -0.4841738    2.4616172  -11.4615863  
C   -0.0604958    0.0704732  -11.6924724  
H    0.4548992   -2.8508220  -12.4712775  
H    0.4694282   -2.7697234   -8.2647495  
H   -0.5746535    3.0274216   -9.4769617  
H   -0.4771092    2.3949139  -12.4213279  
H   -0.0758739    0.1254348  -12.7747011  
H    0.7257515   -4.3114441  -10.2213873  
C    2.4782021   -2.1081876   -5.8783640  
C    1.9212515   -1.6438940   -7.0265418  
C    0.8545985   -0.7486150   -6.6450159  
C    0.8356633   -0.7292245   -5.1698698  
N    1.8439053   -1.5742004   -4.7669395  
C   -0.0307352   -0.0004646   -4.4215603  
C   -1.0100801    0.8193482   -5.1153371  
O   -1.8333384    1.5114170   -4.5308821  
C   -1.0083720    0.8138722   -6.6773139  
O   -1.8284255    1.4999049   -7.2724035  
C   -0.0251095   -0.0124251   -7.3732162  
H    2.2230621   -1.8995540   -8.0266228  
H    3.2985200   -2.7956864   -5.7506354  
H    2.0835085   -1.7709326   -3.8125107  
C    3.2573670   -0.0002920   -1.5109380  
C    2.5379468   -0.0001709   -0.3591961  
C    1.1435043    0.0000332   -0.7338500  
C    1.1092609   -0.0000082   -2.2088477  
N    2.4227562    0.0001909   -2.6182613  
C   -0.0265532   -0.0002522   -2.9515663  
C   -1.3003035   -0.0002639   -2.2514981  
O   -2.3786784   -0.0004131   -2.8306429  
C   -1.2877725    0.0000312   -0.6895608  
O   -2.3539958    0.0003307   -0.0892036  
C    0.0000000    0.0000000    0.0000000  
H    2.9384091   -0.0000369    0.6389239  
H    4.3270394   -0.0004765   -1.6439446  
H    2.7280494   -0.0013406   -3.5742113  
C    2.5528530    2.1414826    2.8079335  
C    2.0663498    1.7338582    4.0032312  
C    0.9804344    0.8229586    3.6752840  
C    0.9495562    0.7966882    2.1971295  
N    1.8690446    1.5676019    1.6831036  
C    0.0000000    0.0000000    1.4700000  
C   -0.8785127   -0.7372425    2.1869543  
O   -1.8187535   -1.5261249    1.6395491  
C   -0.8723269   -0.7321790    3.6796354  
O   -1.7010379   -1.4274584    4.2670412  
C    0.1115397    0.0933559    4.4024240  
H    2.4028853    2.0163452    4.9860947  
H   -2.2861435   -1.9184361    2.3990168  
H    0.0832434    0.0693689    5.4835595  
H    3.3664920    2.8238276    2.6198634  
