62

C    2.8024917   -1.9918333   -7.5328130  
C    3.8923055   -2.8306548   -7.5667372  
C    4.3937125   -2.8080496   -8.9019077  
C    3.5625267   -1.9302086   -9.6438317  
N    2.6054314   -1.4534250   -8.7828657  
C    3.7634480   -1.6658166  -11.0019614  
C    4.8229270   -2.2989021  -11.6223537  
O    5.0646965   -2.0762183  -12.9471068  
C    5.6631914   -3.1785086  -10.8991220  
O    6.6740505   -3.7312041  -11.6580920  
C    5.4654065   -3.4400151   -9.5593382  
H    4.2777404   -3.3908742   -6.7321192  
H    1.8812743   -0.8010835   -9.0237561  
H    3.1334458   -0.9979129  -11.5731045  
H    5.8379186   -2.6079003  -13.1766870  
H    7.1946349   -4.3119030  -11.0947229  
H    6.1254342   -4.1186127   -9.0317515  
C    1.9999922   -2.1070891   -5.1447770  
C    1.9105667   -1.6426495   -6.4177158  
C    0.7784252   -0.7475272   -6.4606981  
C    0.2115583   -0.7283876   -5.0986831  
N    0.9973788   -1.5733446   -4.3494007  
C   -0.8712826    0.0001710   -4.7267111  
C   -1.5219797    0.8200163   -5.7351666  
O   -2.5037638    1.5119150   -5.4992068  
C   -0.9387700    0.8148046   -7.1841818  
O   -1.4783588    1.5008667   -8.0417497  
C    0.2330300   -0.0112900   -7.4640108  
H    0.6307994   -0.0091669   -8.4697438  
H    2.7138545   -2.7945380   -4.7208631  
H    0.8643844   -1.7702170   -3.3744131  
C    1.0965514    0.0001359   -0.8010305  
C    0.0000000    0.0000000    0.0000000  
C   -1.1546563    0.0001470   -0.8669513  
C   -0.6372014    0.0003519   -2.2486282  
N    0.7342871    0.0007337   -2.1395014  
C   -1.4147739    0.0001352   -3.3608717  
C   -2.8576049   -0.0001048   -3.1854462  
O   -3.6427779   -0.0002494   -4.1244907  
C   -3.4275840   -0.0000725   -1.7311666  
O   -4.6406831    0.0000333   -1.5710060  
C   -2.4891867   -0.0001091   -0.6116744  
H   -2.8919122   -0.0002918    0.3920866  
H    2.1388272    0.0000663   -0.5261648  
H    1.3735872   -0.0006099   -2.9130262  
C    0.0000000    0.0000000    1.4700000  
C    1.0521667    0.0011902    2.3562342  
C    0.4917218    0.0011957    3.6679131  
C   -0.9187428   -0.0003148    3.5178682  
N   -1.1833171    0.0009411    2.1707914  
C   -1.7951701   -0.0010350    4.6072090  
C   -1.2375837   -0.0005224    5.8710424  
O   -2.0474215   -0.0015360    6.9697579  
C    0.1673580    0.0013566    6.0411963  
O    0.5673524    0.0020687    7.3615553  
C    1.0325770    0.0023412    4.9669890  
H    2.0953057    0.0030649    2.0900562  
H   -2.0989778   -0.0102372    1.7591824  
H   -2.8710934   -0.0020419    4.4995513  
H   -1.4634884   -0.0006497    7.7393593  
H    1.5290710    0.0033153    7.3880045  
H    2.1042148    0.0039609    5.1284455  
