60

C    5.6607617   -0.0163855   -2.2932973  
C    6.9286108   -0.0269757   -1.7595243  
C    6.7830848   -0.0173779   -0.3406057  
C    5.3917871   -0.0011660   -0.0650081  
N    4.7390844    0.0009612   -1.2727295  
C    4.8785140    0.0113254    1.2354476  
C    5.7862817    0.0070720    2.2766576  
O    5.3393696    0.0184375    3.5662901  
C    7.1782829   -0.0086635    2.0218985  
O    7.9523725   -0.0106009    3.1638819  
C    7.6853528   -0.0207192    0.7392214  
H    7.8455658   -0.0389094   -2.3234797  
H    3.8192327    0.0238500    1.4521686  
H    6.1255035    0.0133026    4.1277465  
H    8.8784936   -0.0215793    2.9035307  
H    8.7565286   -0.0324764    0.5751402  
H    5.3410111   -0.0183875   -3.3212632  
C    3.2798077    0.0005856   -1.4499659  
C    2.5571132    0.0005565   -2.5996562  
C    1.1637425    0.0001548   -2.2210364  
C    1.1336957   -0.0000200   -0.7459472  
N    2.4483508   -0.0001429   -0.3402728  
C    0.0000000    0.0000000    0.0000000  
C   -1.2757370   -0.0000187   -0.6964410  
O   -2.3524597   -0.0000640   -0.1142306  
C   -1.2676501   -0.0000873   -2.2584079  
O   -2.3355772   -0.0004101   -2.8557287  
C    0.0181552    0.0001759   -2.9516296  
H    2.9547343    0.0006074   -3.5989115  
H    2.7563624    0.0012823    0.6148054  
C    2.4064676   -2.0119085   -6.1315545  
C    1.9558531   -1.6301623   -4.9138532  
C    0.8614652   -0.7121807   -5.1897594  
C    0.7870610   -0.6537471   -6.6654401  
N    1.6902123   -1.4136445   -7.2229915  
C   -0.1829404    0.1586453   -7.3467640  
C   -1.0399177    0.8795795   -6.5883591  
O   -1.9953695    1.6801939   -7.0905233  
C   -0.9902426    0.8414490   -5.0969705  
O   -1.8010697    1.5235046   -4.4704083  
C    0.0139724    0.0003878   -4.4216237  
H    2.3209532   -1.9340557   -3.9477133  
H   -0.2145070    0.1824697   -8.4262764  
H   -2.4403345    2.0553968   -6.3092541  
H    3.2136205   -2.6901813   -6.3583224  
C    2.5128556    2.1077716    2.9199648  
C    1.9592212    1.6432552    4.0696553  
C    0.8915788    0.7479214    3.6910360  
C    0.8684491    0.7287414    2.2159470  
N    1.8754542    1.5738793    1.8102719  
C    0.0000000    0.0000000    1.4700000  
C   -0.9772830   -0.8200135    2.1664417  
O   -1.8021297   -1.5120829    1.5842315  
C   -0.9711318   -0.8147624    3.7284083  
O   -1.7894187   -1.5009653    4.3257297  
C    0.0140216    0.0115358    4.4216297  
H    2.2638494    1.8988021    5.0689105  
H    0.0117648    0.0094386    5.5031631  
H    3.3327358    2.7953732    2.7900019  
H    2.1123206    1.7707734    0.8551938  
