62

C   -3.9040966    3.5925029    1.3724635  
C   -4.9055034    2.9416186    0.6898203  
C   -6.1400873    3.3369962    1.2848650  
C   -5.8265044    4.2380750    2.3344592  
N   -4.4602699    4.3695615    2.3615032  
C   -6.8038002    4.8304138    3.1399518  
C   -8.1216820    4.5074656    2.8809736  
O   -9.1160754    5.0576063    3.6369777  
C   -8.4545279    3.6101984    1.8384091  
O   -9.8099951    3.3896663    1.7064307  
C   -7.4909059    3.0252584    1.0435487  
H   -3.9458940    4.9536955    2.9956850  
H   -6.5713239    5.5178462    3.9415713  
H   -9.9471350    4.7038609    3.2942415  
H   -9.9486064    2.7730128    0.9810832  
H   -7.7761677    2.3415858    0.2525390  
H   -2.8370269    3.5628273    1.2330342  
C   -4.7116692    2.0166749   -0.4361492  
C   -3.5469193    1.6335915   -1.0090230  
C   -3.9344200    0.7158636   -2.0692675  
C   -5.4100250    0.6590253   -1.9921697  
N   -5.8713513    1.4195637   -1.0367911  
C   -6.1879620   -0.1526689   -2.8871849  
C   -5.5220673   -0.8744596   -3.8172046  
O   -6.1202839   -1.6745699   -4.7160937  
C   -4.0333913   -0.8379427   -3.9205068  
O   -3.4938790   -1.5207102   -4.7911249  
C   -3.2578655    0.0024282   -2.9908505  
H   -2.5481476    1.9364533   -0.7448158  
H   -7.2650566   -0.1753254   -2.8080458  
H   -5.3890867   -2.0506375   -5.2386608  
C    0.0000000    0.0000000    0.0000000  
C    1.0521666   -0.0011982   -0.8862343  
C    0.4917215   -0.0011996   -2.1979132  
C   -0.9187429    0.0003215   -2.0478682  
N   -1.1833171   -0.0009323   -0.7007913  
C   -1.7951703    0.0010483   -3.1372089  
C   -1.2375841    0.0005313   -4.4010422  
O   -2.0474218    0.0015510   -5.4997578  
C    0.1673576   -0.0013585   -4.5711963  
O    0.5673520   -0.0020735   -5.8915554  
C    1.0325768   -0.0023493   -3.4969892  
H    2.0953056   -0.0030808   -0.6200564  
H   -2.0989778    0.0102529   -0.2891822  
H   -1.4634888    0.0006601   -6.2693595  
H    1.5290707   -0.0033271   -5.9180047  
H    2.1042146   -0.0039770   -3.6584456  
C    3.2573670    0.0002920    2.9809380  
C    2.5379467    0.0001709    1.8291961  
C    1.1435042   -0.0000331    2.2038498  
C    1.1092607    0.0000083    3.6788474  
N    2.4227561   -0.0001909    4.0882609  
C   -0.0265533    0.0002524    4.4215661  
C   -1.3003036    0.0002640    3.7214979  
O   -2.3786784    0.0004133    4.3006425  
C   -1.2877726   -0.0000311    2.1595606  
O   -2.3539958   -0.0003306    1.5592035  
C    0.0000000    0.0000000    1.4700000  
H    2.9384090    0.0000368    0.8310761  
H   -0.0296291    0.0004086    5.5027230  
H    4.3270393    0.0004765    3.1139444  
H    2.7280493    0.0013407    5.0442112  
