60

C    4.7543797   -0.7380762   -7.3681591  
C    5.8881604   -0.7293557   -8.1472173  
C    6.0546252    0.6042043   -8.6252422  
C    4.9832079    1.3712968   -8.1003038  
N    4.2114880    0.5252499   -7.3431569  
C    4.8283134    2.7351913   -8.3659891  
C    5.7723736    3.3357159   -9.1761131  
O    5.6692525    4.6651934   -9.4674337  
C    6.8483316    2.5870732   -9.7096524  
O    7.7041463    3.3282148  -10.4980912  
C    7.0016140    1.2414634   -9.4481867  
H    6.5171716   -1.5798165   -8.3473536  
H    4.0138783    3.3254097   -7.9690772  
H    6.4183714    4.8783867  -10.0389527  
H    8.4017903    2.7482119  -10.8182371  
H    7.8358963    0.6941470   -9.8711462  
H    4.2892139   -1.5458151   -6.8295147  
C    2.8304417   -0.6884965   -3.3925843  
C    1.6707636   -0.0012343   -3.2725974  
C    1.5456304    0.7433279   -4.5161684  
C    2.7498706    0.3774787   -5.2924055  
N    3.5067377   -0.4616185   -4.6389091  
C    3.0025208    0.9125020   -6.6019869  
C    2.0932672    1.7735555   -7.1130437  
O    2.2014900    2.3487950   -8.3227659  
C    0.8678254    2.1620227   -6.3543962  
O    0.0833290    2.9508793   -6.8811712  
C    0.6312574    1.5996150   -5.0128827  
H    1.4067976    2.9064667   -8.4041229  
H   -0.2683269    1.9060259   -4.4960740  
H    3.2808702   -1.3606812   -2.6796642  
C    1.0965514    0.0001358   -0.8010306  
C    0.0000000    0.0000000    0.0000000  
C   -1.1546565    0.0001470   -0.8669508  
C   -0.6372019    0.0003520   -2.2486278  
N    0.7342867    0.0007338   -2.1395012  
C   -1.4147744    0.0001354   -3.3608712  
C   -2.8576052   -0.0001047   -3.1854454  
O   -3.6427785   -0.0002490   -4.1244896  
C   -3.4275841   -0.0000727   -1.7311660  
O   -4.6406832    0.0000333   -1.5710049  
C   -2.4891868   -0.0001090   -0.6116739  
H   -1.0150456    0.0001617   -4.3654239  
H   -2.8919122   -0.0002919    0.3920871  
H    2.1388270    0.0000663   -0.5261650  
C    0.8681109    0.7263879    2.2709268  
C    0.6127770    0.5096195    3.5869401  
C   -0.4920590   -0.4175482    3.6542670  
C   -0.8620974   -0.7254003    2.2596025  
N    0.0000000    0.0000000    1.4700000  
C   -1.8641242   -1.5660088    1.8976294  
C   -2.6293522   -2.2103885    2.9520183  
O   -3.5512764   -2.9839180    2.7283916  
C   -2.2549728   -1.8987399    4.4361073  
O   -2.8923672   -2.4351063    5.3323774  
C   -1.1543735   -0.9755647    4.7012123  
H    1.1382914    0.9492124    4.4159191  
H   -2.1192137   -1.7782617    0.8686553  
H   -0.9013378   -0.7652422    5.7314848  
H    1.6172880    1.3558399    1.8188057  
