60

C   -3.8501222    3.5896713    1.4732884  
C   -4.8653437    2.9383881    0.8117578  
C   -6.0873126    3.3328450    1.4328828  
C   -5.7521554    4.2337993    2.4758958  
N   -4.3857330    4.3661001    2.4741023  
C   -6.7125630    4.8253095    3.3020456  
C   -8.0354314    4.5016454    3.0708753  
O   -9.0139526    5.0509620    3.8478957  
C   -8.3897001    3.6044890    2.0352985  
O   -9.7475222    3.3831804    1.9319258  
C   -7.4427433    3.0203662    1.2200699  
H   -3.8584177    4.9503544    3.0974539  
H   -6.4636070    5.5126426    4.0987868  
H   -9.8518589    4.6968186    3.5226887  
H   -9.9010650    2.7666600    1.2094780  
H   -7.7442502    2.3367580    0.4350527  
H   -2.7862200    3.5606797    1.3113309  
C   -4.6947971    2.0138971   -0.3183440  
C   -3.5421862    1.6316857   -0.9158233  
C   -3.9514599    0.7140410   -1.9679274  
C   -5.4250718    0.6562916   -1.8596809  
N   -5.8665579    1.4162671   -0.8945302  
C   -6.2212658   -0.1556038   -2.7383085  
C   -5.5747442   -0.8767162   -3.6824171  
O   -6.1913473   -1.6769182   -4.5687122  
C   -4.0886060   -0.8392724   -3.8171447  
O   -3.5672064   -1.5214553   -4.6991819  
C   -3.2941076    0.0012878   -2.9038237  
H   -2.5382346    1.9350698   -0.6726877  
H   -7.2964342   -0.1789322   -2.6364322  
H   -5.4711325   -2.0523895   -5.1067314  
C    0.0000000    0.0000000    0.0000000  
C    1.0541688   -0.0001723   -0.8560392  
C    0.5103136   -0.0000455   -2.1935956  
C   -0.9576373    0.0002461   -2.0455730  
N   -1.2018460   -0.0001389   -0.6915968  
C   -1.8348314    0.0008319   -3.0810607  
C   -1.2972851    0.0009739   -4.4314603  
O   -2.0050676    0.0014268   -5.4301316  
C    0.2542619    0.0004184   -4.6117572  
O    0.7184666    0.0002257   -5.7439122  
C    1.0974551    0.0000873   -3.4189129  
H    2.0940752   -0.0005484   -0.5817983  
H    2.1707276   -0.0000912   -3.5523673  
H   -2.1128194    0.0014915   -0.2706789  
C    1.0965515   -0.0001358    2.2710304  
C    0.0000000    0.0000000    1.4700000  
C   -1.1546562   -0.0001469    2.3369512  
C   -0.6372014   -0.0003519    3.7186280  
N    0.7342871   -0.0007337    3.6095011  
C   -1.4147739   -0.0001353    4.8308716  
C   -2.8576048    0.0001048    4.6554461  
O   -3.6427778    0.0002493    5.5944904  
C   -3.4275839    0.0000726    3.2011665  
O   -4.6406829   -0.0000333    3.0410059  
C   -2.4891866    0.0001091    2.0816745  
H   -1.0150448   -0.0001615    5.8354244  
H   -2.8919121    0.0002919    1.0779135  
H    2.1388271   -0.0000662    1.9961646  
H    1.3735872    0.0006099    4.3830260  
