62

C    7.8608824   -3.7139721   -4.4070686  
C    8.5386804   -4.5162150   -3.5185508  
C    7.9022853   -4.3640894   -2.2510890  
C    6.8332618   -3.4490138   -2.4292801  
N    6.8375781   -3.0723533   -3.7494031  
C    5.9863140   -3.0630129   -1.3859817  
C    6.2226595   -3.6109863   -0.1401713  
O    5.4256035   -3.2688176    0.9136953  
C    7.2845270   -4.5253927    0.0575993  
O    7.3903264   -4.9821722    1.3550979  
C    8.1206261   -4.9064359   -0.9711237  
H    9.3880691   -5.1341151   -3.7546264  
H    5.1698854   -2.3659201   -1.5152428  
H    5.7589682   -3.7568045    1.6778962  
H    8.1310959   -5.5942243    1.4026205  
H    8.9257993   -5.6086659   -0.7893270  
H    8.0273092   -3.5475892   -5.4575812  
C    5.8833907   -2.1427750   -4.3709425  
C    5.8356977   -1.7363030   -5.6609364  
C    4.7031562   -0.8254383   -5.7255541  
C    4.1678915   -0.7979256   -4.3473967  
N    4.8557055   -1.5681390   -3.5488531  
C    3.0267438   -0.0008951   -3.9901699  
C    2.4469276    0.7354874   -4.9653053  
O    1.3760856    1.5245628   -4.7737363  
C    2.9639691    0.7291619   -6.3655869  
O    2.3865728    1.4237052   -7.2019144  
C    4.1358648   -0.0967014   -6.7069582  
H    6.4884966   -2.0195253   -6.4688448  
H    1.1970815    1.9160964   -5.6476995  
H    4.4795595   -0.0736381   -7.7324194  
C    3.3003547    0.0005277   -1.4738986  
C    2.5232816    0.0003497   -2.6090746  
C    1.1623203   -0.0001319   -2.1820102  
C    1.1711884    0.0000584   -0.7636141  
N    2.4852301   -0.0014919   -0.3662359  
C    0.0000000    0.0000000    0.0000000  
C   -1.2020383    0.0000520   -0.6806479  
O   -2.3759248    0.0003493    0.0157745  
C   -1.2314655   -0.0005115   -2.0955511  
O   -2.5054388   -0.0008040   -2.6250184  
C   -0.0764513   -0.0007274   -2.8495195  
H    2.8036266    0.0088183    0.5858662  
H   -3.0835639    0.0000346   -0.6418822  
H   -2.4360043   -0.0011529   -3.5845924  
H   -0.1304091   -0.0013423   -3.9319089  
H    4.3715553    0.0004897   -1.3667133  
C    0.8175213    0.6860729    2.3021913  
C    0.0000000    0.0000000    1.4700000  
C   -0.8887526   -0.7456559    2.3478473  
C   -0.4549825   -0.3816753    3.7138435  
N    0.5448156    0.4573574    3.6934124  
C   -1.0945674   -0.9182058    4.8835240  
C   -2.1210866   -1.7789155    4.6970523  
O   -2.8083856   -2.3554314    5.6976972  
C   -2.5824069   -2.1655116    3.3310774  
O   -3.5227682   -2.9541547    3.2362962  
C   -1.9100805   -1.6015804    2.1470656  
H   -0.7567140   -0.6349833    5.8697035  
H   -3.4728268   -2.9124471    5.2533954  
H   -2.2742832   -1.9066565    1.1752040  
H    1.6189533    1.3585343    2.0405121  
