60

C    4.3780853   -3.7049563   -6.4772850  
C    3.6284256   -3.0718420   -5.5131045  
C    4.1351026   -3.4935708   -4.2481840  
C    5.2027088   -4.3912309   -4.5057684  
N    5.3222864   -4.4986756   -5.8691372  
C    5.9374050   -5.0048756   -3.4867246  
C    5.5881915   -4.7066743   -2.1839184  
O    6.2728578   -5.2777681   -1.1504308  
C    4.5257753   -3.8137903   -1.9067060  
O    4.3000371   -3.6196185   -0.5596044  
C    3.8003712   -3.2082593   -2.9115179  
H    6.0029485   -5.0588289   -6.3496657  
H    6.7521074   -5.6900551   -3.6764349  
H    5.8734487   -4.9396560   -0.3383863  
H    3.5673720   -3.0041463   -0.4596061  
H    2.9917926   -2.5288342   -2.6684938  
H    4.3130380   -3.6542556   -7.5506704  
C    2.5185215   -2.1418780   -5.7664428  
C    2.0285777   -1.7344761   -6.9604104  
C    0.9435058   -0.8236405   -6.6295061  
C    0.9168304   -0.7971602   -5.1512739  
N    1.8378567   -1.5679052   -4.6397550  
C   -0.0307352   -0.0004646   -4.4215603  
C   -0.9113601    0.7365845   -5.1361187  
O   -1.8501211    1.5254496   -4.5861545  
C   -0.9094206    0.7313062   -6.6288105  
O   -1.7398708    1.4264157   -7.2139564  
C    0.0724707   -0.0942318   -7.3542764  
H    2.3623447   -2.0170704   -7.9441870  
H   -2.3197104    1.9176033   -5.3443459  
H    0.0410964   -0.0704039   -8.4353302  
C    3.2573670   -0.0002920   -1.5109380  
C    2.5379468   -0.0001709   -0.3591961  
C    1.1435043    0.0000332   -0.7338500  
C    1.1092609   -0.0000082   -2.2088477  
N    2.4227562    0.0001909   -2.6182613  
C   -0.0265532   -0.0002522   -2.9515663  
C   -1.3003035   -0.0002639   -2.2514981  
O   -2.3786784   -0.0004131   -2.8306429  
C   -1.2877725    0.0000312   -0.6895608  
O   -2.3539958    0.0003307   -0.0892036  
C    0.0000000    0.0000000    0.0000000  
H    2.9384091   -0.0000369    0.6389239  
H    4.3270394   -0.0004765   -1.6439446  
H    2.7280494   -0.0013406   -3.5742113  
C    0.8175213    0.6860729    2.3021913  
C    0.0000000    0.0000000    1.4700000  
C   -0.8887526   -0.7456559    2.3478473  
C   -0.4549825   -0.3816753    3.7138435  
N    0.5448156    0.4573574    3.6934124  
C   -1.0945674   -0.9182058    4.8835240  
C   -2.1210866   -1.7789155    4.6970523  
O   -2.8083856   -2.3554314    5.6976972  
C   -2.5824069   -2.1655116    3.3310774  
O   -3.5227682   -2.9541547    3.2362962  
C   -1.9100805   -1.6015804    2.1470656  
H   -0.7567140   -0.6349833    5.8697035  
H   -3.4728268   -2.9124471    5.2533954  
H   -2.2742832   -1.9066565    1.1752040  
H    1.6189533    1.3585343    2.0405121  
