60

C    4.2688971    0.5335273   -8.6187772  
C    5.3501024   -0.3167650   -8.5972063  
C    5.8943121   -0.3318305   -9.9156182  
C    5.0969056    0.5359108  -10.7049810  
N    4.1178872    1.0431730   -9.8871640  
C    5.3441540    0.7650010  -12.0618802  
C    6.4160868    0.1063441  -12.6322401  
O    6.7026380    0.2941467  -13.9534637  
C    7.2231473   -0.7637100  -11.8612175  
O    8.2518049   -1.3449044  -12.5735537  
C    6.9796539   -0.9903960  -10.5226182  
H    5.7024740   -0.8602575   -7.7372976  
H    3.4089312    1.6966650  -10.1670051  
H    4.7400650    1.4250337  -12.6690346  
H    7.4770334   -0.2507188  -14.1450318  
H    8.7477313   -1.9168548  -11.9798074  
H    7.6150332   -1.6624843   -9.9577566  
C    4.1680083   -0.6852557   -4.4364473  
C    3.1006054    0.0006263   -3.9654951  
C    2.5992455    0.7461595   -5.1097497  
C    3.5073874    0.3823239   -6.2185718  
N    4.4289475   -0.4565248   -5.8299207  
C    3.3454766    0.9187916   -7.5418528  
C    2.3225885    1.7793024   -7.7481423  
O    2.0538407    2.3557385   -8.9320073  
C    1.3888521    2.1657483   -6.6495262  
O    0.4799303    2.9542126   -6.9091516  
C    1.5758908    1.6018853   -5.3008229  
H    1.2721062    2.9126103   -8.7648590  
H    0.8781183    1.9068479   -4.5324859  
H    4.8160317   -1.3575813   -3.8969868  
C    3.2798083    0.0005857   -1.4499652  
C    2.5571142    0.0005565   -2.5996556  
C    1.1637432    0.0001548   -2.2210361  
C    1.1336964   -0.0000200   -0.7459473  
N    2.4483512   -0.0001428   -0.3402723  
C    0.0000000    0.0000000    0.0000000  
C   -1.2757368   -0.0000186   -0.6964415  
O   -2.3524598   -0.0000639   -0.1142311  
C   -1.2676497   -0.0000872   -2.2584083  
O   -2.3355766   -0.0004101   -2.8557295  
C    0.0181558    0.0001758   -2.9516296  
H    0.0150788    0.0003319   -4.0331631  
H    4.3498547    0.0008612   -1.3200026  
H    2.7563626    0.0012823    0.6148059  
C    0.8400945    0.7047457    2.2710304  
C    0.0000000    0.0000000    1.4700000  
C   -0.8844236   -0.7423113    2.3369512  
C   -0.4878984   -0.4098547    3.7186280  
N    0.5629682    0.4714286    3.6095011  
C   -1.0836927   -0.9095027    4.8308716  
C   -2.1891196   -1.8367527    4.6554461  
O   -2.7906899   -2.3413415    5.5944904  
C   -2.6257283   -2.2031529    3.2011665  
O   -3.5549479   -2.9829990    3.0410059  
C   -1.9068976   -1.5999348    2.0816745  
H   -0.7774656   -0.6525820    5.8354244  
H   -2.2155208   -1.8586617    1.0779135  
H    1.6384792    1.3747609    1.9961646  
H    1.0518368    0.8833920    4.3830260  
