60

C    1.4974551   -2.9825126   -9.3359521  
C    0.7361812   -1.9977293   -8.7501786  
C    0.9935453   -0.7912307   -9.4662267  
C    1.9276408   -1.1041040  -10.4867666  
N    2.2139045   -2.4423427  -10.3781937  
C    2.4096997   -0.1509146  -11.3888955  
C    1.9400122    1.1416012  -11.2586104  
O    2.3775070    2.1117081  -12.1133061  
C    1.0081320    1.4734119  -10.2465259  
O    0.6369814    2.8021671  -10.2466520  
C    0.5323426    0.5336369   -9.3560345  
H    0.0773434   -2.1321558   -7.9094317  
H    2.8388225   -2.9525008  -10.9758521  
H    3.1217843   -0.3829509  -12.1688293  
H    1.9320422    2.9278246  -11.8510484  
H    0.0065563    2.9419326   -9.5334671  
H    1.5871497   -4.0271824   -9.0918636  
C    0.2574168   -0.6856121   -5.1816669  
C   -0.8287665    0.0000939   -4.7555305  
C   -1.2821017    0.7456923   -5.9196050  
C   -0.3285010    0.3820836   -6.9896606  
N    0.5761659   -0.4566990   -6.5630338  
C   -0.4351970    0.9186760   -8.3184834  
C   -1.4487055    1.7790892   -8.5671271  
O   -1.6679598    2.3556225   -9.7611025  
C   -2.4274560    2.1653065   -7.5083327  
O   -3.3248656    2.9536924   -7.8055255  
C   -2.2967100    1.6013192   -6.1530661  
H   -2.4560473    2.9123843   -9.6266159  
H   -3.0259293    1.9061168   -5.4144402  
H    0.8824803   -1.3579201   -4.6157423  
C    1.0672569   -0.0000698   -0.8321910  
C    0.0000000    0.0000000    0.0000000  
C   -1.1601223   -0.0000736   -0.8778472  
C   -0.5938729   -0.0000768   -2.2438435  
N    0.7113367   -0.0001553   -2.2234123  
C   -1.4286985   -0.0001877   -3.4135239  
C   -2.7683113   -0.0006798   -3.2270524  
O   -3.6653902   -0.0008302   -4.2276970  
C   -3.3702024   -0.0010610   -1.8610774  
O   -4.5974910   -0.0013779   -1.7662963  
C   -2.4926825   -0.0008943   -0.6770658  
H   -4.5324245   -0.0012258   -3.7833954  
H   -2.9677772   -0.0012974    0.2947961  
H    2.1134391   -0.0000547   -0.5705119  
C    2.4951002    2.0940188    2.9809380  
C    1.9440701    1.6314916    1.8291961  
C    0.8759964    0.7350050    2.2038498  
C    0.8497377    0.7130254    3.6788474  
N    1.8560616    1.5571714    4.0882609  
C   -0.0205033   -0.0168748    4.4215661  
C   -0.9962600   -0.8356168    3.7214979  
O   -1.8224391   -1.5286685    4.3006425  
C   -0.9864710   -0.8277881    2.1595606  
O   -1.8030528   -1.5133726    1.5592035  
C    0.0000000    0.0000000    1.4700000  
H    2.2509283    1.8888011    0.8310761  
H   -0.0229599   -0.0187323    5.5027230  
H    3.3143982    2.7817323    3.1139444  
H    2.0889452    1.7545833    5.0442112  
