62

C    0.0000000    0.0000000    0.0000000  
C   -1.0521661   -0.0016538   -0.8862343  
C   -0.4917231   -0.0001333   -2.1979132  
C    0.9187399    0.0021685   -2.0478684  
N    1.1833105    0.0041394   -0.7007914  
C    1.7951667    0.0038172   -3.1372092  
C    1.2375807    0.0028227   -4.4010426  
O    2.0474180    0.0039981   -5.4997578  
C   -0.1673610    0.0009044   -4.5711964  
O   -0.5673558    0.0005354   -5.8915554  
C   -1.0325794   -0.0004496   -3.4969891  
H   -2.0953062   -0.0025985   -0.6200564  
H    2.0989968   -0.0045638   -0.2891829  
H    2.8710889    0.0057184   -3.0295514  
H    1.4634847    0.0033061   -6.2693595  
H   -1.5290744   -0.0008175   -5.9180049  
C   -2.4861732   -0.0021816   -3.7159923  
C   -3.4897101   -0.0035377   -2.8011223  
C   -4.7313140   -0.0049723   -3.5381794  
C   -4.3662463   -0.0043654   -4.9676955  
N   -2.9909993   -0.0022646   -5.0074605  
C   -5.2594907   -0.0057387   -5.9893685  
C   -6.6749026   -0.0077367   -5.6590061  
O   -7.5569816   -0.0090172   -6.5076735  
C   -7.0843393   -0.0081590   -4.1516350  
O   -8.2730160   -0.0095290   -3.8612812  
C   -6.0304283   -0.0068382   -3.1401404  
H   -3.3734565   -0.0033513   -1.7319644  
H   -4.9706926   -0.0053910   -7.0312447  
H   -2.4390593   -0.0029499   -5.8455594  
C   -4.4352210    2.0890251    0.4037417  
C   -4.6543614    1.6263223   -0.8540176  
C   -5.7826746    0.7282708   -0.7815838  
C   -6.2059701    0.7055641    0.6316026  
N   -5.3486307    1.5508265    1.2974782  
C   -7.2433465   -0.0258167    1.1118498  
C   -7.9928523   -0.8454989    0.1743547  
O   -8.9437101   -1.5398971    0.5089907  
C   -7.5619347   -0.8369237   -1.3269920  
O   -8.1852627   -1.5232881   -2.1255072  
C   -6.4271208   -0.0075288   -1.7246777  
H   -4.0898912    1.8844998   -1.7322725  
H   -7.5374687   -0.0281853    2.1522326  
H   -3.6831614    2.7777417    0.7529783  
H   -5.3826310    1.7480923    2.2808283  
C    3.3003543   -0.0005276    2.9438989  
C    2.5232812   -0.0003497    4.0790748  
C    1.1623199    0.0001319    3.6520102  
C    1.1711883   -0.0000583    2.2336141  
N    2.4852299    0.0014920    1.8362361  
C    0.0000000    0.0000000    1.4700000  
C   -1.2020384   -0.0000520    2.1506477  
O   -2.3759250   -0.0003494    1.4542253  
C   -1.2314658    0.0005113    3.5655508  
O   -2.5054393    0.0008037    4.0950179  
C   -0.0764518    0.0007272    4.3195194  
H    2.8919952    0.0005619    5.0905303  
H    2.8036267   -0.0088181    0.8841339  
H   -3.0835639   -0.0000348    2.1118817  
H   -2.4360050    0.0011527    5.0545920  
H   -0.1304098    0.0013421    5.4019087  
H    4.3715549   -0.0004895    2.8367138  
