60

C   10.9611461   -2.1268033   -0.2721865  
C    9.7166694   -1.6641623   -0.6323382  
C    9.9049493   -0.7762085   -1.7326512  
C   11.2970071   -0.7365012   -2.0019583  
N   11.9092577   -1.5662975   -1.0957547  
C   11.8473271    0.0400825   -3.0260934  
C   10.9764801    0.7900128   -3.7925182  
O   11.4604352    1.5658988   -4.8058311  
C    9.5844043    0.7639043   -3.5390257  
O    8.8496257    1.5651422   -4.3884149  
C    9.0408288   -0.0017741   -2.5286850  
H    8.7875806   -1.9326942   -0.1593921  
H   12.8955600   -1.7480624   -1.0493828  
H   12.9074157    0.0748049   -3.2363592  
H   10.6958831    1.9993951   -5.2068383  
H    7.9206661    1.4900123   -4.1496824  
H   11.2476224   -2.8111482    0.5079176  
C    6.7921791   -0.0024531    1.2037504  
C    5.5119024   -0.0013790    0.7650370  
C    5.6127416   -0.0007798   -0.6862834  
C    7.0661036   -0.0015329   -0.9589053  
N    7.7625298   -0.0025956    0.1451683  
C    7.5891403   -0.0012859   -2.2973816  
C    6.7006579   -0.0007190   -3.3171529  
O    7.0481214   -0.0004248   -4.6153474  
C    5.2278291   -0.0003233   -3.0743868  
O    4.4775289    0.0003121   -4.0502301  
C    4.7161325   -0.0005435   -1.6923264  
H    4.6104185   -0.0011262    1.3535969  
H    6.2020980   -0.0000591   -5.0984586  
H    7.1449934   -0.0031694    2.2228162  
C    3.2573665   -0.0002920   -1.5109385  
C    2.5379463   -0.0001709   -0.3591964  
C    1.1435038    0.0000331   -0.7338500  
C    1.1092599   -0.0000083   -2.2088477  
N    2.4227553    0.0001909   -2.6182613  
C   -0.0265539   -0.0002524   -2.9515660  
C   -1.3003040   -0.0002640   -2.2514977  
O   -2.3786790   -0.0004133   -2.8306421  
C   -1.2877727    0.0000311   -0.6895603  
O   -2.3539959    0.0003306   -0.0892030  
C    0.0000000    0.0000000    0.0000000  
H    2.9384091   -0.0000367    0.6389234  
H   -0.0296303   -0.0004086   -4.0327229  
H    2.7280482   -0.0013407   -3.5742119  
C    2.5528530    2.1414826    2.8079335  
C    2.0663498    1.7338582    4.0032312  
C    0.9804344    0.8229586    3.6752840  
C    0.9495562    0.7966882    2.1971295  
N    1.8690446    1.5676019    1.6831036  
C    0.0000000    0.0000000    1.4700000  
C   -0.8785127   -0.7372425    2.1869543  
O   -1.8187535   -1.5261249    1.6395491  
C   -0.8723269   -0.7321790    3.6796354  
O   -1.7010379   -1.4274584    4.2670412  
C    0.1115397    0.0933559    4.4024240  
H    2.4028853    2.0163452    4.9860947  
H   -2.2861435   -1.9184361    2.3990168  
H    0.0832434    0.0693689    5.4835595  
H    3.3664920    2.8238276    2.6198634  
