66

C    1.9074116   -2.1157068   -5.2171214  
C    1.7366767   -1.6153236   -6.4871348  
C    0.6103641   -0.7412456   -6.4423309  
C    0.1310752   -0.7480686   -5.1073547  
N    0.9400194   -1.5942803   -4.3903106  
C   -0.9736297    0.0040464   -4.6965763  
C   -1.6058298    0.7773678   -5.6507645  
O   -2.6892500    1.5315498   -5.3037413  
C   -1.1427628    0.7971174   -6.9879237  
O   -1.8787348    1.6162792   -7.8189839  
C   -0.0531708    0.0551805   -7.3939358  
H    0.8493706   -1.7918998   -3.4101523  
H   -2.9736278    1.9867686   -6.1069657  
H   -1.5003142    1.5722375   -8.7024221  
H    0.2783222    0.0903615   -8.4251255  
H    2.6418356   -2.8044017   -4.8359664  
C    3.0813456   -3.1829362   -7.9414013  
C    3.8261534   -3.1117360   -9.0958101  
C    3.7751869   -1.7576655   -9.5413390  
C    2.9781858   -1.0430313   -8.6107420  
N    2.5713807   -1.9386689   -7.6531613  
C    2.7123478    0.3239266   -8.7354224  
C    3.2613254    0.9815069   -9.8191149  
O    3.0338565    2.3165900   -9.9888941  
C    4.0589186    0.2857453  -10.7585710  
O    4.5327748    1.0802950  -11.7820436  
C    4.3213671   -1.0628498  -10.6363472  
H    4.3417579   -3.9347633   -9.5603208  
H    2.1055846    0.8743363   -8.0296676  
H    3.5009492    2.5728355  -10.7947659  
H    5.0613030    0.5337758  -12.3716006  
H    4.9357380   -1.5688732  -11.3718517  
H    2.8723515   -4.0231357   -7.3015999  
C    1.1188642    0.0008222   -0.8003808  
C    0.0000000    0.0000000    0.0000000  
C   -1.1323862    0.0008899   -0.8673528  
C   -0.6382663    0.0019679   -2.1969280  
N    0.7324016    0.0038481   -2.1202242  
C   -1.4770914    0.0027318   -3.3154808  
C   -2.8395473    0.0020945   -3.0876857  
O   -3.7039201    0.0024425   -4.1440349  
C   -3.3517868    0.0013931   -1.7684331  
O   -4.7300497    0.0012366   -1.7073121  
C   -2.5248543    0.0009123   -0.6644817  
H    1.3576314   -0.0056167   -2.9057046  
H   -4.5940032    0.0021826   -3.7685128  
H   -4.9934602    0.0007259   -0.7819913  
H   -2.9462577    0.0005603    0.3339659  
H    2.1619895    0.0009355   -0.5342068  
C    0.8676693    0.7151171    2.2619005  
C    0.5875920    0.4624972    3.5848544  
C   -0.5048400   -0.4542819    3.6114698  
C   -0.8517165   -0.7276451    2.2635546  
N    0.0000000    0.0000000    1.4700000  
C   -1.8902865   -1.5946756    1.9108239  
C   -2.5912627   -2.1969500    2.9375057  
O   -3.6148162   -3.0527051    2.6493466  
C   -2.2603868   -1.9365747    4.2886322  
O   -3.0513550   -2.6123276    5.1947621  
C   -1.2361111   -1.0811317    4.6373480  
H    1.1060808    0.8876438    4.4271209  
H   -2.1597133   -1.8070987    0.8854031  
H   -3.9636755   -3.3565188    3.4974381  
H   -2.7621927   -2.3810384    6.0827341  
H   -1.0058879   -0.9010589    5.6809233  
H    1.6167816    1.3499334    1.8205408  
