62

C    9.7809635   -0.6672415   -2.5275729  
C    9.1102918    0.0460788   -3.4939281  
C   10.0900376    0.7845471   -4.2215020  
C   11.3513691    0.4789240   -3.6491707  
N   11.1274646   -0.4038505   -2.6219446  
C   12.5478567    1.0303483   -4.1172906  
C   12.4696441    1.9060186   -5.1827778  
O   13.6074214    2.4730281   -5.6797456  
C   11.2204371    2.2237021   -5.7670486  
O   11.3086958    3.1114406   -6.8194153  
C   10.0396419    1.6802935   -5.3055798  
H   11.8377091   -0.8069789   -2.0379740  
H   13.5123775    0.8015865   -3.6853516  
H   13.3321352    3.0431612   -6.4094229  
H   10.4221635    3.2724508   -7.1566690  
H    9.0978254    1.9426017   -5.7731855  
H    9.4052171   -1.3419549   -1.7775488  
C    5.6407192    0.0091026   -0.6742914  
C    6.9070543    0.0224092   -1.2115854  
C    6.7574900    0.0226664   -2.6301166  
C    5.3654025    0.0093900   -2.9018581  
N    4.7161325   -0.0005435   -1.6923264  
C    4.8484273    0.0062156   -4.2009017  
C    5.7532359    0.0169402   -5.2446379  
O    5.3026531    0.0147677   -6.5330413  
C    7.1459667    0.0298829   -4.9937407  
O    7.9168099    0.0390839   -6.1378821  
C    7.6566883    0.0327485   -3.7124593  
H    7.8256166    0.0297822   -0.6501741  
H    3.7885253   -0.0040267   -4.4146879  
H    6.0871916    0.0231701   -7.0966844  
H    8.8436750    0.0475806   -5.8800996  
H    5.3238920    0.0042838    0.3545704  
C    3.2573665   -0.0002920   -1.5109385  
C    2.5379463   -0.0001709   -0.3591964  
C    1.1435038    0.0000331   -0.7338500  
C    1.1092599   -0.0000083   -2.2088477  
N    2.4227553    0.0001909   -2.6182613  
C   -0.0265539   -0.0002524   -2.9515660  
C   -1.3003040   -0.0002640   -2.2514977  
O   -2.3786790   -0.0004133   -2.8306421  
C   -1.2877727    0.0000311   -0.6895603  
O   -2.3539959    0.0003306   -0.0892030  
C    0.0000000    0.0000000    0.0000000  
H    2.9384091   -0.0000367    0.6389234  
H   -0.0296303   -0.0004086   -4.0327229  
H    2.7280482   -0.0013407   -3.5742119  
C    0.0000000    0.0000000    1.4700000  
C    1.0541688    0.0001722    2.3260392  
C    0.5103138    0.0000454    3.6635956  
C   -0.9576371   -0.0002459    3.5155732  
N   -1.2018458    0.0001392    2.1615969  
C   -1.8348311   -0.0008317    4.5510609  
C   -1.2972847   -0.0009736    5.9014604  
O   -2.0050672   -0.0014265    6.9001319  
C    0.2542623   -0.0004184    6.0817573  
O    0.7184670   -0.0002256    7.2139121  
C    1.0974552   -0.0000873    4.8889129  
H    2.0940752    0.0005483    2.0517982  
H   -2.9081052   -0.0011668    4.4207061  
H    2.1707277    0.0000911    5.0223670  
H   -2.1128194   -0.0014912    1.7406791  
