62

C    2.9574919   -0.0031016   -7.1333220  
C    3.5299055   -0.0054329   -5.8824007  
C    4.9437123   -0.0069977   -6.0714711  
C    5.1765117   -0.0052186   -7.4706590  
N    3.9493324   -0.0048217   -8.0860017  
C    6.4606299   -0.0057682   -8.0236797  
C    7.5292026   -0.0078503   -7.1482789  
O    8.8045368   -0.0081221   -7.6346292  
C    7.3172558   -0.0100221   -5.7490330  
O    8.4824577   -0.0123628   -5.0103560  
C    6.0507193   -0.0097546   -5.2027639  
H    2.9943354   -0.0070481   -4.9485082  
H    3.7977297    0.0069127   -9.0784027  
H    6.6447639   -0.0045647   -9.0891812  
H    9.3898485   -0.0099791   -6.8660769  
H    8.2506323   -0.0137004   -4.0766228  
H    5.9195682   -0.0116360   -4.1269973  
C   -0.8287671    0.0000935   -4.7555305  
C    0.4934748   -0.0006597   -5.1351930  
C    0.5171462   -0.0005563   -6.5613907  
C   -0.8317450    0.0005673   -7.0000451  
N   -1.6230471   -0.0010138   -5.8782354  
C   -1.1872834    0.0012736   -8.3522208  
C   -0.1624541    0.0011448   -9.2784519  
O   -0.4533751    0.0021632  -10.6120096  
C    1.1896019   -0.0003450   -8.8604089  
O    2.0936297   -0.0007027   -9.9025596  
C    1.5410843   -0.0013157   -7.5266237  
H    1.3371561   -0.0023206   -4.4664686  
H   -2.6269690    0.0098531   -5.8761615  
H   -2.2134625    0.0019868   -8.6930394  
H    0.3938023    0.0015725  -11.0762892  
H    2.9824062   -0.0017000   -9.5342132  
C    1.0672566   -0.0000698   -0.8321912  
C    0.0000000    0.0000000    0.0000000  
C   -1.1601226   -0.0000736   -0.8778472  
C   -0.5938732   -0.0000770   -2.2438435  
N    0.7113365   -0.0001555   -2.2234123  
C   -1.4286989   -0.0001880   -3.4135239  
C   -2.7683117   -0.0006800   -3.2270522  
O   -3.6653907   -0.0008306   -4.2276967  
C   -3.3702026   -0.0010611   -1.8610771  
O   -4.5974909   -0.0013781   -1.7662957  
C   -2.4926826   -0.0008944   -0.6770655  
H   -4.5324249   -0.0012263   -3.7833950  
H   -2.9677773   -0.0012975    0.2947963  
H    2.1134390   -0.0000546   -0.5705121  
C    0.0000000    0.0000000    1.4700000  
C    1.0541688    0.0001722    2.3260392  
C    0.5103138    0.0000454    3.6635956  
C   -0.9576371   -0.0002459    3.5155732  
N   -1.2018458    0.0001392    2.1615969  
C   -1.8348311   -0.0008317    4.5510609  
C   -1.2972847   -0.0009736    5.9014604  
O   -2.0050672   -0.0014265    6.9001319  
C    0.2542623   -0.0004184    6.0817573  
O    0.7184670   -0.0002256    7.2139121  
C    1.0974552   -0.0000873    4.8889129  
H    2.0940752    0.0005483    2.0517982  
H   -2.9081052   -0.0011668    4.4207061  
H    2.1707277    0.0000911    5.0223670  
H   -2.1128194   -0.0014912    1.7406791  
