64

C    3.4983190   -0.7222781   -6.0927738  
C    2.9574919   -0.0030885   -7.1333220  
C    4.0260871    0.7240827   -7.7365854  
C    5.2053278    0.4058363   -7.0154495  
N    4.8490509   -0.4732608   -6.0230422  
C    6.4555794    0.9439993   -7.3348884  
C    6.5165564    1.8191413   -8.4019344  
O    7.7122002    2.3734747   -8.7571307  
C    5.3509260    2.1493049   -9.1334489  
O    5.5756709    3.0347694  -10.1672702  
C    4.1171430    1.6189824   -8.8187075  
H    5.4788574   -0.8831634   -5.3572307  
H    7.3580718    0.7055773   -6.7891189  
H    7.5335696    2.9455930   -9.5147821  
H    4.7383755    3.2047346  -10.6095954  
H    3.2418701    1.8906650   -9.3971227  
H    3.0271810   -1.3920596   -5.3939316  
C   -0.8287671    0.0000935   -4.7555305  
C    0.4934746   -0.0006542   -5.1351926  
C    0.5171464   -0.0005536   -6.5613906  
C   -0.8317450    0.0005630   -7.0000446  
N   -1.6230471   -0.0010197   -5.8782354  
C   -1.1872830    0.0012650   -8.3522206  
C   -0.1624539    0.0011390   -9.2784518  
O   -0.4533747    0.0021534  -10.6120094  
C    1.1896019   -0.0003435   -8.8604089  
O    2.0936303   -0.0006992   -9.9025603  
C    1.5410844   -0.0013100   -7.5266236  
H    1.3371561   -0.0023098   -4.4664686  
H   -2.6269690    0.0098426   -5.8761615  
H   -2.2134625    0.0019725   -8.6930394  
H    0.3938023    0.0015662  -11.0762892  
H    2.9824063   -0.0016915   -9.5342131  
C    1.0672566   -0.0000698   -0.8321912  
C    0.0000000    0.0000000    0.0000000  
C   -1.1601226   -0.0000736   -0.8778472  
C   -0.5938732   -0.0000770   -2.2438435  
N    0.7113365   -0.0001555   -2.2234123  
C   -1.4286989   -0.0001880   -3.4135239  
C   -2.7683117   -0.0006800   -3.2270522  
O   -3.6653907   -0.0008306   -4.2276967  
C   -3.3702026   -0.0010611   -1.8610771  
O   -4.5974909   -0.0013781   -1.7662957  
C   -2.4926826   -0.0008944   -0.6770655  
H   -4.5324249   -0.0012263   -3.7833950  
H   -2.9677773   -0.0012975    0.2947963  
H    2.1134390   -0.0000546   -0.5705121  
C    0.8676693    0.7151171    2.2619005  
C    0.5875920    0.4624972    3.5848544  
C   -0.5048400   -0.4542819    3.6114698  
C   -0.8517165   -0.7276451    2.2635546  
N    0.0000000    0.0000000    1.4700000  
C   -1.8902865   -1.5946756    1.9108239  
C   -2.5912627   -2.1969500    2.9375057  
O   -3.6148162   -3.0527051    2.6493466  
C   -2.2603868   -1.9365747    4.2886322  
O   -3.0513550   -2.6123276    5.1947621  
C   -1.2361111   -1.0811317    4.6373480  
H    1.1060808    0.8876438    4.4271209  
H   -2.1597133   -1.8070987    0.8854031  
H   -3.9636755   -3.3565188    3.4974381  
H   -2.7621927   -2.3810384    6.0827341  
H   -1.0058879   -0.9010589    5.6809233  
H    1.6167816    1.3499334    1.8205408  
