64

C    7.5887591   -0.9955266   -4.4178127  
C    8.8664633   -0.5827788   -4.7171118  
C    8.8027878    0.8198728   -4.9683373  
C    7.4490148    1.2107801   -4.8058007  
N    6.7385876    0.0840298   -4.4736199  
C    7.0168402    2.5293986   -4.9768559  
C    7.9686815    3.4705984   -5.3179115  
O    7.6012740    4.7729113   -5.4968135  
C    9.3242496    3.0999806   -5.4849319  
O   10.1501238    4.1514600   -5.8250316  
C    9.7512665    1.7992699   -5.3166059  
H    9.7370895   -1.2151008   -4.7513581  
H    5.9864904    2.8337467   -4.8545743  
H    8.4064164    5.2546072   -5.7269862  
H   11.0469101    3.8158762   -5.9186286  
H   10.7961674    1.5453515   -5.4514634  
H    7.2163724   -1.9748357   -4.1703454  
C    4.3172189   -2.1276213   -1.4346674  
C    5.3517550   -1.6299841   -2.1926639  
C    4.7753711   -0.7549583   -3.1605024  
C    3.3738278   -0.7584001   -2.9423472  
N    3.1294640   -1.6035967   -1.8885227  
C    2.4861704   -0.0045255   -3.7159919  
C    3.0231741    0.7671115   -4.7281092  
O    2.2016879    1.5228926   -5.5135824  
C    4.4189003    0.7834870   -4.9615577  
O    4.7982355    1.6013212   -6.0058733  
C    5.2951626    0.0398126   -4.1989051  
H    6.3935663   -1.8691800   -2.0645687  
H    2.2250248   -1.7989300   -1.4988871  
H    2.7718794    1.9765076   -6.1479166  
H    5.7549244    1.5549959   -6.0964457  
H    4.3324695   -2.8160055   -0.6071083  
C    0.0000000    0.0000000    0.0000000  
C    1.0521669   -0.0011848   -0.8862341  
C    0.4917221   -0.0011931   -2.1979130  
C   -0.9187427    0.0003100   -2.0478683  
N   -1.1833170   -0.0009472   -0.7007915  
C   -1.7951698    0.0010259   -3.1372090  
C   -1.2375835    0.0005161   -4.4010425  
O   -2.0474208    0.0015256   -5.4997580  
C    0.1673584   -0.0013557   -4.5711962  
O    0.5673529   -0.0020659   -5.8915551  
C    1.0325773   -0.0023359   -3.4969890  
H    2.0953059   -0.0030542   -0.6200560  
H   -2.0989777    0.0102265   -0.2891825  
H   -2.8710930    0.0020274   -3.0295514  
H   -1.4634881    0.0006427   -6.2693593  
H    1.5290715   -0.0033076   -5.9180042  
C    1.0672568    0.0000697    2.3021913  
C    0.0000000    0.0000000    1.4700000  
C   -1.1601224    0.0000736    2.3478473  
C   -0.5938729    0.0000769    3.7138435  
N    0.7113367    0.0001554    3.6934124  
C   -1.4286986    0.0001879    4.8835240  
C   -2.7683114    0.0006799    4.6970523  
O   -3.6653903    0.0008304    5.6976972  
C   -3.3702025    0.0010610    3.3310774  
O   -4.5974910    0.0013779    3.2362962  
C   -2.4926826    0.0008943    2.1470656  
H   -0.9878360   -0.0000190    5.8697035  
H   -4.5324246    0.0012261    5.2533954  
H   -2.9677772    0.0012974    1.1752040  
H    2.1134392    0.0000545    2.0405121  
