64

C    9.9207525   -0.7174207   -1.6559538  
C    8.9839866    0.0004455   -2.3627814  
C    9.6883089    0.7289739   -3.3666634  
C   11.0635358    0.4128810   -3.2225802  
N   11.1698828   -0.4662943   -2.1736005  
C   12.0541840    0.9528145   -4.0483384  
C   11.6491370    1.8275455   -5.0377625  
O   12.5750823    2.3835483   -5.8723263  
C   10.2817164    2.1555715   -5.1970652  
O   10.0387975    3.0408922   -6.2268907  
C    9.3039055    1.6235015   -4.3826251  
H   12.0253998   -0.8749139   -1.8432943  
H   13.1040259    0.7160379   -3.9436003  
H   12.0871855    2.9550339   -6.4794711  
H    9.0923984    3.2093614   -6.2662748  
H    8.2645523    1.8935654   -4.5285324  
H    9.7968625   -1.3875955   -0.8226020  
C    6.6540972   -0.0013091    1.3962729  
C    5.4018071   -0.0015694    0.8268552  
C    5.5874904   -0.0008946   -0.5874013  
C    6.9861183   -0.0005210   -0.8235502  
N    7.6043962    0.0011648    0.4021525  
C    7.5360617   -0.0001390   -2.1089881  
C    6.6581048   -0.0004411   -3.1754633  
O    7.1413992   -0.0004415   -4.4519583  
C    5.2593677   -0.0004399   -2.9601678  
O    4.5179016   -0.0003362   -4.1235989  
C    4.7161325   -0.0005435   -1.6923264  
H    4.4691976   -0.0010661    1.3646588  
H    8.5971759   -0.0087721    0.5513882  
H    6.3714457   -0.0003763   -5.0354278  
H    3.5847247   -0.0003700   -3.8895380  
H    6.9446144   -0.0012466    2.4328822  
C    3.2573665   -0.0002920   -1.5109385  
C    2.5379463   -0.0001709   -0.3591964  
C    1.1435038    0.0000331   -0.7338500  
C    1.1092599   -0.0000083   -2.2088477  
N    2.4227553    0.0001909   -2.6182613  
C   -0.0265539   -0.0002524   -2.9515660  
C   -1.3003040   -0.0002640   -2.2514977  
O   -2.3786790   -0.0004133   -2.8306421  
C   -1.2877727    0.0000311   -0.6895603  
O   -2.3539959    0.0003306   -0.0892030  
C    0.0000000    0.0000000    0.0000000  
H    2.9384091   -0.0000367    0.6389234  
H   -0.0296303   -0.0004086   -4.0327229  
H    2.7280482   -0.0013407   -3.5742119  
C    0.0000000    0.0000000    1.4700000  
C    1.0521667    0.0011902    2.3562342  
C    0.4917218    0.0011957    3.6679131  
C   -0.9187428   -0.0003148    3.5178682  
N   -1.1833171    0.0009411    2.1707914  
C   -1.7951701   -0.0010350    4.6072090  
C   -1.2375837   -0.0005224    5.8710424  
O   -2.0474215   -0.0015360    6.9697579  
C    0.1673580    0.0013566    6.0411963  
O    0.5673524    0.0020687    7.3615553  
C    1.0325770    0.0023412    4.9669890  
H    2.0953057    0.0030649    2.0900562  
H   -2.0989778   -0.0102372    1.7591824  
H   -2.8710934   -0.0020419    4.4995513  
H   -1.4634884   -0.0006497    7.7393593  
H    1.5290710    0.0033153    7.3880045  
H    2.1042148    0.0039609    5.1284455  
