62

C    4.1688916   -3.7010152   -6.5810264  
C    3.4652985   -3.0686353   -5.5822669  
C    4.0308190   -3.4912167   -4.3428271  
C    5.0851918   -4.3886162   -4.6508832  
N    5.1406351   -4.4950923   -6.0184380  
C    5.8669447   -5.0029235   -3.6678890  
C    5.5792676   -4.7056651   -2.3499142  
O    6.3117220   -5.2774355   -1.3501134  
C    4.5310007   -3.8130552   -2.0224989  
O    4.3687465   -3.6198484   -0.6661479  
C    3.7591982   -3.2068709   -2.9917188  
H    5.7980101   -5.0548569   -6.5307877  
H    6.6718704   -5.6879090   -3.8961223  
H    5.9508630   -4.9399246   -0.5199742  
H    3.6415588   -3.0045010   -0.5314283  
H    2.9628929   -2.5276770   -2.7105220  
H    4.0535212   -3.6495638   -7.6501384  
C    2.3446867   -2.1385756   -5.7825620  
C    1.7992126   -1.7303697   -6.9519228  
C    0.7308350   -0.8198476   -6.5697989  
C    0.7735872   -0.7944097   -5.0919259  
N    1.7176442   -1.5654463   -4.6247557  
C   -0.1387079    0.0017019   -4.3179684  
C   -1.0519387    0.7391884   -4.9898748  
O   -1.9638775    1.5275967   -4.3958873  
C   -1.1200794    0.7349610   -6.4810151  
O   -1.9771136    1.4304206   -7.0260370  
C   -0.1732958   -0.0899934   -7.2523615  
H    2.0864373   -2.0122467   -7.9504840  
H   -2.4685602    1.9202492   -5.1309193  
H   -0.2553893   -0.0654070   -8.3307328  
C    3.3041273    0.0001178   -1.5420428  
C    2.5845373   -0.0004780   -0.3695851  
C    1.2040007   -0.0000007   -0.7283589  
C    1.1422374    0.0006038   -2.1454372  
N    2.4348641    0.0026111   -2.6077464  
C   -0.0655179    0.0008799   -2.8497918  
C   -1.2321766    0.0002325   -2.1101402  
O   -2.4392814    0.0001148   -2.7472522  
C   -1.1911209   -0.0000007   -0.6955266  
O   -2.4371528   -0.0002320   -0.1032862  
C    0.0000000    0.0000000    0.0000000  
H    3.0031533   -0.0000660    0.6222584  
H    2.7054631   -0.0071097   -3.5745261  
H   -3.1132988   -0.0000648   -2.0551787  
H   -2.3200282   -0.0004072    0.8516409  
H    4.3686625    0.0004073   -1.7024290  
C    2.5128556    2.1077716    2.9199648  
C    1.9592212    1.6432552    4.0696553  
C    0.8915788    0.7479214    3.6910360  
C    0.8684491    0.7287414    2.2159470  
N    1.8754542    1.5738793    1.8102719  
C    0.0000000    0.0000000    1.4700000  
C   -0.9772830   -0.8200135    2.1664417  
O   -1.8021297   -1.5120829    1.5842315  
C   -0.9711318   -0.8147624    3.7284083  
O   -1.7894187   -1.5009653    4.3257297  
C    0.0140216    0.0115358    4.4216297  
H    2.2638494    1.8988021    5.0689105  
H    0.0117648    0.0094386    5.5031631  
H    3.3327358    2.7953732    2.7900019  
H    2.1123206    1.7707734    0.8551938  
