60

C    7.5297004   -4.3032422   -1.2208849  
C    8.5728021   -4.9135778   -1.8780732  
C    8.5327135   -4.4636915   -3.2310683  
C    7.4345638   -3.5726807   -3.3410458  
N    6.8461819   -3.4993578   -2.1028825  
C    7.0941059   -2.9361411   -4.5384154  
C    7.8766592   -3.2037151   -5.6448476  
O    7.5889265   -2.6088007   -6.8391256  
C    8.9762709   -4.0900702   -5.5551482  
O    9.6571051   -4.2532258   -6.7439239  
C    9.3125598   -4.7185949   -4.3743040  
H    9.2754279   -5.5996126   -1.4368618  
H    6.0484835   -2.9351722   -1.8718986  
H    8.2480291   -2.9281908   -7.4690762  
H   10.3838040   -4.8662512   -6.5965682  
H   10.1603511   -5.3925923   -4.3361623  
H    7.2183312   -4.3788510   -0.1931251  
C    5.9578470   -2.0116383   -4.6613364  
C    5.0861939   -1.6298118   -3.6990431  
C    4.1732077   -0.7119468   -4.3627297  
C    4.6536430   -0.6536620   -5.7600017  
N    5.6994882   -1.4135389   -5.9410642  
C    4.0070656    0.1585847   -6.7536207  
C    2.9292841    0.8795215   -6.3689497  
O    2.2294977    1.6800090   -7.1908744  
C    2.4200484    0.8415393   -4.9663106  
O    1.4341935    1.5235886   -4.6868117  
C    3.1006054    0.0006263   -3.9654951  
H    5.0652943   -1.9335816   -2.6663948  
H    4.3797396    0.1823022   -7.7672580  
H    1.5255996    2.0552509   -6.6315231  
C    3.2798083    0.0005857   -1.4499652  
C    2.5571142    0.0005565   -2.5996556  
C    1.1637432    0.0001548   -2.2210361  
C    1.1336964   -0.0000200   -0.7459473  
N    2.4483512   -0.0001428   -0.3402723  
C    0.0000000    0.0000000    0.0000000  
C   -1.2757368   -0.0000186   -0.6964415  
O   -2.3524598   -0.0000639   -0.1142311  
C   -1.2676497   -0.0000872   -2.2584083  
O   -2.3355766   -0.0004101   -2.8557295  
C    0.0181558    0.0001758   -2.9516296  
H    0.0150788    0.0003319   -4.0331631  
H    4.3498547    0.0008612   -1.3200026  
H    2.7563626    0.0012823    0.6148059  
C    0.8400945    0.7047457    2.2710304  
C    0.0000000    0.0000000    1.4700000  
C   -0.8844236   -0.7423113    2.3369512  
C   -0.4878984   -0.4098547    3.7186280  
N    0.5629682    0.4714286    3.6095011  
C   -1.0836927   -0.9095027    4.8308716  
C   -2.1891196   -1.8367527    4.6554461  
O   -2.7906899   -2.3413415    5.5944904  
C   -2.6257283   -2.2031529    3.2011665  
O   -3.5549479   -2.9829990    3.0410059  
C   -1.9068976   -1.5999348    2.0816745  
H   -0.7774656   -0.6525820    5.8354244  
H   -2.2155208   -1.8586617    1.0779135  
H    1.6384792    1.3747609    1.9961646  
H    1.0518368    0.8833920    4.3830260  
