60

C    5.5764312    0.0162910   -1.0737990  
C    6.7919958    0.0263692   -1.7178235  
C    6.5213119    0.0157775   -3.1182583  
C    5.1110655   -0.0004850   -3.2694781  
N    4.5679461   -0.0016852   -2.0086700  
C    4.4845782   -0.0138475   -4.5193276  
C    5.2965137   -0.0104295   -5.6368819  
O    4.7370851   -0.0226656   -6.8818327  
C    6.7056139    0.0053416   -5.5064817  
O    7.3754679    0.0063860   -6.7125655  
C    7.3243470    0.0182566   -4.2737895  
H    7.7553163    0.0386081   -1.2373465  
H    3.4102598   -0.0264157   -4.6413244  
H    5.4703764   -0.0180120   -7.5107429  
H    8.3210162    0.0174528   -6.5353096  
H    8.4058491    0.0300186   -4.2052793  
H    5.3490261    0.0190576   -0.0215454  
C    3.1301152   -0.0010311   -1.7028251  
C    2.5367770   -0.0002766   -0.4864665  
C    1.1089905    0.0001028   -0.7656183  
C    1.0177873   -0.0004148   -2.2415130  
N    2.1993580   -0.0011610   -2.7963820  
C   -0.2459208   -0.0002877   -2.9257119  
C   -1.3675318   -0.0000605   -2.1698523  
O   -2.6129310    0.0000866   -2.6748492  
C   -1.3083584    0.0000911   -0.6783232  
O   -2.3693259    0.0004206   -0.0541692  
C    0.0000000    0.0000000    0.0000000  
H    3.0096019   -0.0001007    0.4807529  
H   -3.1967440    0.0002093   -1.8949035  
C    2.2088388   -2.1426203   -5.8191635  
C    1.6816921   -1.7351239   -6.9971461  
C    0.6077912   -0.8240078   -6.6323121  
C    0.6276219   -0.7974852   -5.1539730  
N    1.5640856   -1.5684496   -4.6716460  
C   -0.2963281   -0.0005339   -4.3948471  
C   -1.1988036    0.7367192   -5.0813821  
O   -2.1196078    1.5258332   -4.5021938  
C   -1.2438073    0.7314048   -6.5733970  
O   -2.0920741    1.4267091   -7.1321600  
C   -0.2854223   -0.0943976   -7.3293553  
H    1.9842863   -2.0178255   -7.9909228  
H   -2.6127094    1.9180867   -5.2452553  
H   -0.3507714   -0.0705874   -8.4088886  
H    3.0283507   -2.8250548   -5.6589869  
C    0.8681109    0.7263879    2.2709268  
C    0.6127770    0.5096195    3.5869401  
C   -0.4920590   -0.4175482    3.6542670  
C   -0.8620974   -0.7254003    2.2596025  
N    0.0000000    0.0000000    1.4700000  
C   -1.8641242   -1.5660088    1.8976294  
C   -2.6293522   -2.2103885    2.9520183  
O   -3.5512764   -2.9839180    2.7283916  
C   -2.2549728   -1.8987399    4.4361073  
O   -2.8923672   -2.4351063    5.3323774  
C   -1.1543735   -0.9755647    4.7012123  
H    1.1382914    0.9492124    4.4159191  
H   -2.1192137   -1.7782617    0.8686553  
H   -0.9013378   -0.7652422    5.7314848  
H    1.6172880    1.3558399    1.8188057  
