62

C    5.9234423   -0.7158352   -0.5947387  
C    6.5520371   -0.4675386    0.6034625  
C    7.6180070    0.4411307    0.3339670  
C    7.5903206    0.7142315   -1.0576418  
N    6.5505903   -0.0057729   -1.5916569  
C    8.5016830    1.5741971   -1.6778564  
C    9.4582355    2.1695457   -0.8786412  
O   10.3724801    3.0182362   -1.4326235  
C    9.5022939    1.9093092    0.5117376  
O   10.5135187    2.5776780    1.1705621  
C    8.6036982    1.0608327    1.1242242  
H    6.2768846   -0.8902941    1.5545470  
H    8.4859899    1.7863794   -2.7380138  
H   10.9395433    3.3180286   -0.7102468  
H   10.4729745    2.3470092    2.1037036  
H    8.6622826    0.8806802    2.1912723  
H    5.0782503   -1.3443687   -0.8173467  
C    2.5562217   -0.0001551   -3.6003001  
C    3.5655126   -0.0016889   -2.6655291  
C    4.7980129   -0.0018055   -3.3835427  
C    4.4750737   -0.0000051   -4.7647141  
N    3.1056446   -0.0009893   -4.8610468  
C    5.4479449    0.0007003   -5.7688602  
C    6.7709221   -0.0001255   -5.3714827  
O    7.7613130    0.0008591   -6.3107046  
C    7.1131347   -0.0022966   -3.9982737  
O    8.4727604   -0.0033017   -3.7642589  
C    6.1538987   -0.0032667   -3.0071177  
H    3.4300844   -0.0037159   -1.5975178  
H    2.5841976    0.0104289   -5.7189186  
H    5.2083492    0.0019270   -6.8232765  
H    8.5970864   -0.0002634   -5.8261977  
H    8.6176764   -0.0047331   -2.8131539  
C    0.0000000    0.0000000    0.0000000  
C    1.0541688   -0.0001722   -0.8560390  
C    0.5103141   -0.0000453   -2.1935955  
C   -0.9576367    0.0002460   -2.0455731  
N   -1.2018459   -0.0001392   -0.6915969  
C   -1.8348307    0.0008318   -3.0810611  
C   -1.2972843    0.0009738   -4.4314606  
O   -2.0050665    0.0014267   -5.4301321  
C    0.2542628    0.0004186   -4.6117570  
O    0.7184676    0.0002258   -5.7439117  
C    1.0974555    0.0000874   -3.4189127  
H    2.0940752   -0.0005483   -0.5817978  
H   -2.9081051    0.0011670   -2.9507061  
H   -2.1128194    0.0014912   -0.2706792  
C    3.2573670    0.0002920    2.9809380  
C    2.5379467    0.0001709    1.8291961  
C    1.1435042   -0.0000331    2.2038498  
C    1.1092607    0.0000083    3.6788474  
N    2.4227561   -0.0001909    4.0882609  
C   -0.0265533    0.0002524    4.4215661  
C   -1.3003036    0.0002640    3.7214979  
O   -2.3786784    0.0004133    4.3006425  
C   -1.2877726   -0.0000311    2.1595606  
O   -2.3539958   -0.0003306    1.5592035  
C    0.0000000    0.0000000    1.4700000  
H    2.9384090    0.0000368    0.8310761  
H   -0.0296291    0.0004086    5.5027230  
H    4.3270393    0.0004765    3.1139444  
H    2.7280493    0.0013407    5.0442112  
