64

C   -3.0265997   -0.0294220   -3.9901710  
C   -4.3186069   -0.0412078   -4.4624480  
C   -4.2413142   -0.0388993   -5.8867445  
C   -2.8648267   -0.0256970   -6.2288462  
N   -2.1549313   -0.0182735   -5.0538530  
C   -2.4145256   -0.0203305   -7.5524736  
C   -3.3712051   -0.0287464   -8.5489031  
O   -2.9866692   -0.0243737   -9.8585307  
C   -4.7493946   -0.0415761   -8.2275846  
O   -5.5773829   -0.0483379   -9.3310944  
C   -5.1943522   -0.0466034   -6.9220143  
H   -5.2074590   -0.0492398   -3.8551008  
H   -1.1536137   -0.0190880   -4.9807540  
H   -1.3668500   -0.0101318   -7.8198213  
H   -3.7988390   -0.0314065  -10.3815956  
H   -6.4899566   -0.0569272   -9.0265634  
C   -3.3001833   -0.0335852   -1.4738997  
C   -2.5231508   -0.0256239   -2.6090755  
C   -1.1622625   -0.0115104   -2.1820103  
C   -1.1711287   -0.0117894   -0.7636142  
N   -2.4851201   -0.0234013   -0.3662366  
C    0.0000000    0.0000000    0.0000000  
C    1.2019791    0.0119881   -0.6806475  
O    2.3758095    0.0234488    0.0157748  
C    1.2313995    0.0128461   -2.0955507  
O    2.5053060    0.0258992   -2.6250176  
C    0.0764409    0.0014929   -2.8495198  
H   -2.8033978   -0.0369000    0.5858652  
H    3.0834098    0.0308514   -0.6418812  
H    2.4358718    0.0255527   -3.5845918  
H    0.1303906    0.0026483   -3.9319089  
H   -4.3713306   -0.0442768   -1.3667143  
C   -7.2553963    0.6525014   -5.6297926  
C   -6.6349820   -0.0597355   -6.6299284  
C   -7.6507296   -0.7968830   -7.3077708  
C   -8.8812284   -0.4916076   -6.6716835  
N   -8.6050618    0.3896967   -5.6559815  
C  -10.1001809   -1.0419891   -7.0791442  
C  -10.0765621   -1.9162399   -8.1483989  
O  -11.2383517   -2.4821878   -8.5876749  
C   -8.8587825   -2.2335562   -8.7958103  
O   -9.0007584   -3.1198360   -9.8435201  
C   -7.6558440   -1.6911752   -8.3942048  
H   -9.2845536    0.7922744   -5.0361399  
H  -11.0414154   -0.8134854   -6.5984532  
H  -11.0007247   -3.0514246   -9.3311586  
H   -8.1325723   -3.2806901  -10.2255966  
H   -6.7391094   -1.9531695   -8.9094094  
H   -6.8417532    1.3260692   -4.8989266  
C    2.5128556    2.1077716    2.9199648  
C    1.9592212    1.6432552    4.0696553  
C    0.8915788    0.7479214    3.6910360  
C    0.8684491    0.7287414    2.2159470  
N    1.8754542    1.5738793    1.8102719  
C    0.0000000    0.0000000    1.4700000  
C   -0.9772830   -0.8200135    2.1664417  
O   -1.8021297   -1.5120829    1.5842315  
C   -0.9711318   -0.8147624    3.7284083  
O   -1.7894187   -1.5009653    4.3257297  
C    0.0140216    0.0115358    4.4216297  
H    2.2638494    1.8988021    5.0689105  
H    0.0117648    0.0094386    5.5031631  
H    3.3327358    2.7953732    2.7900019  
H    2.1123206    1.7707734    0.8551938  
