62

C    6.0856325    0.7170662   -5.9796735  
C    6.0039385    0.4689582   -7.3303167  
C    7.0560669   -0.4391451   -7.6512140  
C    7.7523299   -0.7121110   -6.4459618  
N    7.1383751    0.0074266   -5.4510034  
C    8.8535308   -1.5715510   -6.3867236  
C    9.2590612   -2.1665033   -7.5656020  
O   10.3284620   -3.0146739   -7.5645357  
C    8.5774507   -1.9063931   -8.7782719  
O    9.1024251   -2.5743230   -9.8652928  
C    7.4911797   -1.0584349   -8.8375024  
H    5.2762902    0.8914733   -8.0018836  
H    9.3885819   -1.7836277   -5.4713303  
H   10.4402590   -3.3142576   -8.4761360  
H    8.5849367   -2.3437746  -10.6428896  
H    6.9892871   -0.8783671   -9.7809844  
H    5.4771345    1.3451977   -5.3518681  
C    4.7577216    0.0005129   -1.7610467  
C    5.7612594   -0.0009799   -0.8461782  
C    7.0028639    0.0003064   -1.5832347  
C    6.6377948    0.0027175   -3.0127484  
N    5.2625469    0.0023277   -3.0525144  
C    7.5310407    0.0048719   -4.0344198  
C    8.9464538    0.0045862   -3.7040580  
O    9.8285332    0.0063487   -4.5527240  
C    9.3558922    0.0017970   -2.1966900  
O   10.5445698    0.0012258   -1.9063371  
C    8.3019807   -0.0000950   -1.1851962  
H    5.6450064   -0.0029594    0.2229780  
H    8.5938430   -0.0018164   -0.1437852  
H    4.7106076    0.0051849   -3.8906086  
C    3.3041270    0.0001177   -1.5420435  
C    2.5845370   -0.0004780   -0.3695856  
C    1.2040004   -0.0000007   -0.7283590  
C    1.1422370    0.0006038   -2.1454373  
N    2.4348634    0.0026110   -2.6077469  
C   -0.0655187    0.0008799   -2.8497918  
C   -1.2321769    0.0002326   -2.1101398  
O   -2.4392822    0.0001149   -2.7472517  
C   -1.1911211   -0.0000007   -0.6955263  
O   -2.4371526   -0.0002319   -0.1032858  
C    0.0000000    0.0000000    0.0000000  
H    3.0031534   -0.0000661    0.6222578  
H    2.7054623   -0.0071098   -3.5745266  
H   -0.1193555    0.0014846   -3.9297472  
H   -3.1132992   -0.0000646   -2.0551783  
H   -2.3200279   -0.0004070    0.8516411  
C    2.5128556    2.1077716    2.9199648  
C    1.9592212    1.6432552    4.0696553  
C    0.8915788    0.7479214    3.6910360  
C    0.8684491    0.7287414    2.2159470  
N    1.8754542    1.5738793    1.8102719  
C    0.0000000    0.0000000    1.4700000  
C   -0.9772830   -0.8200135    2.1664417  
O   -1.8021297   -1.5120829    1.5842315  
C   -0.9711318   -0.8147624    3.7284083  
O   -1.7894187   -1.5009653    4.3257297  
C    0.0140216    0.0115358    4.4216297  
H    2.2638494    1.8988021    5.0689105  
H    0.0117648    0.0094386    5.5031631  
H    3.3327358    2.7953732    2.7900019  
H    2.1123206    1.7707734    0.8551938  
