62

C    1.5998959   -4.5197536   -6.7861975  
C    0.8738431   -3.4149596   -6.4057446  
C    1.2473531   -2.3504603   -7.2786317  
C    2.2127437   -2.8696592   -8.1788417  
N    2.4050796   -4.1887662   -7.8508462  
C    2.8036939   -2.0964478   -9.1826891  
C    2.4127453   -0.7751154   -9.2797383  
O    2.9578352    0.0246351  -10.2421784  
C    1.4512489   -0.2386736   -8.3905977  
O    1.1678701    1.0926552   -8.6155505  
C    0.8680465   -1.0008110   -7.3998672  
H    0.1633153   -3.3802392   -5.5976987  
H    3.0267792   -4.8196406   -8.3235676  
H    3.5401623   -2.4861629   -9.8718476  
H    2.5529216    0.8952048  -10.1353216  
H    0.5103630    1.3764358   -7.9730888  
H    1.6081606   -5.5172825   -6.3814424  
C   -0.2208272   -0.6524176   -5.1346212  
C   -1.2456329    0.0471727   -4.5828766  
C   -1.8635343    0.7999336   -5.6488900  
C   -1.1093182    0.4792271   -6.8757132  
N   -0.1268911   -0.4059223   -6.4959277  
C   -1.3831929    0.9908180   -8.1024863  
C   -2.4948521    1.9194408   -8.2225243  
O   -2.8209724    2.4343803   -9.2840247  
C   -3.3072325    2.2735258   -6.9362635  
O   -4.2451139    3.0544077   -7.0249352  
C   -2.9168444    1.6579633   -5.6703520  
H   -0.8175713    0.7423918   -8.9897665  
H   -3.4845597    1.9082094   -4.7844623  
H    0.4738209   -1.3271520   -4.6612429  
C    1.1243410    0.0099923   -0.7919003  
C    0.7474076    0.0234544   -2.1148543  
C   -0.6787381    0.0234490   -2.1414700  
C   -1.1201745    0.0098592   -0.7935546  
N    0.0000000    0.0000000    0.0000000  
C   -2.4730816    0.0063709   -0.4408240  
C   -3.3971958    0.0170982   -1.4675058  
O   -4.7313517    0.0146259   -1.1793471  
C   -2.9763648    0.0303504   -2.8186324  
O   -4.0166480    0.0395118   -3.7247624  
C   -1.6418562    0.0335260   -3.1673481  
H    1.4178717    0.0310972   -2.9571209  
H   -2.8160166   -0.0041111    0.5845966  
H   -5.1938818    0.0230867   -2.0274384  
H   -3.6464675    0.0482293   -4.6127343  
H    2.1062467    0.0052819   -0.3505407  
C    0.0000000    0.0000000    1.4700000  
C    1.0541688    0.0001722    2.3260392  
C    0.5103138    0.0000454    3.6635956  
C   -0.9576371   -0.0002459    3.5155732  
N   -1.2018458    0.0001392    2.1615969  
C   -1.8348311   -0.0008317    4.5510609  
C   -1.2972847   -0.0009736    5.9014604  
O   -2.0050672   -0.0014265    6.9001319  
C    0.2542623   -0.0004184    6.0817573  
O    0.7184670   -0.0002256    7.2139121  
C    1.0974552   -0.0000873    4.8889129  
H    2.0940752    0.0005483    2.0517982  
H   -2.9081052   -0.0011668    4.4207061  
H    2.1707277    0.0000911    5.0223670  
H   -2.1128194   -0.0014912    1.7406791  
