62

C   -1.1160430    0.1367147   -0.7919006  
C   -0.7440838    0.0742130   -2.1148547  
C    0.6698844   -0.1117602   -2.1414702  
C    1.1093231   -0.1558529   -0.7935554  
N    0.0000000    0.0000000    0.0000000  
C    2.4511324   -0.3288224   -0.4408241  
C    3.3659559   -0.4599683   -1.4675061  
O    4.6890413   -0.6315000   -1.1793474  
C    2.9469908   -0.4182284   -2.8186328  
O    3.9771956   -0.5629708   -3.7247626  
C    1.6234638   -0.2473479   -3.1673483  
H   -1.4098189    0.1540686   -2.9571210  
H    2.7925060   -0.3631511    0.5845968  
H    5.1465185   -0.7002053   -2.0274390  
H    3.6090395   -0.5233399   -4.6127350  
H   -2.0889494    0.2694317   -0.3505409  
C    1.2288445   -0.2092078   -4.5828767  
C   -0.0070474   -0.0516108   -5.1230711  
C    0.1529330   -0.0867917   -6.5576456  
C    1.5936622   -0.2792115   -6.8107562  
N    2.1902611   -0.3452836   -5.5727767  
C    2.1528152   -0.3654413   -8.0442944  
C    1.2772431   -0.2615951   -9.1997699  
O    1.6846084   -0.3269184  -10.3521964  
C   -0.2519008   -0.0573537   -8.9552088  
O   -0.9988437    0.0317544   -9.9202978  
C   -0.7363940    0.0201797   -7.5793066  
H   -0.9258782    0.0750329   -4.5787134  
H    3.2121115   -0.5068219   -8.2080421  
H    3.1724876   -0.4746693   -5.4129719  
C   -2.9497000    2.4668364   -4.6812926  
C   -4.2196367    2.1619200   -5.0532623  
C   -4.1241823    1.2352229   -6.1564201  
C   -2.6842117    1.0237094   -6.3983650  
N   -2.0264551    1.7987632   -5.4712525  
C   -2.1773202    0.2122386   -7.3607999  
C   -3.1123919   -0.5002073   -8.2155496  
O   -2.7547262   -1.2543537   -9.1108931  
C   -4.6418654   -0.2909866   -7.9773420  
O   -5.4386608   -0.8852724   -8.6909261  
C   -5.0669812    0.6091760   -6.9083070  
H   -5.1204596    2.5428555   -4.6060261  
H   -6.1277333    0.7484237   -6.7497541  
H   -2.6106001    3.1235548   -3.8966769  
H   -1.0293332    1.8668726   -5.3809426  
C    0.8676693    0.7151171    2.2619005  
C    0.5875920    0.4624972    3.5848544  
C   -0.5048400   -0.4542819    3.6114698  
C   -0.8517165   -0.7276451    2.2635546  
N    0.0000000    0.0000000    1.4700000  
C   -1.8902865   -1.5946756    1.9108239  
C   -2.5912627   -2.1969500    2.9375057  
O   -3.6148162   -3.0527051    2.6493466  
C   -2.2603868   -1.9365747    4.2886322  
O   -3.0513550   -2.6123276    5.1947621  
C   -1.2361111   -1.0811317    4.6373480  
H    1.1060808    0.8876438    4.4271209  
H   -2.1597133   -1.8070987    0.8854031  
H   -3.9636755   -3.3565188    3.4974381  
H   -2.7621927   -2.3810384    6.0827341  
H   -1.0058879   -0.9010589    5.6809233  
H    1.6167816    1.3499334    1.8205408  
