62

C   -0.5599406    0.0937521   -8.7060545  
C    0.1776140   -0.5547780   -9.6693247  
C   -0.3453860   -0.1538001  -10.9343502  
C   -1.4096458    0.7481116  -10.6777709  
N   -1.5143468    0.8746880   -9.3148216  
C   -2.1570947    1.3455115  -11.6971943  
C   -1.8239164    1.0268627  -12.9993593  
O   -2.5210528    1.5820338  -14.0331866  
C   -0.7655695    0.1288458  -13.2755540  
O   -0.5568681   -0.0870122  -14.6221036  
C   -0.0279425   -0.4610862  -12.2703621  
H    0.9916517   -1.2342317   -9.4831043  
H   -2.1758534    1.4581448   -8.8352724  
H   -2.9695158    2.0336055  -11.5082471  
H   -2.1320691    1.2306624  -14.8446635  
H    0.1741700   -0.7045250  -14.7214263  
H    0.7769025   -1.1452086  -12.5125998  
C    2.1798964   -2.1221799   -5.9542194  
C    1.5460051   -1.6229247   -7.0683974  
C    0.5185213   -0.7482577   -6.6059748  
C    0.5740703   -0.7535762   -5.1886487  
N    1.5926022   -1.5994965   -4.8258419  
C   -0.2963293   -0.0005341   -4.3948471  
C   -1.2397987    0.7721841   -5.0436536  
O   -2.1143392    1.5272221   -4.3169415  
C   -1.3112054    0.7904348   -6.4569424  
O   -2.3047783    1.6091616   -6.9527679  
C   -0.4530328    0.0475827   -7.2406751  
H    1.7929871   -1.8608392   -8.0888834  
H    1.8756082   -1.7961380   -3.8828567  
H   -2.6787920    1.9818132   -4.9556939  
H   -2.2847552    1.5640944   -7.9135858  
H    3.0035531   -2.8108673   -5.8751165  
C    3.1301146   -0.0010313   -1.7028256  
C    2.5367765   -0.0002766   -0.4864669  
C    1.1089901    0.0001027   -0.7656184  
C    1.0177865   -0.0004150   -2.2415133  
N    2.1993571   -0.0011612   -2.7963824  
C   -0.2459219   -0.0002879   -2.9257116  
C   -1.3675326   -0.0000606   -2.1698520  
O   -2.6129318    0.0000865   -2.6748483  
C   -1.3083588    0.0000910   -0.6783229  
O   -2.3693264    0.0004206   -0.0541685  
C    0.0000000    0.0000000    0.0000000  
H    3.0096016   -0.0001007    0.4807518  
H   -3.1967444    0.0002093   -1.8949026  
H    4.1849275   -0.0015114   -1.9271979  
C    0.8175213    0.6860729    2.3021913  
C    0.0000000    0.0000000    1.4700000  
C   -0.8887526   -0.7456559    2.3478473  
C   -0.4549825   -0.3816753    3.7138435  
N    0.5448156    0.4573574    3.6934124  
C   -1.0945674   -0.9182058    4.8835240  
C   -2.1210866   -1.7789155    4.6970523  
O   -2.8083856   -2.3554314    5.6976972  
C   -2.5824069   -2.1655116    3.3310774  
O   -3.5227682   -2.9541547    3.2362962  
C   -1.9100805   -1.6015804    2.1470656  
H   -0.7567140   -0.6349833    5.8697035  
H   -3.4728268   -2.9124471    5.2533954  
H   -2.2742832   -1.9066565    1.1752040  
H    1.6189533    1.3585343    2.0405121  
