60

C    5.2789757   -1.1457901   -8.7201260  
C    5.6808325   -0.7434023   -9.9727494  
C    5.4356598    0.6591684  -10.0581062  
C    4.8791116    1.0607058   -8.8167569  
N    4.7958797   -0.0599119   -8.0281473  
C    4.5128430    2.3822177   -8.5442806  
C    4.7123170    3.3154345   -9.5430271  
O    4.3726193    4.6201315   -9.3299937  
C    5.2659882    2.9341629  -10.7883778  
O    5.4016860    3.9786169  -11.6794703  
C    5.6273008    1.6305920  -11.0579733  
H    6.0982004   -1.3824029  -10.7320092  
H    4.0880502    2.6946530   -7.6002804  
H    4.5906800    5.0952059  -10.1424092  
H    5.7822657    3.6360227  -12.4939591  
H    6.0489078    1.3684478  -12.0213044  
H    5.2974039   -2.1217202   -8.2660560  
C    5.9676388   -2.1403202   -4.2647280  
C    5.9574583   -1.7327294   -5.5552103  
C    4.8270664   -0.8220463   -5.6520101  
C    4.2518653   -0.7958519   -4.2900112  
N    4.9163000   -1.5666196   -3.4724335  
C    3.1006054    0.0006263   -3.9654951  
C    2.5492762    0.7377402   -4.9564714  
O    1.4731211    1.5264226   -4.7955003  
C    3.1069015    0.7327486   -6.3410976  
O    2.5539560    1.4279024   -7.1932907  
C    4.2884409   -0.0925700   -6.6488938  
H    6.6335875   -2.0151072   -6.3439990  
H    1.3195669    1.9186832   -5.6739683  
H    6.6542207   -2.8225235   -3.7891473  
C    3.2798083    0.0005857   -1.4499652  
C    2.5571142    0.0005565   -2.5996556  
C    1.1637432    0.0001548   -2.2210361  
C    1.1336964   -0.0000200   -0.7459473  
N    2.4483512   -0.0001428   -0.3402723  
C    0.0000000    0.0000000    0.0000000  
C   -1.2757368   -0.0000186   -0.6964415  
O   -2.3524598   -0.0000639   -0.1142311  
C   -1.2676497   -0.0000872   -2.2584083  
O   -2.3355766   -0.0004101   -2.8557295  
C    0.0181558    0.0001758   -2.9516296  
H    0.0150788    0.0003319   -4.0331631  
H    4.3498547    0.0008612   -1.3200026  
H    2.7563626    0.0012823    0.6148059  
C    0.8175213    0.6860729    2.3021913  
C    0.0000000    0.0000000    1.4700000  
C   -0.8887526   -0.7456559    2.3478473  
C   -0.4549825   -0.3816753    3.7138435  
N    0.5448156    0.4573574    3.6934124  
C   -1.0945674   -0.9182058    4.8835240  
C   -2.1210866   -1.7789155    4.6970523  
O   -2.8083856   -2.3554314    5.6976972  
C   -2.5824069   -2.1655116    3.3310774  
O   -3.5227682   -2.9541547    3.2362962  
C   -1.9100805   -1.6015804    2.1470656  
H   -0.7567140   -0.6349833    5.8697035  
H   -3.4728268   -2.9124471    5.2533954  
H   -2.2742832   -1.9066565    1.1752040  
H    1.6189533    1.3585343    2.0405121  
