60

C    9.9042189    0.7133187   -4.1774620  
C   11.2533919    0.4650890   -4.0745943  
C   11.4279994   -0.4433901   -2.9888790  
C   10.1391589   -0.7164491   -2.4632802  
N    9.2370983    0.0033964   -3.2067356  
C    9.9304926   -1.5762387   -1.3806862  
C   11.0431446   -2.1714519   -0.8186327  
O   10.8964389   -3.0199681    0.2403815  
C   12.3373381   -1.9112541   -1.3287086  
O   13.3427221   -2.5794729   -0.6608532  
C   12.5439641   -1.0629512   -2.3965168  
H   12.0177997    0.8877656   -4.7038944  
H    8.9507640   -1.7883883   -0.9753149  
H   11.7843114   -3.3196881    0.4751470  
H   14.1835466   -2.3488424   -1.0675797  
H   13.5470035   -0.8828242   -2.7652250  
H    9.3651438    1.3417159   -4.8655563  
C    6.8354437    0.0008785   -4.0255229  
C    5.5758880    0.0005992   -3.5179857  
C    5.7016160    0.0007905   -2.0795742  
C    7.1480383    0.0012364   -1.7886230  
N    7.7802454    0.0008702   -3.0105899  
C    7.6812948    0.0019204   -0.5406879  
C    6.7698185    0.0020123    0.5914546  
O    7.1520246    0.0025454    1.7543039  
C    5.2340026    0.0012939    0.3067213  
O    4.4569011    0.0010578    1.2519060  
C    4.7795901    0.0008674   -1.0815733  
H    4.6629019    0.0001118   -4.0863788  
H    8.7453471    0.0023685   -0.3491106  
H    7.1529577    0.0008730   -5.0556078  
C    3.3321168    0.0004716   -1.3379341  
C    2.6974177    0.0000118   -2.5332316  
C    1.2800432   -0.0002116   -2.2052842  
C    1.2395033    0.0000644   -0.7271298  
N    2.4394059    0.0005460   -0.2131041  
C    0.0000000    0.0000000    0.0000000  
C   -1.1468704    0.0000635   -0.7169542  
O   -2.3742206    0.0000074   -0.1695488  
C   -1.1388774    0.0001608   -2.2096352  
O   -2.2206238    0.0000906   -2.7970409  
C    0.1454514    0.0001818   -2.9324241  
H    3.1367978   -0.0000649   -3.5160956  
H   -2.9844350    0.0001027   -0.9290164  
H    0.1083567    0.0003684   -4.0135594  
C    0.8175213    0.6860729    2.3021913  
C    0.0000000    0.0000000    1.4700000  
C   -0.8887526   -0.7456559    2.3478473  
C   -0.4549825   -0.3816753    3.7138435  
N    0.5448156    0.4573574    3.6934124  
C   -1.0945674   -0.9182058    4.8835240  
C   -2.1210866   -1.7789155    4.6970523  
O   -2.8083856   -2.3554314    5.6976972  
C   -2.5824069   -2.1655116    3.3310774  
O   -3.5227682   -2.9541547    3.2362962  
C   -1.9100805   -1.6015804    2.1470656  
H   -0.7567140   -0.6349833    5.8697035  
H   -3.4728268   -2.9124471    5.2533954  
H   -2.2742832   -1.9066565    1.1752040  
H    1.6189533    1.3585343    2.0405121  
