66

C    1.1188646    0.0008225   -0.8003808  
C    0.0000000    0.0000000    0.0000000  
C   -1.1323861    0.0008895   -0.8673529  
C   -0.6382655    0.0019675   -2.1969285  
N    0.7324023    0.0038482   -2.1202242  
C   -1.4770909    0.0027312   -3.3154813  
C   -2.8395467    0.0020932   -3.0876860  
O   -3.7039190    0.0024408   -4.1440352  
C   -3.3517864    0.0013917   -1.7684337  
O   -4.7300486    0.0012348   -1.7073133  
C   -2.5248539    0.0009114   -0.6644824  
H   -1.1067558    0.0036982   -4.3313812  
H   -4.5940022    0.0021811   -3.7685142  
H   -4.9934597    0.0007245   -0.7819920  
H   -2.9462579    0.0005593    0.3339652  
H    2.1619896    0.0009362   -0.5342066  
C    4.5872072   -2.1312989   -2.8760566  
C    3.4257636   -1.6618660   -2.3075955  
C    2.8225615   -0.7845952   -3.2568813  
C    3.6683580   -0.7581058   -4.3952370  
N    4.7314862   -1.5851481   -4.1299511  
C    3.3837520    0.0055798   -5.5312703  
C    2.2240413    0.7559622   -5.5180173  
O    1.8977511    1.5195633   -6.6012815  
C    1.3675641    0.7429394   -4.3914766  
O    0.2523234    1.5428639   -4.5318411  
C    1.6478441   -0.0100095   -3.2702998  
H    3.0590296   -1.9191247   -1.3286586  
H    4.0243525    0.0301932   -6.4020327  
H    1.0629717    1.9557298   -6.3864165  
H   -0.2722942    1.4770478   -3.7280698  
H    5.3248336   -2.8113784   -2.4857249  
C    6.9080436   -5.3160581   -5.0795759  
C    7.7781676   -4.7820690   -6.0016436  
C    7.4755335   -3.3918617   -6.1033131  
C    6.4028892   -3.1331396   -5.2120091  
N    6.0814368   -4.3232651   -4.6079502  
C    5.8431448   -1.8620902   -5.0510469  
C    6.3761357   -0.8334212   -5.8033357  
O    5.8674776    0.4276361   -5.6849473  
C    7.4462061   -1.0717712   -6.6982964  
O    7.8657355    0.0545458   -7.3756073  
C    7.9987222   -2.3254903   -6.8577994  
H    8.5368727   -5.3276668   -6.5361366  
H    5.3633431   -4.4483152   -3.9175256  
H    6.3753440    0.9847350   -6.2890813  
H    8.5901138   -0.1931291   -7.9583064  
H    8.8176744   -2.4775971   -7.5510961  
H    6.8107165   -6.3268390   -4.7220730  
C    0.0000000    0.0000000    1.4700000  
C    1.0521667    0.0011902    2.3562342  
C    0.4917218    0.0011957    3.6679131  
C   -0.9187428   -0.0003148    3.5178682  
N   -1.1833171    0.0009411    2.1707914  
C   -1.7951701   -0.0010350    4.6072090  
C   -1.2375837   -0.0005224    5.8710424  
O   -2.0474215   -0.0015360    6.9697579  
C    0.1673580    0.0013566    6.0411963  
O    0.5673524    0.0020687    7.3615553  
C    1.0325770    0.0023412    4.9669890  
H    2.0953057    0.0030649    2.0900562  
H   -2.0989778   -0.0102372    1.7591824  
H   -2.8710934   -0.0020419    4.4995513  
H   -1.4634884   -0.0006497    7.7393593  
H    1.5290710    0.0033153    7.3880045  
H    2.1042148    0.0039609    5.1284455  
