64

C    2.5982151   -3.1644082   -8.0847427  
C    3.2800718   -3.1070484   -9.2781616  
C    3.2117876   -1.7565760   -9.7322103  
C    2.4695913   -1.0297709   -8.7663807  
N    2.1106077   -1.9150145   -7.7804345  
C    2.2041026    0.3374768   -8.8886051  
C    2.6970917    0.9828380  -10.0060340  
O    2.4673301    2.3176219  -10.1750738  
C    3.4394936    0.2748260  -10.9809067  
O    3.8613854    1.0580653  -12.0353669  
C    3.7015553   -1.0740625  -10.8611155  
H    3.7658697   -3.9367580   -9.7624919  
H    1.6389478    0.8971283   -8.1560801  
H    2.8915640    2.5644781  -11.0071511  
H    4.3547004    0.5037143  -12.6476891  
H    4.2729201   -1.5896249  -11.6241456  
H    2.4198991   -3.9979867   -7.4272403  
C    1.5647265   -2.0539606   -5.3222415  
C    1.3415396   -1.5772678   -6.5740504  
C    0.2114929   -0.6825501   -6.4885493  
C   -0.2083727   -0.6770014   -5.0741691  
N    0.6518900   -1.5286394   -4.4202953  
C   -1.2456329    0.0471727   -4.5828766  
C   -1.9989042    0.8763051   -5.5089746  
O   -2.9500475    1.5652089   -5.1639546  
C   -1.5719694    0.8855377   -7.0114550  
O   -2.1988660    1.5795073   -7.8005473  
C   -0.4365508    0.0630003   -7.4214648  
H   -0.1472075    0.0751442   -8.4635094  
H    2.3191289   -2.7449942   -4.9827737  
H    0.6225287   -1.7350432   -3.4386730  
C    1.1243410    0.0099923   -0.7919003  
C    0.7474076    0.0234544   -2.1148543  
C   -0.6787381    0.0234490   -2.1414700  
C   -1.1201745    0.0098592   -0.7935546  
N    0.0000000    0.0000000    0.0000000  
C   -2.4730816    0.0063709   -0.4408240  
C   -3.3971958    0.0170982   -1.4675058  
O   -4.7313517    0.0146259   -1.1793471  
C   -2.9763648    0.0303504   -2.8186324  
O   -4.0166480    0.0395118   -3.7247624  
C   -1.6418562    0.0335260   -3.1673481  
H    1.4178717    0.0310972   -2.9571209  
H   -2.8160166   -0.0041111    0.5845966  
H   -5.1938818    0.0230867   -2.0274384  
H   -3.6464675    0.0482293   -4.6127343  
H    2.1062467    0.0052819   -0.3505407  
C    0.8676693    0.7151171    2.2619005  
C    0.5875920    0.4624972    3.5848544  
C   -0.5048400   -0.4542819    3.6114698  
C   -0.8517165   -0.7276451    2.2635546  
N    0.0000000    0.0000000    1.4700000  
C   -1.8902865   -1.5946756    1.9108239  
C   -2.5912627   -2.1969500    2.9375057  
O   -3.6148162   -3.0527051    2.6493466  
C   -2.2603868   -1.9365747    4.2886322  
O   -3.0513550   -2.6123276    5.1947621  
C   -1.2361111   -1.0811317    4.6373480  
H    1.1060808    0.8876438    4.4271209  
H   -2.1597133   -1.8070987    0.8854031  
H   -3.9636755   -3.3565188    3.4974381  
H   -2.7621927   -2.3810384    6.0827341  
H   -1.0058879   -0.9010589    5.6809233  
H    1.6167816    1.3499334    1.8205408  
