60

C    5.6968605   -3.0361265   -7.6644424  
C    6.2804546   -2.2476942   -8.6289416  
C    5.8137579   -0.9165679   -8.4170516  
C    4.9409667   -0.9544542   -7.2995883  
N    4.8909255   -2.2567017   -6.8680034  
C    4.2954760    0.1829702   -6.8052229  
C    4.5356724    1.3805083   -7.4505026  
O    3.9314702    2.5220337   -7.0090596  
C    5.4029549    1.4385002   -8.5673178  
O    5.5389663    2.7036942   -9.1003537  
C    6.0398743    0.3167548   -9.0557305  
H    6.9582066   -2.5900740   -9.3921071  
H    4.3595599   -2.5879959   -6.0832259  
H    4.2309896    3.2322510   -7.5914199  
H    6.1405143    2.6550149   -9.8496028  
H    6.6985027    0.3920481   -9.9130616  
H    5.7906171   -4.0930381   -7.4824957  
C    4.6014566   -2.0165231   -3.0560761  
C    3.4769384   -1.6328845   -2.4081116  
C    2.8127343   -0.7151038   -3.3208061  
C    3.6989100   -0.6588454   -4.5032234  
N    4.7490140   -1.4197419   -4.3538651  
C    3.3894066    0.1527210   -5.6480614  
C    2.2463721    0.8749435   -5.6134073  
O    1.8335167    1.6749948   -6.6111590  
C    1.3311609    0.8390162   -4.4347394  
O    0.3078533    1.5221557   -4.4719306  
C    1.6707636   -0.0012343   -3.2725974  
H    3.1397620   -1.9354141   -1.4314521  
H    0.9923242    2.0514417   -6.2951910  
H    5.3663744   -2.6952862   -2.7137966  
C    1.0965514    0.0001358   -0.8010306  
C    0.0000000    0.0000000    0.0000000  
C   -1.1546565    0.0001470   -0.8669508  
C   -0.6372019    0.0003520   -2.2486278  
N    0.7342867    0.0007338   -2.1395012  
C   -1.4147744    0.0001354   -3.3608712  
C   -2.8576052   -0.0001047   -3.1854454  
O   -3.6427785   -0.0002490   -4.1244896  
C   -3.4275841   -0.0000727   -1.7311660  
O   -4.6406832    0.0000333   -1.5710049  
C   -2.4891868   -0.0001090   -0.6116739  
H   -1.0150456    0.0001617   -4.3654239  
H   -2.8919122   -0.0002919    0.3920871  
H    2.1388270    0.0000663   -0.5261650  
C    2.5128556    2.1077716    2.9199648  
C    1.9592212    1.6432552    4.0696553  
C    0.8915788    0.7479214    3.6910360  
C    0.8684491    0.7287414    2.2159470  
N    1.8754542    1.5738793    1.8102719  
C    0.0000000    0.0000000    1.4700000  
C   -0.9772830   -0.8200135    2.1664417  
O   -1.8021297   -1.5120829    1.5842315  
C   -0.9711318   -0.8147624    3.7284083  
O   -1.7894187   -1.5009653    4.3257297  
C    0.0140216    0.0115358    4.4216297  
H    2.2638494    1.8988021    5.0689105  
H    0.0117648    0.0094386    5.5031631  
H    3.3327358    2.7953732    2.7900019  
H    2.1123206    1.7707734    0.8551938  
