60

C   -0.9989276    2.1220632   -5.6282836  
C    0.2610218    1.6606566   -5.9317613  
C    0.1236670    0.7730426   -7.0398567  
C   -1.2546937    0.7322610   -7.3720972  
N   -1.9081818    1.5611175   -6.4942771  
C   -1.7572725   -0.0443292   -8.4204822  
C   -0.8518704   -0.7931611   -9.1468957  
O   -1.2886420   -1.5690017  -10.1814563  
C    0.5272403   -0.7659714   -8.8304576  
O    1.3005241   -1.5661902   -9.6459469  
C    1.0237155   -0.0002858   -7.7961634  
H    1.1674464    1.9297720   -5.4170136  
H   -2.8957321    1.7420133   -6.4926524  
H   -2.8066901   -0.0798674   -8.6786704  
H   -0.5062928   -2.0016579  -10.5475220  
H    2.2176221   -1.4903703   -9.3652577  
H   -1.3211239    2.8058062   -4.8617044  
C    3.1006060    0.0006268   -3.9654947  
C    4.3994794    0.0008534   -4.3456359  
C    4.3646292    0.0008284   -5.8000375  
C    2.9251417    0.0004560   -6.1383562  
N    2.1793119    0.0004171   -5.0670360  
C    2.4634065    0.0003689   -7.4991966  
C    3.3972670    0.0010303   -8.4775826  
O    3.1090955    0.0010284   -9.7902129  
C    4.8575568    0.0017905   -8.1682057  
O    5.6513836    0.0022449   -9.1089818  
C    5.3059844    0.0018212   -6.7643402  
H    5.2733150    0.0011076   -3.7167584  
H    3.9761780    0.0016100  -10.2344184  
H    6.3723227    0.0024984   -6.5822606  
C    3.2798085    0.0005859   -1.4499648  
C    2.5571146    0.0005569   -2.5996553  
C    1.1637437    0.0001551   -2.2210359  
C    1.1336966   -0.0000198   -0.7459471  
N    2.4483513   -0.0001427   -0.3402720  
C    0.0000000    0.0000000    0.0000000  
C   -1.2757366   -0.0000185   -0.6964416  
O   -2.3524595   -0.0000640   -0.1142313  
C   -1.2676493   -0.0000870   -2.2584084  
O   -2.3355759   -0.0004098   -2.8557296  
C    0.0181563    0.0001763   -2.9516295  
H    0.0150795    0.0003323   -4.0331630  
H    4.3498549    0.0008614   -1.3200020  
H    2.7563627    0.0012824    0.6148062  
C    0.8400945    0.7047457    2.2710304  
C    0.0000000    0.0000000    1.4700000  
C   -0.8844236   -0.7423113    2.3369512  
C   -0.4878984   -0.4098547    3.7186280  
N    0.5629682    0.4714286    3.6095011  
C   -1.0836927   -0.9095027    4.8308716  
C   -2.1891196   -1.8367527    4.6554461  
O   -2.7906899   -2.3413415    5.5944904  
C   -2.6257283   -2.2031529    3.2011665  
O   -3.5549479   -2.9829990    3.0410059  
C   -1.9068976   -1.5999348    2.0816745  
H   -0.7774656   -0.6525820    5.8354244  
H   -2.2155208   -1.8586617    1.0779135  
H    1.6384792    1.3747609    1.9961646  
H    1.0518368    0.8833920    4.3830260  
