66

C    1.4282659   -3.0971827  -10.1191561  
C    1.6386569   -2.2956105  -11.2171934  
C    1.2682110   -0.9701764  -10.8422331  
C    0.8360892   -1.0249166   -9.4923445  
N    0.9442006   -2.3312935   -9.0845343  
C    0.3964725    0.1029018   -8.7926644  
C    0.3933053    1.3079855   -9.4678991  
O   -0.0259008    2.4407027   -8.8321055  
C    0.8203938    1.3827801  -10.8150508  
O    0.7580087    2.6536902  -11.3481907  
C    1.2539581    0.2705187  -11.5060074  
H    2.0120375   -2.6258025  -12.1714225  
H    0.7186173   -2.6737521   -8.1681195  
H    0.0505106    3.1584160   -9.4742228  
H    1.0634090    2.6164471  -12.2597535  
H    1.5749746    0.3586516  -12.5373461  
H    1.5838457   -4.1548838   -9.9925814  
C    1.9074111   -2.1157064   -5.2171226  
C    1.7366764   -1.6153232   -6.4871355  
C    0.6103638   -0.7412450   -6.4423320  
C    0.1310751   -0.7480684   -5.1073552  
N    0.9400195   -1.5942802   -4.3903116  
C   -0.9736297    0.0040464   -4.6965763  
C   -1.6058300    0.7773677   -5.6507641  
O   -2.6892500    1.5315498   -5.3037413  
C   -1.1427634    0.7971177   -6.9879239  
O   -1.8787359    1.6162801   -7.8189843  
C   -0.0531715    0.0551811   -7.3939361  
H    2.3479777   -1.8521270   -7.3410843  
H    0.8493709   -1.7918998   -3.4101531  
H   -2.9736280    1.9867685   -6.1069653  
H   -1.5003155    1.5722385   -8.7024216  
H    2.6418355   -2.8044014   -4.8359674  
C    1.1188642    0.0008222   -0.8003808  
C    0.0000000    0.0000000    0.0000000  
C   -1.1323862    0.0008899   -0.8673528  
C   -0.6382663    0.0019679   -2.1969280  
N    0.7324016    0.0038481   -2.1202242  
C   -1.4770914    0.0027318   -3.3154808  
C   -2.8395473    0.0020945   -3.0876857  
O   -3.7039201    0.0024425   -4.1440349  
C   -3.3517868    0.0013931   -1.7684331  
O   -4.7300497    0.0012366   -1.7073121  
C   -2.5248543    0.0009123   -0.6644817  
H    1.3576314   -0.0056167   -2.9057046  
H   -4.5940032    0.0021826   -3.7685128  
H   -4.9934602    0.0007259   -0.7819913  
H   -2.9462577    0.0005603    0.3339659  
H    2.1619895    0.0009355   -0.5342068  
C    2.5311839    2.1237619    3.0120429  
C    1.9795631    1.6616747    1.8395852  
C    0.9223175    0.7739173    2.1983588  
C    0.8753926    0.7337535    3.6154372  
N    1.8668922    1.5631002    4.0777464  
C   -0.0496243   -0.0427881    4.3197917  
C   -0.9437528   -0.7922060    3.5801400  
O   -1.8685244   -1.5680278    4.2172520  
C   -0.9124520   -0.7656372    2.1655264  
O   -1.8671164   -1.5663939    1.5732860  
C    0.0000000    0.0000000    1.4700000  
H    2.3005065    1.9304404    0.8477417  
H    2.0679347    1.7444845    5.0445261  
H   -0.0904770   -0.0778569    5.3997470  
H   -2.3849669   -2.0011402    3.5251786  
H   -1.7775064   -1.4909735    0.6183591  
H    3.3468514    2.8078103    3.1724291  
