62

C    3.4038038   -0.7133680   -7.4021237  
C    4.6689796   -0.4645494   -7.8815898  
C    4.5297050    0.4444169   -8.9719940  
C    3.1448295    0.7171525   -9.1122110  
N    2.4895633   -0.0033453   -8.1446741  
C    2.6387678    1.5772724  -10.0914366  
C    3.5473076    2.1731536  -10.9444657  
O    3.1073458    3.0220162  -11.9185709  
C    4.9329321    1.9132876  -10.8206465  
O    5.7086757    2.5821719  -11.7448532  
C    5.4328581    1.0646592   -9.8550222  
H    5.5800757   -0.8871562   -7.4939041  
H    1.5843895    1.7891783  -10.2036145  
H    3.8927345    3.3221879  -12.3943080  
H    6.6301895    2.3517277  -11.5921682  
H    6.4992387    0.8847996   -9.7845820  
H    3.0811012   -1.3422485   -6.5901320  
C    0.0139742    0.0003878   -4.4216236  
C    1.0636157   -0.0005606   -5.3108473  
C    0.4994415   -0.0004375   -6.6209270  
C   -0.9105908    0.0008990   -6.4668698  
N   -1.1713316   -0.0005800   -5.1190459  
C   -1.7901136    0.0016816   -7.5537126  
C   -1.2361250    0.0014116   -8.8191278  
O   -2.0490846    0.0024962   -9.9155342  
C    0.1683274   -0.0002909   -8.9932770  
O    0.5645640   -0.0007695  -10.3147699  
C    1.0365989   -0.0013371   -7.9215366  
H    2.1075080   -0.0023610   -5.0476387  
H   -2.0858187    0.0104399   -4.7048323  
H   -2.8657261    0.0025566   -7.4429946  
H   -1.4673439    0.0017844  -10.6867942  
H    1.5262035   -0.0019081  -10.3439552  
C    3.2798085    0.0005856   -1.4499646  
C    2.5571146    0.0005565   -2.5996553  
C    1.1637435    0.0001548   -2.2210360  
C    1.1336964   -0.0000200   -0.7459470  
N    2.4483515   -0.0001429   -0.3402716  
C    0.0000000    0.0000000    0.0000000  
C   -1.2757368   -0.0000187   -0.6964415  
O   -2.3524594   -0.0000640   -0.1142314  
C   -1.2676495   -0.0000873   -2.2584081  
O   -2.3355761   -0.0004101   -2.8557295  
C    0.0181563    0.0001759   -2.9516296  
H    2.9547358    0.0006075   -3.5989104  
H    4.3498547    0.0008611   -1.3200019  
H    2.7563628    0.0012823    0.6148064  
C    2.5128556    2.1077716    2.9199648  
C    1.9592212    1.6432552    4.0696553  
C    0.8915788    0.7479214    3.6910360  
C    0.8684491    0.7287414    2.2159470  
N    1.8754542    1.5738793    1.8102719  
C    0.0000000    0.0000000    1.4700000  
C   -0.9772830   -0.8200135    2.1664417  
O   -1.8021297   -1.5120829    1.5842315  
C   -0.9711318   -0.8147624    3.7284083  
O   -1.7894187   -1.5009653    4.3257297  
C    0.0140216    0.0115358    4.4216297  
H    2.2638494    1.8988021    5.0689105  
H    0.0117648    0.0094386    5.5031631  
H    3.3327358    2.7953732    2.7900019  
H    2.1123206    1.7707734    0.8551938  
