60

C    4.2935342   -3.5709981   -5.5081171  
C    5.2294326   -4.3444386   -6.1549186  
C    5.0112679   -4.1783800   -7.5547142  
C    3.9199853   -3.2844392   -7.7027007  
N    3.5067131   -2.9364728   -6.4406617  
C    3.4278849   -2.8918474   -8.9510985  
C    4.0489323   -3.4109060  -10.0704984  
O    3.6089436   -3.0605507  -11.3141524  
C    5.1389617   -4.3044836   -9.9433281  
O    5.6493807   -4.7340298  -11.1509312  
C    5.6247846   -4.6924316   -8.7120703  
H    5.9766719   -4.9542655   -5.6766531  
H    2.5964167   -2.2109843   -9.0706332  
H    4.1719245   -3.5281873  -11.9447341  
H    6.3813893   -5.3332892  -10.9758438  
H    6.4610849   -5.3785206   -8.6460372  
H    4.1240892   -3.4228750   -4.4553557  
C    2.4064707   -2.0119089   -6.1315522  
C    1.9558554   -1.6301628   -4.9138516  
C    0.8614677   -0.7121811   -5.1897589  
C    0.7870647   -0.6537478   -6.6654397  
N    1.6902162   -1.4136452   -7.2229896  
C   -0.1829361    0.1586444   -7.3467641  
C   -1.0399141    0.8795786   -6.5883597  
O   -1.9953657    1.6801932   -7.0905249  
C   -0.9902402    0.8414484   -5.0969715  
O   -1.8010677    1.5235041   -4.4704098  
C    0.0139741    0.0003876   -4.4216236  
H    2.3209548   -1.9340559   -3.9477113  
H   -0.2145021    0.1824686   -8.4262756  
H   -2.4403313    2.0553964   -6.3092559  
C    3.2798085    0.0005853   -1.4499648  
C    2.5571144    0.0005562   -2.5996554  
C    1.1637436    0.0001546   -2.2210360  
C    1.1336965   -0.0000201   -0.7459470  
N    2.4483513   -0.0001430   -0.3402717  
C    0.0000000    0.0000000    0.0000000  
C   -1.2757367   -0.0000188   -0.6964414  
O   -2.3524597   -0.0000640   -0.1142313  
C   -1.2676494   -0.0000875   -2.2584081  
O   -2.3355762   -0.0004102   -2.8557294  
C    0.0181562    0.0001757   -2.9516296  
H    2.9547357    0.0006072   -3.5989105  
H    4.3498550    0.0008609   -1.3200021  
H    2.7563627    0.0012824    0.6148063  
C    0.8400945    0.7047457    2.2710304  
C    0.0000000    0.0000000    1.4700000  
C   -0.8844236   -0.7423113    2.3369512  
C   -0.4878984   -0.4098547    3.7186280  
N    0.5629682    0.4714286    3.6095011  
C   -1.0836927   -0.9095027    4.8308716  
C   -2.1891196   -1.8367527    4.6554461  
O   -2.7906899   -2.3413415    5.5944904  
C   -2.6257283   -2.2031529    3.2011665  
O   -3.5549479   -2.9829990    3.0410059  
C   -1.9068976   -1.5999348    2.0816745  
H   -0.7774656   -0.6525820    5.8354244  
H   -2.2155208   -1.8586617    1.0779135  
H    1.6384792    1.3747609    1.9961646  
H    1.0518368    0.8833920    4.3830260  
