60

C   -8.3554846    2.9864576   -2.0327701  
C   -7.5716591    2.0012690   -2.5872867  
C   -8.3323733    0.7951538   -2.5526412  
C   -9.5829393    1.1086677   -1.9612704  
N   -9.5629937    2.4469024   -1.6557419  
C  -10.5876225    0.1559873   -1.7668455  
C  -10.3251985   -1.1366686   -2.1771525  
O  -11.2714177   -2.1062964   -2.0113116  
C   -9.0833727   -1.4691156   -2.7689015  
O   -8.9746478   -2.7979323   -3.1235380  
C   -8.0916674   -0.5298430   -2.9607692  
H   -6.5738763    2.1351864   -2.9687155  
H  -10.3181798    2.9574489   -1.2350077  
H  -11.5428265    0.3885128   -1.3166041  
H  -10.8898047   -2.9226119   -2.3595428  
H   -8.1072686   -2.9381422   -3.5154535  
H   -8.1482048    4.0310264   -1.8750666  
C   -4.0214240    0.6873775   -1.9917542  
C   -3.2941076    0.0012878   -2.9038237  
C   -4.2729631   -0.7438335   -3.6804419  
C   -5.5765699   -0.3795575   -3.0850458  
N   -5.4354549    0.4591737   -2.0947902  
C   -6.8150156   -0.9155366   -3.5790742  
C   -6.7539672   -1.7760010   -4.6208077  
O   -7.8303767   -2.3520035   -5.1825928  
C   -5.4537106   -2.1628842   -5.2435559  
O   -5.4732706   -2.9512792   -6.1886864  
C   -4.1970811   -1.5995187   -4.7187458  
H   -7.4696188   -2.9089611   -5.8958983  
H   -3.2763256   -1.9047888   -5.1975465  
H   -3.6647949    1.3595210   -1.2275476  
C    0.0000000    0.0000000    0.0000000  
C    1.0541688   -0.0001723   -0.8560392  
C    0.5103136   -0.0000455   -2.1935956  
C   -0.9576373    0.0002461   -2.0455730  
N   -1.2018460   -0.0001389   -0.6915968  
C   -1.8348314    0.0008319   -3.0810607  
C   -1.2972851    0.0009739   -4.4314603  
O   -2.0050676    0.0014268   -5.4301316  
C    0.2542619    0.0004184   -4.6117572  
O    0.7184666    0.0002257   -5.7439122  
C    1.0974551    0.0000873   -3.4189129  
H    2.0940752   -0.0005484   -0.5817983  
H    2.1707276   -0.0000912   -3.5523673  
H   -2.1128194    0.0014915   -0.2706789  
C    1.0965515   -0.0001358    2.2710304  
C    0.0000000    0.0000000    1.4700000  
C   -1.1546562   -0.0001469    2.3369512  
C   -0.6372014   -0.0003519    3.7186280  
N    0.7342871   -0.0007337    3.6095011  
C   -1.4147739   -0.0001353    4.8308716  
C   -2.8576048    0.0001048    4.6554461  
O   -3.6427778    0.0002493    5.5944904  
C   -3.4275839    0.0000726    3.2011665  
O   -4.6406829   -0.0000333    3.0410059  
C   -2.4891866    0.0001091    2.0816745  
H   -1.0150448   -0.0001615    5.8354244  
H   -2.8919121    0.0002919    1.0779135  
H    2.1388271   -0.0000662    1.9961646  
H    1.3735872    0.0006099    4.3830260  
