60

C   -8.4535924    2.9475869   -2.0681215  
C   -7.6265622    1.9854242   -2.5998475  
C   -8.3557086    0.7594973   -2.5928089  
C   -9.6324232    1.0377507   -2.0409932  
N   -9.6577888    2.3749652   -1.7314255  
C  -10.6171635    0.0581555   -1.8814036  
C  -10.3075328   -1.2256606   -2.2865239  
O  -11.2324971   -2.2205502   -2.1536745  
C   -9.0390371   -1.5230701   -2.8390480  
O   -8.8837925   -2.8472950   -3.1935495  
C   -8.0669888   -0.5572301   -2.9965334  
H   -6.6210021    2.1470208   -2.9487420  
H  -10.4393255    2.8638809   -1.3337563  
H  -11.5921101    0.2637563   -1.4613926  
H  -10.8184097   -3.0252612   -2.4916645  
H   -8.0009105   -2.9631392   -3.5578340  
H   -8.2792629    3.9967126   -1.9010787  
C   -3.9877630    0.7060337   -1.9730980  
C   -3.2941076    0.0012878   -2.9038237  
C   -4.2616235   -0.7404938   -3.6774573  
C   -5.5852979   -0.4077256   -3.1171519  
N   -5.3499626    0.4732136   -2.0868838  
C   -6.7614337   -0.9068528   -3.5746252  
C   -6.7208869   -1.8338309   -4.6933759  
O   -7.7257851   -2.3379509   -5.1774666  
C   -5.3299840   -2.2005531   -5.3022342  
O   -5.2832946   -2.9801748   -6.2441853  
C   -4.1317824   -1.5978944   -4.7234703  
H   -3.1726434   -1.8568417   -5.1509310  
H   -3.6184115    1.3757280   -1.2135067  
H   -6.0587599    0.8852726   -1.5082127  
C    0.0000000    0.0000000    0.0000000  
C    1.0541688   -0.0001723   -0.8560392  
C    0.5103136   -0.0000455   -2.1935956  
C   -0.9576373    0.0002461   -2.0455730  
N   -1.2018460   -0.0001389   -0.6915968  
C   -1.8348314    0.0008319   -3.0810607  
C   -1.2972851    0.0009739   -4.4314603  
O   -2.0050676    0.0014268   -5.4301316  
C    0.2542619    0.0004184   -4.6117572  
O    0.7184666    0.0002257   -5.7439122  
C    1.0974551    0.0000873   -3.4189129  
H    2.0940752   -0.0005484   -0.5817983  
H    2.1707276   -0.0000912   -3.5523673  
H   -2.1128194    0.0014915   -0.2706789  
C    3.2798086   -0.0005857    2.9199648  
C    2.5571146   -0.0005566    4.0696553  
C    1.1637436   -0.0001548    3.6910360  
C    1.1336965    0.0000200    2.2159470  
N    2.4483514    0.0001428    1.8102719  
C    0.0000000    0.0000000    1.4700000  
C   -1.2757367    0.0000186    2.1664417  
O   -2.3524596    0.0000640    1.5842315  
C   -1.2676493    0.0000873    3.7284083  
O   -2.3355761    0.0004100    4.3257297  
C    0.0181563   -0.0001760    4.4216297  
H    2.9547357   -0.0006076    5.0689105  
H    0.0150794   -0.0003319    5.5031631  
H    4.3498549   -0.0008612    2.7900019  
H    2.7563627   -0.0012824    0.8551938  
