64

C    1.7254292   -1.8302073   -8.4895518  
C    2.6627605   -2.6371841   -9.0917693  
C    2.4611042   -2.5304327  -10.4997952  
C    1.3779531   -1.6364436  -10.6985250  
N    0.9534239   -1.2313960   -9.4574258  
C    0.9023568   -1.2949849  -11.9681728  
C    1.5318557   -1.8661769  -13.0570483  
O    1.1080119   -1.5670582  -14.3195444  
C    2.6139839   -2.7606958  -12.8791420  
O    3.1344715   -3.2455394  -14.0612430  
C    3.0835240   -3.0982154  -11.6268889  
H    3.4003297   -3.2307257   -8.5792324  
H    0.2042714   -0.5863647   -9.2822515  
H    0.0771563   -0.6143782  -12.1263528  
H    1.6744772   -2.0653229  -14.9229635  
H    3.8602000   -3.8415487  -13.8522100  
H    3.9141039   -3.7863925  -11.5218771  
C    2.1801845   -2.1249311   -6.0224128  
C    1.6691586   -1.6625655   -4.8318093  
C    0.6003590   -0.7747108   -5.1542714  
C    0.5048748   -0.7347776   -6.5689139  
N    1.4798199   -1.5643492   -7.0648071  
C   -0.4436399    0.0417838   -7.2412688  
C   -1.3117721    0.7914586   -6.4715206  
O   -2.2577362    1.5673114   -7.0766812  
C   -1.2319855    0.7651224   -5.0588080  
O   -2.1656657    1.5661204   -4.4343180  
C   -0.2963293   -0.0005341   -4.3948471  
H    2.0238859   -1.9312126   -3.8515082  
H   -0.5214962    0.0766778   -8.3191935  
H   -2.7500812    2.0006166   -6.3673799  
H   -2.0433735    1.4908464   -3.4830124  
H    2.9897746   -2.8091278   -6.2105564  
C    3.1301146   -0.0010313   -1.7028256  
C    2.5367765   -0.0002766   -0.4864669  
C    1.1089901    0.0001027   -0.7656184  
C    1.0177865   -0.0004150   -2.2415133  
N    2.1993571   -0.0011612   -2.7963824  
C   -0.2459219   -0.0002879   -2.9257116  
C   -1.3675326   -0.0000606   -2.1698520  
O   -2.6129318    0.0000865   -2.6748483  
C   -1.3083588    0.0000910   -0.6783229  
O   -2.3693264    0.0004206   -0.0541685  
C    0.0000000    0.0000000    0.0000000  
H    3.0096016   -0.0001007    0.4807518  
H   -3.1967444    0.0002093   -1.8949026  
H    4.1849275   -0.0015114   -1.9271979  
C    0.8676693    0.7151171    2.2619005  
C    0.5875920    0.4624972    3.5848544  
C   -0.5048400   -0.4542819    3.6114698  
C   -0.8517165   -0.7276451    2.2635546  
N    0.0000000    0.0000000    1.4700000  
C   -1.8902865   -1.5946756    1.9108239  
C   -2.5912627   -2.1969500    2.9375057  
O   -3.6148162   -3.0527051    2.6493466  
C   -2.2603868   -1.9365747    4.2886322  
O   -3.0513550   -2.6123276    5.1947621  
C   -1.2361111   -1.0811317    4.6373480  
H    1.1060808    0.8876438    4.4271209  
H   -2.1597133   -1.8070987    0.8854031  
H   -3.9636755   -3.3565188    3.4974381  
H   -2.7621927   -2.3810384    6.0827341  
H   -1.0058879   -0.9010589    5.6809233  
H    1.6167816    1.3499334    1.8205408  
