62

C   -7.3506449    3.2514412    0.1851178  
C   -6.9652586    1.9985620   -0.2323018  
C   -8.0777699    1.1302038   -0.0252478  
C   -9.1224195    1.9161357    0.5251566  
N   -8.6468807    3.1986843    0.6415577  
C  -10.3730799    1.3863954    0.8568396  
C  -10.5729120    0.0387733    0.6284540  
O  -11.7755397   -0.5299686    0.9337956  
C   -9.5427586   -0.7619753    0.0803653  
O   -9.8964727   -2.0849538   -0.0868365  
C   -8.3086137   -0.2401010   -0.2468344  
H   -9.1685970    3.9814901    0.9922836  
H  -11.1733633    1.9800331    1.2767692  
H  -11.7028878   -1.4644554    0.6998710  
H   -9.1455203   -2.5555779   -0.4612527  
H   -7.5388989   -0.8781843   -0.6650067  
H   -6.8029694    4.1782196    0.1946999  
C   -4.4484553    2.1114134   -0.3461921  
C   -5.6479912    1.6480085   -0.7825916  
C   -5.3783932    0.7523818   -1.8825941  
C   -3.9129551    0.7318186   -2.0524732  
N   -3.4082407    1.5765169   -1.0908921  
C   -3.2578655    0.0024282   -2.9908505  
C   -4.0489188   -0.8168743   -3.8939083  
O   -3.5523765   -1.5094419   -4.7725986  
C   -5.6025063   -0.8101577   -3.7322729  
O   -6.2789756   -1.4957519   -4.4869982  
C   -6.1934212    0.0167334   -2.6830243  
H   -7.2698069    0.0156516   -2.5775884  
H   -4.2368622    2.7988446    0.4566503  
H   -2.4341403    1.7725007   -0.9503007  
C    0.0000000    0.0000000    0.0000000  
C    1.0521666   -0.0011982   -0.8862343  
C    0.4917215   -0.0011996   -2.1979132  
C   -0.9187429    0.0003215   -2.0478682  
N   -1.1833171   -0.0009323   -0.7007913  
C   -1.7951703    0.0010483   -3.1372089  
C   -1.2375841    0.0005313   -4.4010422  
O   -2.0474218    0.0015510   -5.4997578  
C    0.1673576   -0.0013585   -4.5711963  
O    0.5673520   -0.0020735   -5.8915554  
C    1.0325768   -0.0023493   -3.4969892  
H    2.0953056   -0.0030808   -0.6200564  
H   -2.0989778    0.0102529   -0.2891822  
H   -1.4634888    0.0006601   -6.2693595  
H    1.5290707   -0.0033271   -5.9180047  
H    2.1042146   -0.0039770   -3.6584456  
C    0.0000000    0.0000000    1.4700000  
C    1.0541688    0.0001722    2.3260392  
C    0.5103138    0.0000454    3.6635956  
C   -0.9576371   -0.0002459    3.5155732  
N   -1.2018458    0.0001392    2.1615969  
C   -1.8348311   -0.0008317    4.5510609  
C   -1.2972847   -0.0009736    5.9014604  
O   -2.0050672   -0.0014265    6.9001319  
C    0.2542623   -0.0004184    6.0817573  
O    0.7184670   -0.0002256    7.2139121  
C    1.0974552   -0.0000873    4.8889129  
H    2.0940752    0.0005483    2.0517982  
H   -2.9081052   -0.0011668    4.4207061  
H    2.1707277    0.0000911    5.0223670  
H   -2.1128194   -0.0014912    1.7406791  
