62

C    5.9544420   -0.0109776   -4.5530911  
C    6.1720646   -0.0122767   -3.1947445  
C    7.5850229   -0.0154092   -2.9994501  
C    8.1829660   -0.0156061   -4.2856802  
N    7.1646431   -0.0148273   -5.2063504  
C    9.5681229   -0.0180584   -4.4757509  
C   10.3641587   -0.0200467   -3.3468130  
O   11.7230492   -0.0221292   -3.4749796  
C    9.7862938   -0.0202620   -2.0549578  
O   10.7119567   -0.0227715   -1.0319786  
C    8.4198831   -0.0181169   -1.8666985  
H    5.4065806   -0.0122153   -2.4377589  
H    7.2835379   -0.0041964   -6.2032114  
H   10.0300703   -0.0183661   -5.4534035  
H   12.0818976   -0.0235719   -2.5780448  
H   10.2392320   -0.0227185   -0.1940438  
H    8.0062533   -0.0185240   -0.8650060  
C    1.6707638   -0.0012342   -3.2725973  
C    3.0463716   -0.0037083   -3.2854242  
C    3.4499897   -0.0054180   -4.6535213  
C    2.2671975   -0.0035760   -5.4364169  
N    1.2050910   -0.0030039   -4.5666199  
C    2.2856101   -0.0042331   -6.8344329  
C    3.5205418   -0.0064893   -7.4533968  
O    3.5962555   -0.0068717   -8.8162179  
C    4.7118874   -0.0087263   -6.6895196  
O    5.8613546   -0.0112432   -7.4524488  
C    4.6944759   -0.0083529   -5.3103087  
H    3.6808654   -0.0053233   -2.4157071  
H    0.2370776    0.0088102   -4.8326878  
H    1.3876895   -0.0029823   -7.4368772  
H    4.5366398   -0.0088425   -9.0374357  
H    6.6195102   -0.0126142   -6.8601634  
C    1.0965515    0.0001359   -0.8010305  
C    0.0000000    0.0000000    0.0000000  
C   -1.1546564    0.0001470   -0.8669509  
C   -0.6372018    0.0003521   -2.2486279  
N    0.7342868    0.0007339   -2.1395011  
C   -1.4147743    0.0001355   -3.3608714  
C   -2.8576049   -0.0001046   -3.1854455  
O   -3.6427782   -0.0002491   -4.1244898  
C   -3.4275842   -0.0000725   -1.7311664  
O   -4.6406831    0.0000334   -1.5710053  
C   -2.4891868   -0.0001091   -0.6116742  
H   -1.0150456    0.0001619   -4.3654242  
H   -2.8919123   -0.0002920    0.3920869  
H    2.1388270    0.0000663   -0.5261648  
C    0.0000000    0.0000000    1.4700000  
C    1.0541688    0.0001722    2.3260392  
C    0.5103138    0.0000454    3.6635956  
C   -0.9576371   -0.0002459    3.5155732  
N   -1.2018458    0.0001392    2.1615969  
C   -1.8348311   -0.0008317    4.5510609  
C   -1.2972847   -0.0009736    5.9014604  
O   -2.0050672   -0.0014265    6.9001319  
C    0.2542623   -0.0004184    6.0817573  
O    0.7184670   -0.0002256    7.2139121  
C    1.0974552   -0.0000873    4.8889129  
H    2.0940752    0.0005483    2.0517982  
H   -2.9081052   -0.0011668    4.4207061  
H    2.1707277    0.0000911    5.0223670  
H   -2.1128194   -0.0014912    1.7406791  
