60

C    2.4555246    0.0026612   -8.1503328  
C    3.5436752    0.0026162   -7.3086704  
C    4.7077045    0.0030101   -8.1330707  
C    4.2636498    0.0035726   -9.4801948  
N    2.8910735    0.0013926   -9.4548039  
C    5.1437179    0.0043730  -10.5665956  
C    6.4967026    0.0049167  -10.2880100  
O    7.3999725    0.0060566  -11.3112966  
C    6.9592489    0.0039936   -8.9505250  
O    8.3342615    0.0042734   -8.8379059  
C    6.0916123    0.0029305   -7.8782692  
H    3.5034168    0.0012291   -6.2328591  
H    2.2956525    0.0117777  -10.2631026  
H    4.8116322    0.0046607  -11.5956357  
H    8.2753902    0.0059631  -10.9027518  
H    8.5628857    0.0036302   -7.9033820  
H    6.4753838    0.0020579   -6.8647625  
C    0.0139742    0.0003878   -4.4216236  
C    1.0778912    0.0006078   -5.2580807  
C    0.5039807    0.0007587   -6.5949153  
C   -0.9579662    0.0004852   -6.3728917  
N   -1.2512406    0.0003479   -5.1008931  
C   -1.8932245    0.0005803   -7.4639363  
C   -1.3908360    0.0013215   -8.7196988  
O   -2.1470602    0.0014889   -9.8306281  
C    0.0796407    0.0019852   -8.9763293  
O    0.4660700    0.0025204  -10.1450435  
C    1.0185692    0.0018292   -7.8403984  
H    2.1230579    0.0007512   -4.9998126  
H   -2.9563663    0.0001682   -7.2725227  
H   -1.5077381    0.0020890  -10.5657615  
C    3.2798085    0.0005856   -1.4499646  
C    2.5571146    0.0005565   -2.5996553  
C    1.1637435    0.0001548   -2.2210360  
C    1.1336964   -0.0000200   -0.7459470  
N    2.4483515   -0.0001429   -0.3402716  
C    0.0000000    0.0000000    0.0000000  
C   -1.2757368   -0.0000187   -0.6964415  
O   -2.3524594   -0.0000640   -0.1142314  
C   -1.2676495   -0.0000873   -2.2584081  
O   -2.3355761   -0.0004101   -2.8557295  
C    0.0181563    0.0001759   -2.9516296  
H    2.9547358    0.0006075   -3.5989104  
H    4.3498547    0.0008611   -1.3200019  
H    2.7563628    0.0012823    0.6148064  
C    0.0000000    0.0000000    1.4700000  
C    1.0541688    0.0001722    2.3260392  
C    0.5103138    0.0000454    3.6635956  
C   -0.9576371   -0.0002459    3.5155732  
N   -1.2018458    0.0001392    2.1615969  
C   -1.8348311   -0.0008317    4.5510609  
C   -1.2972847   -0.0009736    5.9014604  
O   -2.0050672   -0.0014265    6.9001319  
C    0.2542623   -0.0004184    6.0817573  
O    0.7184670   -0.0002256    7.2139121  
C    1.0974552   -0.0000873    4.8889129  
H    2.0940752    0.0005483    2.0517982  
H   -2.9081052   -0.0011668    4.4207061  
H    2.1707277    0.0000911    5.0223670  
H   -2.1128194   -0.0014912    1.7406791  
