62

C    2.5648300   -3.3859145   -8.6981433  
C    2.8757949   -3.3763897  -10.0381724  
C    2.6754799   -2.0426836  -10.5026104  
C    2.2387156   -1.2763349   -9.3918114  
N    2.1805174   -2.1229467   -8.3127016  
C    1.9445266    0.0874783   -9.4826715  
C    2.0942628    0.6886850  -10.7173000  
O    1.8209964    2.0181173  -10.8620341  
C    2.5285659   -0.0592100  -11.8375011  
O    2.6277526    0.6825533  -12.9965063  
C    2.8187100   -1.4047395  -11.7486583  
H    3.2052970   -4.2264222  -10.6107685  
H    1.6110885    0.6771313   -8.6398614  
H    1.9880561    2.2318464  -11.7892200  
H    2.9268014    0.1030332  -13.7038464  
H    3.1491986   -1.9514756  -12.6240640  
H    2.5853923   -4.1940004   -7.9871343  
C    2.3338136   -2.1434182   -5.7798768  
C    1.7883284   -1.7365454   -6.9496968  
C    0.7199250   -0.8256235   -6.5685995  
C    0.7626763   -0.7985191   -5.0907557  
N    1.7067550   -1.5690024   -4.6227165  
C   -0.1496415   -0.0015615   -4.3176961  
C   -1.0628929    0.7351418   -4.9904329  
O   -1.9748537    1.5241930   -4.3973341  
C   -1.1310328    0.7292321   -6.4815676  
O   -1.9880868    1.4240531   -7.0273726  
C   -0.1842258   -0.0965645   -7.2519836  
H   -2.4795475    1.9160028   -5.1328081  
H   -0.2663200   -0.0731951   -8.3303828  
H    3.1559294   -2.8255339   -5.6321686  
C    3.3003543    0.0005276   -1.4738987  
C    2.5232814    0.0003497   -2.6090747  
C    1.1623200   -0.0001320   -2.1820103  
C    1.1711883    0.0000582   -0.7636140  
N    2.4852300   -0.0014919   -0.3662360  
C    0.0000000    0.0000000    0.0000000  
C   -1.2020384    0.0000519   -0.6806477  
O   -2.3759249    0.0003493    0.0157743  
C   -1.2314656   -0.0005115   -2.0955510  
O   -2.5054392   -0.0008039   -2.6250180  
C   -0.0764516   -0.0007274   -2.8495195  
H    2.8919955   -0.0005620   -3.6205304  
H    2.8036267    0.0088183    0.5858662  
H   -3.0835638    0.0000347   -0.6418818  
H   -2.4360047   -0.0011529   -3.5845921  
H    4.3715549    0.0004895   -1.3667136  
C    0.8681109    0.7263879    2.2709268  
C    0.6127770    0.5096195    3.5869401  
C   -0.4920590   -0.4175482    3.6542670  
C   -0.8620974   -0.7254003    2.2596025  
N    0.0000000    0.0000000    1.4700000  
C   -1.8641242   -1.5660088    1.8976294  
C   -2.6293522   -2.2103885    2.9520183  
O   -3.5512764   -2.9839180    2.7283916  
C   -2.2549728   -1.8987399    4.4361073  
O   -2.8923672   -2.4351063    5.3323774  
C   -1.1543735   -0.9755647    4.7012123  
H    1.1382914    0.9492124    4.4159191  
H   -2.1192137   -1.7782617    0.8686553  
H   -0.9013378   -0.7652422    5.7314848  
H    1.6172880    1.3558399    1.8188057  
