62

C    4.0967319   -3.0775561   -0.2552322  
C    5.0880375   -3.7567829    0.4144169  
C    4.4513136   -4.5225954    1.4355503  
C    3.0591544   -4.2684599    1.3394569  
N    2.8785820   -3.3854720    0.3039177  
C    2.1220184   -4.8582810    2.1930827  
C    2.5989176   -5.7205891    3.1611566  
O    1.7273317   -6.3241362    4.0208561  
C    3.9843999   -5.9865322    3.2730937  
O    4.3013196   -6.8665155    4.2872613  
C    4.9095048   -5.4048050    2.4314870  
H    6.1407079   -3.7056329    0.1947292  
H    1.9929724   -3.0295914   -0.0075723  
H    1.0596581   -4.6686107    2.1251235  
H    2.2605744   -6.8765855    4.6071300  
H    5.2552029   -6.9916553    4.2943413  
H    5.9643867   -5.6275428    2.5414426  
C    4.1863612   -2.1478769   -1.3903811  
C    5.2964354   -1.7420564   -2.0496420  
C    4.8117016   -0.8307209   -3.0748252  
C    3.3454835   -0.8022506   -2.8851479  
N    2.9730518   -1.5723541   -1.8991335  
C    2.4861704   -0.0045255   -3.7159919  
C    3.0653208    0.7316068   -4.6917118  
O    2.3851025    1.5212592   -5.5401182  
C    4.5422559    0.7243205   -4.9079759  
O    5.0006617    1.4186849   -5.8151378  
C    5.4023457   -0.1022428   -4.0425497  
H    6.3180530   -2.0259909   -1.8632149  
H    3.0670359    1.9124169   -6.1155445  
H    6.4672338   -0.0798677   -4.2316059  
C    0.0000000    0.0000000    0.0000000  
C    1.0521669   -0.0011848   -0.8862341  
C    0.4917221   -0.0011931   -2.1979130  
C   -0.9187427    0.0003100   -2.0478683  
N   -1.1833170   -0.0009472   -0.7007915  
C   -1.7951698    0.0010259   -3.1372090  
C   -1.2375835    0.0005161   -4.4010425  
O   -2.0474208    0.0015256   -5.4997580  
C    0.1673584   -0.0013557   -4.5711962  
O    0.5673529   -0.0020659   -5.8915551  
C    1.0325773   -0.0023359   -3.4969890  
H    2.0953059   -0.0030542   -0.6200560  
H   -2.0989777    0.0102265   -0.2891825  
H   -2.8710930    0.0020274   -3.0295514  
H   -1.4634881    0.0006427   -6.2693593  
H    1.5290715   -0.0033076   -5.9180042  
C    3.3321173   -0.0004715    2.8079335  
C    2.6974184   -0.0000116    4.0032312  
C    1.2800439    0.0002118    3.6752840  
C    1.2395035   -0.0000644    2.1971295  
N    2.4394063   -0.0005460    1.6831036  
C    0.0000000    0.0000000    1.4700000  
C   -1.1468701   -0.0000635    2.1869543  
O   -2.3742202   -0.0000073    1.6395491  
C   -1.1388768   -0.0001607    3.6796354  
O   -2.2206231   -0.0000905    4.2670412  
C    0.1454524   -0.0001816    4.4024240  
H    3.1367986    0.0000651    4.9860947  
H   -2.9844344   -0.0001026    2.3990168  
H    0.1083576   -0.0003682    5.4835595  
H    4.3940039   -0.0007619    2.6198634  
