62

C    6.5754952   -3.0720709   -5.1146673  
C    5.9870136   -1.8395314   -4.9503405  
C    6.7104650   -0.9205466   -5.7668477  
C    7.7377475   -1.6560533   -6.4115548  
N    7.6285283   -2.9585914   -5.9919318  
C    8.6477625   -1.0685958   -7.2956101  
C    8.5181961    0.2859691   -7.5333998  
O    9.3800131    0.9101033   -8.3882330  
C    7.4999200    1.0369472   -6.8993958  
O    7.5021886    2.3741339   -7.2389098  
C    6.6019871    0.4581177   -6.0269289  
H    8.2169974   -3.7155468   -6.2897625  
H    9.4330394   -1.6236189   -7.7900713  
H    9.1173385    1.8394966   -8.4104532  
H    6.7844550    2.8086805   -6.7681314  
H    5.8326700    1.0589421   -5.5561420  
H    6.3282882   -4.0228706   -4.6744088  
C    4.6190970   -2.0899185   -2.8279654  
C    3.4606685   -1.6280057   -2.2906063  
C    2.8761400   -0.7301694   -3.2586206  
C    3.7955630   -0.7067284   -4.4122679  
N    4.8319962   -1.5514031   -4.0878917  
C    3.5979911    0.0246977   -5.5381835  
C    2.3999524    0.8436573   -5.6190799  
O    2.1321343    1.5380346   -6.5908894  
C    1.4124497    0.8342976   -4.4088913  
O    0.4006153    1.5200499   -4.4654208  
C    1.7334695    0.0049281   -3.2500363  
H    3.0613136   -1.8865707   -1.3260993  
H    4.2848592    0.0276109   -6.3731166  
H    5.3352946   -2.7782579   -2.4094680  
C    1.1319246    0.0015678   -0.8009268  
C    0.7969914    0.0034958   -2.1169401  
C   -0.6453340    0.0035696   -2.1842669  
C   -1.1266832    0.0015410   -0.7896025  
N    0.0000000    0.0000000    0.0000000  
C   -2.4346129    0.0013913   -0.4276292  
C   -3.4350111    0.0031335   -1.4820181  
O   -4.6384614    0.0030875   -1.2583914  
C   -2.9478961    0.0050442   -2.9661074  
O   -3.7809382    0.0062135   -3.8623773  
C   -1.5113825    0.0053055   -3.2312122  
H   -2.7664565    0.0000174    0.6013448  
H   -1.1823533    0.0068381   -4.2614848  
H    2.1104316    0.0009435   -0.3488059  
C    2.5285572    2.1210227    2.9438989  
C    1.9331703    1.6216660    4.0790748  
C    0.8903039    0.7472258    3.6520102  
C    0.8972198    0.7527806    2.2336141  
N    1.9028376    1.5986179    1.8362361  
C    0.0000000    0.0000000    1.4700000  
C   -0.9207814   -0.7726952    2.1506477  
O   -1.8198395   -1.5274828    1.4542253  
C   -0.9436862   -0.7911793    3.5655508  
O   -1.9197945   -1.6098497    4.0950179  
C   -0.0590329   -0.0485852    4.3195194  
H    2.2150357    1.8593692    5.0905303  
H    2.1533708    1.7953814    0.8841339  
H   -2.3621246   -1.9821033    2.1118817  
H   -1.8668290   -1.5649508    5.0545920  
H   -0.1007624   -0.0827977    5.4019087  
H    3.3491200    2.8096064    2.8367138  
