62

C    1.7472395   -2.4124123   -7.7815808  
C    1.3137322   -1.1096722   -7.6955144  
C    1.6512411   -0.4762558   -8.9281826  
C    2.2941488   -1.4503076   -9.7342959  
N    2.3377040   -2.6139316   -9.0071785  
C    2.7641257   -1.1756266  -11.0221084  
C    2.5814971    0.1056135  -11.5050675  
O    3.0209349    0.4278869  -12.7564858  
C    1.9426681    1.0913514  -10.7157407  
O    1.8365543    2.3183894  -11.3374009  
C    1.4790151    0.8211516   -9.4450936  
H    2.7273787   -3.4828064   -9.3252849  
H    3.2550779   -1.9135503  -11.6414935  
H    2.7970572    1.3576045  -12.8934806  
H    1.3938730    2.9261600  -10.7371913  
H    0.9937874    1.5966490   -8.8640296  
H    1.6832456   -3.2133996   -7.0651430  
C    0.9350738   -0.7259371   -5.2319057  
C    0.6347946   -0.5089057   -6.5383532  
C   -0.4715643    0.4184294   -6.5675990  
C   -0.7935155    0.7260931   -5.1610139  
N    0.0950446    0.0004351   -4.4015596  
C   -1.7824171    1.5667801   -4.7647528  
C   -2.5832566    2.2114497   -5.7921729  
O   -3.4968565    2.9850705   -5.5369346  
C   -2.2600339    1.9000041   -7.2882794  
O   -2.9277087    2.4366153   -8.1620754  
C   -1.1693081    0.9767197   -7.5911235  
H   -2.0020411    1.7788917   -3.7276008  
H   -0.9517810    0.7665393   -8.6295016  
H    1.6992217   -1.3555725   -4.8058458  
C    3.3321173    0.0004713   -1.3379338  
C    2.6974181    0.0000116   -2.5332314  
C    1.2800438   -0.0002119   -2.2052841  
C    1.2395034    0.0000643   -0.7271299  
N    2.4394062    0.0005460   -0.2131038  
C    0.0000000    0.0000000    0.0000000  
C   -1.1468702    0.0000634   -0.7169543  
O   -2.3742203    0.0000074   -0.1695487  
C   -1.1388770    0.0001607   -2.2096355  
O   -2.2206234    0.0000905   -2.7970411  
C    0.1454522    0.0001815   -2.9324241  
H    3.1367984   -0.0000653   -3.5160950  
H   -2.9844346    0.0001026   -0.9290167  
H    4.3940038    0.0007618   -1.1498640  
C    0.8676693    0.7151171    2.2619005  
C    0.5875920    0.4624972    3.5848544  
C   -0.5048400   -0.4542819    3.6114698  
C   -0.8517165   -0.7276451    2.2635546  
N    0.0000000    0.0000000    1.4700000  
C   -1.8902865   -1.5946756    1.9108239  
C   -2.5912627   -2.1969500    2.9375057  
O   -3.6148162   -3.0527051    2.6493466  
C   -2.2603868   -1.9365747    4.2886322  
O   -3.0513550   -2.6123276    5.1947621  
C   -1.2361111   -1.0811317    4.6373480  
H    1.1060808    0.8876438    4.4271209  
H   -2.1597133   -1.8070987    0.8854031  
H   -3.9636755   -3.3565188    3.4974381  
H   -2.7621927   -2.3810384    6.0827341  
H   -1.0058879   -0.9010589    5.6809233  
H    1.6167816    1.3499334    1.8205408  
