64

C    2.1962520   -3.0746702   -8.9480690  
C    2.3913386   -2.9696252  -10.3057782  
C    2.1620952   -1.6057904  -10.6550656  
C    1.8279223   -0.9203549   -9.4590589  
N    1.8559635   -1.8420074   -8.4420106  
C    1.5373842    0.4468839   -9.4268878  
C    1.5853572    1.1347713  -10.6238369  
O    1.3107882    2.4715468  -10.6494515  
C    1.9164122    0.4684190  -11.8276619  
O    1.9215678    1.2911573  -12.9351002  
C    2.2028862   -0.8804327  -11.8601873  
H    2.6641190   -3.7769288  -10.9636879  
H    1.2818563    0.9751266   -8.5186661  
H    1.3994197    2.7509040  -11.5699777  
H    2.1545161    0.7633668  -13.7050191  
H    2.4530086   -1.3635295  -12.7974896  
H    2.2715194   -3.9316405   -8.3008476  
C    2.2783847   -2.0910255   -5.9524496  
C    1.7853127   -1.6292412   -4.7744386  
C    0.6997749   -0.7327360   -5.0949402  
C    0.6001065   -0.7099363   -6.5667883  
N    1.5849250   -1.5536732   -7.0262771  
C   -0.3061445    0.0202236   -7.2648431  
C   -1.2459586    0.8383997   -6.5165965  
O   -2.1000523    1.5316272   -7.0534947  
C   -1.1584128    0.8296992   -4.9570889  
O   -1.9441938    1.5148019   -4.3164303  
C   -0.1387079    0.0017019   -4.3179684  
H    2.1415246   -1.8870540   -3.7929805  
H   -0.3624283    0.0226852   -8.3445354  
H    3.0901479   -2.7785183   -6.1264735  
C    3.3041273    0.0001178   -1.5420428  
C    2.5845373   -0.0004780   -0.3695851  
C    1.2040007   -0.0000007   -0.7283589  
C    1.1422374    0.0006038   -2.1454372  
N    2.4348641    0.0026111   -2.6077464  
C   -0.0655179    0.0008799   -2.8497918  
C   -1.2321766    0.0002325   -2.1101402  
O   -2.4392814    0.0001148   -2.7472522  
C   -1.1911209   -0.0000007   -0.6955266  
O   -2.4371528   -0.0002320   -0.1032862  
C    0.0000000    0.0000000    0.0000000  
H    3.0031533   -0.0000660    0.6222584  
H    2.7054631   -0.0071097   -3.5745261  
H   -3.1132988   -0.0000648   -2.0551787  
H   -2.3200282   -0.0004072    0.8516409  
H    4.3686625    0.0004073   -1.7024290  
C    2.5311839    2.1237619    3.0120429  
C    1.9795631    1.6616747    1.8395852  
C    0.9223175    0.7739173    2.1983588  
C    0.8753926    0.7337535    3.6154372  
N    1.8668922    1.5631002    4.0777464  
C   -0.0496243   -0.0427881    4.3197917  
C   -0.9437528   -0.7922060    3.5801400  
O   -1.8685244   -1.5680278    4.2172520  
C   -0.9124520   -0.7656372    2.1655264  
O   -1.8671164   -1.5663939    1.5732860  
C    0.0000000    0.0000000    1.4700000  
H    2.3005065    1.9304404    0.8477417  
H    2.0679347    1.7444845    5.0445261  
H   -0.0904770   -0.0778569    5.3997470  
H   -2.3849669   -2.0011402    3.5251786  
H   -1.7775064   -1.4909735    0.6183591  
H    3.3468514    2.8078103    3.1724291  
