62

C    0.5380224   -3.2601893  -10.3939060  
C    0.4173665   -2.5539010   -9.2195696  
C    0.1746200   -1.1939196   -9.5747107  
C    0.1574245   -1.1304596  -10.9916097  
N    0.3831928   -2.4019782  -11.4573212  
C   -0.0570060    0.0599891  -11.6927803  
C   -0.2580368    1.2072217  -10.9500672  
O   -0.4724097    2.3968405  -11.5839968  
C   -0.2441095    1.1642194   -9.5355804  
O   -0.4593393    2.3899386   -8.9400709  
C   -0.0323591   -0.0097871   -8.8431965  
H    0.4958770   -2.9677714   -8.2288425  
H    0.4161802   -2.6683706  -12.4247543  
H   -0.0711526    0.1150397  -12.7725816  
H   -0.5870546    3.0591936  -10.8901600  
H   -0.4343180    2.2728756   -7.9854647  
H    0.7236968   -4.3079753  -10.5570910  
C    2.4782021   -2.1081876   -5.8783640  
C    1.9212515   -1.6438940   -7.0265418  
C    0.8545985   -0.7486150   -6.6450159  
C    0.8356633   -0.7292245   -5.1698698  
N    1.8439053   -1.5742004   -4.7669395  
C   -0.0307352   -0.0004646   -4.4215603  
C   -1.0100801    0.8193482   -5.1153371  
O   -1.8333384    1.5114170   -4.5308821  
C   -1.0083720    0.8138722   -6.6773139  
O   -1.8284255    1.4999049   -7.2724035  
C   -0.0251095   -0.0124251   -7.3732162  
H    2.2230621   -1.8995540   -8.0266228  
H    3.2985200   -2.7956864   -5.7506354  
H    2.0835085   -1.7709326   -3.8125107  
C    3.2573670   -0.0002920   -1.5109380  
C    2.5379468   -0.0001709   -0.3591961  
C    1.1435043    0.0000332   -0.7338500  
C    1.1092609   -0.0000082   -2.2088477  
N    2.4227562    0.0001909   -2.6182613  
C   -0.0265532   -0.0002522   -2.9515663  
C   -1.3003035   -0.0002639   -2.2514981  
O   -2.3786784   -0.0004131   -2.8306429  
C   -1.2877725    0.0000312   -0.6895608  
O   -2.3539958    0.0003307   -0.0892036  
C    0.0000000    0.0000000    0.0000000  
H    2.9384091   -0.0000369    0.6389239  
H    4.3270394   -0.0004765   -1.6439446  
H    2.7280494   -0.0013406   -3.5742113  
C    2.5285572    2.1210227    2.9438989  
C    1.9331703    1.6216660    4.0790748  
C    0.8903039    0.7472258    3.6520102  
C    0.8972198    0.7527806    2.2336141  
N    1.9028376    1.5986179    1.8362361  
C    0.0000000    0.0000000    1.4700000  
C   -0.9207814   -0.7726952    2.1506477  
O   -1.8198395   -1.5274828    1.4542253  
C   -0.9436862   -0.7911793    3.5655508  
O   -1.9197945   -1.6098497    4.0950179  
C   -0.0590329   -0.0485852    4.3195194  
H    2.2150357    1.8593692    5.0905303  
H    2.1533708    1.7953814    0.8841339  
H   -2.3621246   -1.9821033    2.1118817  
H   -1.8668290   -1.5649508    5.0545920  
H   -0.1007624   -0.0827977    5.4019087  
H    3.3491200    2.8096064    2.8367138  
