62

C    1.9823676   -4.5497776   -6.5987597  
C    2.9031294   -4.3374556   -7.5985520  
C    2.7723180   -2.9757969   -8.0027459  
C    1.7474803   -2.4021649   -7.2073978  
N    1.2879506   -3.3855648   -6.3669365  
C    1.3492431   -1.0679433   -7.3340839  
C    1.9975899   -0.2987066   -8.2807092  
O    1.6484469    1.0104251   -8.4458982  
C    3.0223390   -0.8530796   -9.0840639  
O    3.5707245    0.0407522   -9.9805461  
C    3.4155395   -2.1693172   -8.9598149  
H    3.5844232   -5.0737535   -7.9893183  
H    0.5661336   -3.2702384   -5.6787062  
H    2.2153686    1.3578694   -9.1467160  
H    4.2540451   -0.4131592  -10.4831800  
H    4.2034461   -2.5660357   -9.5893345  
H    1.7650506   -5.4399469   -6.0336669  
C    0.0902056   -0.6999990   -5.1620330  
C   -0.9736297    0.0040464   -4.6965763  
C   -1.5078553    0.7471499   -5.8133733  
C   -0.6620043    0.4159215   -6.9759624  
N    0.2881862   -0.4654794   -6.5142695  
C   -0.8409762    0.9165753   -8.2245694  
C   -1.9398966    1.8436895   -8.4375671  
O   -2.1836163    2.3491297   -9.5254237  
C   -2.8482828    2.2087976   -7.2204658  
O   -3.7763827    2.9885181   -7.3875803  
C   -2.5561683    1.6045646   -5.9229975  
H   -0.2091452    0.6605473   -9.0637052  
H   -3.1899802    1.8623998   -5.0854247  
H    0.7463588   -1.3702751   -4.6309189  
C    1.1188642    0.0008222   -0.8003808  
C    0.0000000    0.0000000    0.0000000  
C   -1.1323862    0.0008899   -0.8673528  
C   -0.6382663    0.0019679   -2.1969280  
N    0.7324016    0.0038481   -2.1202242  
C   -1.4770914    0.0027318   -3.3154808  
C   -2.8395473    0.0020945   -3.0876857  
O   -3.7039201    0.0024425   -4.1440349  
C   -3.3517868    0.0013931   -1.7684331  
O   -4.7300497    0.0012366   -1.7073121  
C   -2.5248543    0.0009123   -0.6644817  
H    1.3576314   -0.0056167   -2.9057046  
H   -4.5940032    0.0021826   -3.7685128  
H   -4.9934602    0.0007259   -0.7819913  
H   -2.9462577    0.0005603    0.3339659  
H    2.1619895    0.0009355   -0.5342068  
C    2.3971438    2.0127888    3.1728260  
C    1.9431056    1.6308205    1.9564670  
C    0.8496017    0.7127664    2.2356185  
C    0.7794028    0.6545384    3.7115134  
N    1.6840587    1.4146091    4.2663826  
C   -0.1885723   -0.1578550    4.3957118  
C   -1.0476298   -0.8789867    3.6398520  
O   -2.0015663   -1.6796266    4.1448486  
C   -1.0022026   -0.8410666    2.1483229  
O   -1.8147390   -1.5232959    1.5241687  
C    0.0000000    0.0000000    1.4700000  
H    2.3054237    1.9346118    0.9892483  
H   -0.2170646   -0.1815267    5.4753125  
H   -2.4487139   -2.0549881    3.3649027  
H    3.2048689    2.6911772    3.3971983  
