60

C    1.7112664    2.1278806   -8.1834459  
C    2.6137342    1.6655191   -7.2538004  
C    3.4978719    0.7788447   -7.9369610  
C    3.0824801    0.7395941   -9.2926291  
N    1.9941464    1.5684184   -9.4075089  
C    3.7293491   -0.0357589  -10.2596740  
C    4.8155242   -0.7849048   -9.8507950  
O    5.4839793   -1.5595796  -10.7541560  
C    5.2449031   -0.7592353   -8.5025395  
O    6.3405369   -1.5595794   -8.2527823  
C    4.6070604    0.0052291   -7.5479313  
H    2.6318265    1.9334107   -6.2112555  
H    1.4901861    1.7502356  -10.2565949  
H    3.4175978   -0.0701277  -11.2944833  
H    6.1972841   -1.9926987  -10.2674641  
H    6.5655788   -1.4848220   -7.3203814  
H    0.8872997    2.8113633   -8.0699145  
C    2.4521485    0.0014838   -3.7217479  
C    3.5087829    0.0013018   -2.8687536  
C    4.7039153    0.0022077   -3.6789965  
C    4.2537130    0.0029670   -5.0840257  
N    2.8785571    0.0020815   -5.0411852  
C    5.0840330    0.0043213   -6.1574650  
C    6.5167217    0.0048560   -5.9126433  
O    7.3462788    0.0060000   -6.8127180  
C    7.0158850    0.0038165   -4.4325618  
O    8.2198463    0.0039481   -4.2140696  
C    6.0245775    0.0026607   -3.3596402  
H    3.4569042    0.0004294   -1.7945464  
H    6.3784142    0.0021512   -2.3376213  
H    2.2773147    0.0038590   -5.8446475  
C    0.0000000    0.0000000    0.0000000  
C    1.0662924   -0.0000102   -0.8334267  
C    0.4961874    0.0000064   -2.1718888  
C   -0.9663853   -0.0000849   -1.9540250  
N   -1.2632772   -0.0000084   -0.6828660  
C   -1.8985357   -0.0000515   -3.0477261  
C   -1.3925767    0.0004566   -4.3020548  
O   -2.1456375    0.0005411   -5.4151316  
C    0.0786242    0.0009324   -4.5545000  
O    0.4683770    0.0012590   -5.7221099  
C    1.0143173    0.0008443   -3.4159029  
H    2.1107200    0.0000632   -0.5721862  
H   -2.9622180   -0.0003269   -2.8593382  
H   -1.5042262    0.0009694   -6.1484423  
C    3.3321173   -0.0004715    2.8079335  
C    2.6974184   -0.0000116    4.0032312  
C    1.2800439    0.0002118    3.6752840  
C    1.2395035   -0.0000644    2.1971295  
N    2.4394063   -0.0005460    1.6831036  
C    0.0000000    0.0000000    1.4700000  
C   -1.1468701   -0.0000635    2.1869543  
O   -2.3742202   -0.0000073    1.6395491  
C   -1.1388768   -0.0001607    3.6796354  
O   -2.2206231   -0.0000905    4.2670412  
C    0.1454524   -0.0001816    4.4024240  
H    3.1367986    0.0000651    4.9860947  
H   -2.9844344   -0.0001026    2.3990168  
H    0.1083576   -0.0003682    5.4835595  
H    4.3940039   -0.0007619    2.6198634  
