62

C    7.6143629   -0.6160524   -4.5945802  
C    8.9811728   -0.5444132   -4.4561349  
C    9.3543195    0.8098749   -4.7036527  
C    8.1628312    1.5241839   -4.9900863  
N    7.1253132    0.6281521   -4.9172788  
C    8.1525091    2.8912390   -5.2830765  
C    9.3670804    3.5492522   -5.2866868  
O    9.4143822    4.8844475   -5.5660220  
C   10.5667211    2.8538203   -5.0037484  
O   11.6934487    3.6487855   -5.0468340  
C   10.5776832    1.5051301   -4.7148873  
H    9.6296302   -1.3672951   -4.2084225  
H    7.2478365    3.4414011   -5.5023730  
H   10.3444239    5.1410077   -5.5163699  
H   12.4590563    3.1024691   -4.8443779  
H   11.5122948    0.9993661   -4.5023275  
H    6.9497990   -1.4565239   -4.4900769  
C    3.4561763   -0.7190138   -2.8481102  
C    2.5562217   -0.0001543   -3.6003001  
C    3.3101151    0.7284357   -4.5674617  
C    4.6762621    0.4113550   -4.3552633  
N    4.7296901   -0.4684434   -3.3027815  
C    5.7071390    0.9510662   -5.1303717  
C    5.3524129    1.8265868   -6.1382457  
O    6.3191170    2.3824152   -6.9253621  
C    3.9948292    2.1556039   -6.3652500  
O    3.8040494    3.0416284   -7.4053983  
C    2.9773417    1.6237533   -5.6008022  
H    5.5674400   -0.8778045   -2.9305179  
H    5.8624166    2.9545440   -7.5557260  
H    2.8608924    3.2107457   -7.4917594  
H    1.9467145    1.8945832   -5.7981255  
H    3.2905207   -1.3895455   -2.0223352  
C    0.0000000    0.0000000    0.0000000  
C    1.0541688   -0.0001719   -0.8560391  
C    0.5103141   -0.0000449   -2.1935955  
C   -0.9576367    0.0002461   -2.0455733  
N   -1.2018459   -0.0001392   -0.6915970  
C   -1.8348306    0.0008319   -3.0810611  
C   -1.2972842    0.0009739   -4.4314605  
O   -2.0050664    0.0014267   -5.4301321  
C    0.2542628    0.0004190   -4.6117571  
O    0.7184677    0.0002263   -5.7439119  
C    1.0974556    0.0000880   -3.4189127  
H    2.0940752   -0.0005479   -0.5817978  
H   -2.9081050    0.0011669   -2.9507065  
H   -2.1128195    0.0014911   -0.2706793  
C    0.0000000    0.0000000    1.4700000  
C    1.0662921    0.0000102    2.3034270  
C    0.4961870   -0.0000064    3.6418889  
C   -0.9663858    0.0000850    3.4240247  
N   -1.2632773    0.0000084    2.1528658  
C   -1.8985362    0.0000517    4.5177257  
C   -1.3925775   -0.0004564    5.7720543  
O   -2.1456383   -0.0005410    6.8851312  
C    0.0786232   -0.0009323    6.0245000  
O    0.4683759   -0.0012588    7.1921102  
C    1.0143166   -0.0008442    4.8859032  
H    2.1107198   -0.0000632    2.0421868  
H   -2.9622183    0.0003270    4.3293377  
H   -1.5042274   -0.0009692    7.6184419  
H    2.0724152   -0.0013148    5.1109744  
