64

C    0.0585234    0.5411040   -9.3814618  
C    1.1399815   -0.3090733   -9.3921409  
C    1.6455449   -0.3229347  -10.7258630  
C    0.8253909    0.5453887  -11.4909039  
N   -0.1294313    1.0518250  -10.6444682  
C    1.0329737    0.7756797  -12.8542326  
C    2.0878963    0.1176468  -13.4561548  
O    2.3358088    0.3066239  -14.7850040  
C    2.9171661   -0.7529726  -12.7097296  
O    3.9246872   -1.3334257  -13.4522397  
C    2.7128031   -0.9808428  -11.3648004  
H    1.5173132   -0.8532638   -8.5433356  
H   -0.8463046    1.7054708  -10.9029668  
H    0.4113852    1.4361610  -13.4429553  
H    3.1043468   -0.2379807  -14.9995271  
H    4.4377600   -1.9058267  -12.8736914  
H    3.3644377   -1.6533397  -10.8192747  
C    0.0796643   -0.6812978   -5.1990247  
C   -0.9736297    0.0040464   -4.6965763  
C   -1.5081918    0.7505045   -5.8250903  
C   -0.6327095    0.3877371   -6.9602181  
N    0.2998663   -0.4513330   -6.5993112  
C   -0.8331627    0.9253259   -8.2777545  
C   -1.8617117    1.7858881   -8.4534055  
O   -2.1648983    2.3633121   -9.6284381  
C   -2.7630772    2.1712714   -7.3277145  
O   -3.6792554    2.9598474   -7.5600624  
C   -2.5367632    1.6062684   -5.9855225  
H   -2.9414846    2.9199430   -9.4381000  
H   -3.2118811    1.9104826   -5.1969162  
H    0.7431976   -1.3540085   -4.6792578  
C    1.1188642    0.0008222   -0.8003808  
C    0.0000000    0.0000000    0.0000000  
C   -1.1323862    0.0008899   -0.8673528  
C   -0.6382663    0.0019679   -2.1969280  
N    0.7324016    0.0038481   -2.1202242  
C   -1.4770914    0.0027318   -3.3154808  
C   -2.8395473    0.0020945   -3.0876857  
O   -3.7039201    0.0024425   -4.1440349  
C   -3.3517868    0.0013931   -1.7684331  
O   -4.7300497    0.0012366   -1.7073121  
C   -2.5248543    0.0009123   -0.6644817  
H    1.3576314   -0.0056167   -2.9057046  
H   -4.5940032    0.0021826   -3.7685128  
H   -4.9934602    0.0007259   -0.7819913  
H   -2.9462577    0.0005603    0.3339659  
H    2.1619895    0.0009355   -0.5342068  
C    2.5311839    2.1237619    3.0120429  
C    1.9795631    1.6616747    1.8395852  
C    0.9223175    0.7739173    2.1983588  
C    0.8753926    0.7337535    3.6154372  
N    1.8668922    1.5631002    4.0777464  
C   -0.0496243   -0.0427881    4.3197917  
C   -0.9437528   -0.7922060    3.5801400  
O   -1.8685244   -1.5680278    4.2172520  
C   -0.9124520   -0.7656372    2.1655264  
O   -1.8671164   -1.5663939    1.5732860  
C    0.0000000    0.0000000    1.4700000  
H    2.3005065    1.9304404    0.8477417  
H    2.0679347    1.7444845    5.0445261  
H   -0.0904770   -0.0778569    5.3997470  
H   -2.3849669   -2.0011402    3.5251786  
H   -1.7775064   -1.4909735    0.6183591  
H    3.3468514    2.8078103    3.1724291  
