62

C   -4.2084846    0.7193438   -5.9237078  
C   -3.6195471    0.0022387   -6.9392765  
C   -4.6583322   -0.7257393   -7.5916363  
C   -5.8698005   -0.4101107   -6.9248150  
N   -5.5606140    0.4682698   -5.9161184  
C   -7.1033178   -0.9496990   -7.3017339  
C   -7.1141059   -1.8236006   -8.3714800  
O   -8.2914134   -2.3792353   -8.7816408  
C   -5.9157414   -2.1511538   -9.0493064  
O   -6.0916297   -3.0356579  -10.0933650  
C   -4.6984475   -1.6194238   -8.6778417  
H   -6.2208310    0.8764249   -5.2793272  
H   -8.0301862   -0.7132727   -6.7975315  
H   -8.0774533   -2.9501495   -9.5310017  
H   -5.2347245   -3.2038515  -10.4971324  
H   -3.7972274   -1.8891100   -9.2159406  
H   -3.7708155    1.3889416   -5.2032612  
C   -0.1387078    0.0017019   -4.3179684  
C    0.8847660    0.0023481   -5.2034512  
C    0.2487272    0.0030116   -6.5118679  
C   -1.2011844    0.0025370   -6.2214541  
N   -1.4344179    0.0018496   -4.9370902  
C   -2.1866331    0.0030154   -7.2673880  
C   -1.7437539    0.0043154   -8.5453517  
O   -2.5512997    0.0048878   -9.6195541  
C   -0.2869470    0.0051954   -8.8707332  
O    0.0441880    0.0062447  -10.0563002  
C    0.7042755    0.0046375   -7.7801362  
H    1.9409051    0.0024621   -4.9945362  
H   -1.9471954    0.0058404  -10.3838892  
H    1.7498559    0.0054233   -8.0576094  
C    3.3041272    0.0001178   -1.5420428  
C    2.5845372   -0.0004779   -0.3695851  
C    1.2040007   -0.0000007   -0.7283589  
C    1.1422375    0.0006038   -2.1454371  
N    2.4348641    0.0026111   -2.6077464  
C   -0.0655179    0.0008799   -2.8497918  
C   -1.2321766    0.0002325   -2.1101402  
O   -2.4392816    0.0001148   -2.7472523  
C   -1.1911209   -0.0000007   -0.6955266  
O   -2.4371527   -0.0002320   -0.1032863  
C    0.0000000    0.0000000    0.0000000  
H    3.0031533   -0.0000660    0.6222584  
H    2.7054632   -0.0071097   -3.5745261  
H   -3.1132986   -0.0000648   -2.0551788  
H   -2.3200284   -0.0004071    0.8516409  
H    4.3686626    0.0004072   -1.7024289  
C    2.5528530    2.1414826    2.8079335  
C    2.0663498    1.7338582    4.0032312  
C    0.9804344    0.8229586    3.6752840  
C    0.9495562    0.7966882    2.1971295  
N    1.8690446    1.5676019    1.6831036  
C    0.0000000    0.0000000    1.4700000  
C   -0.8785127   -0.7372425    2.1869543  
O   -1.8187535   -1.5261249    1.6395491  
C   -0.8723269   -0.7321790    3.6796354  
O   -1.7010379   -1.4274584    4.2670412  
C    0.1115397    0.0933559    4.4024240  
H    2.4028853    2.0163452    4.9860947  
H   -2.2861435   -1.9184361    2.3990168  
H    0.0832434    0.0693689    5.4835595  
H    3.3664920    2.8238276    2.6198634  
