62

C    0.0879427    0.6898293   -9.3297408  
C    1.1874943   -0.1271335   -9.4563362  
C    1.6174714   -0.0392184  -10.8135357  
C    0.7346848    0.8540999  -11.4727750  
N   -0.1831076    1.2768864  -10.5435136  
C    0.8596253    1.1791269  -12.8268564  
C    1.8947702    0.5918874  -13.5281423  
O    2.0629092    0.8745744  -14.8528416  
C    2.7856654   -0.3022434  -12.8881012  
O    3.7637040   -0.8042017  -13.7216616  
C    2.6628447   -0.6235574  -11.5523618  
H    1.6250976   -0.7150701   -8.6677758  
H   -0.9290995    1.9257193  -10.7181353  
H    0.1900084    1.8591302  -13.3351966  
H    2.8312204    0.3670064  -15.1449690  
H    4.3222889   -1.3987261  -13.2116349  
H    3.3603160   -1.3118671  -11.0894991  
C    0.2315709   -0.7260330   -5.1498923  
C    0.4808482   -0.5092810   -6.4670690  
C   -0.5209812    0.4176789   -6.9381511  
C   -1.3804947    0.7254270   -5.7791354  
N   -0.8712826    0.0001710   -4.7267111  
C   -2.4455050    1.5658368   -5.8133218  
C   -2.7667995    2.2100971   -7.0759516  
O   -3.7062213    2.9834465   -7.2090631  
C   -1.8701899    1.8985556   -8.3164506  
O   -2.1311487    2.4348231   -9.3848971  
C   -0.7493901    0.9755953   -8.1558114  
H    1.2756989   -0.9487542   -7.0429935  
H   -3.0629936    1.7780166   -4.9515805  
H    0.7606207   -1.3553541   -4.4527900  
C    1.0965514    0.0001359   -0.8010305  
C    0.0000000    0.0000000    0.0000000  
C   -1.1546563    0.0001470   -0.8669513  
C   -0.6372014    0.0003519   -2.2486282  
N    0.7342871    0.0007337   -2.1395014  
C   -1.4147739    0.0001352   -3.3608717  
C   -2.8576049   -0.0001048   -3.1854462  
O   -3.6427779   -0.0002494   -4.1244907  
C   -3.4275840   -0.0000725   -1.7311666  
O   -4.6406831    0.0000333   -1.5710060  
C   -2.4891867   -0.0001091   -0.6116744  
H   -2.8919122   -0.0002918    0.3920866  
H    2.1388272    0.0000663   -0.5261648  
H    1.3735872   -0.0006099   -2.9130262  
C    0.8576279    0.7185626    2.2703808  
C    0.0000000    0.0000000    1.4700000  
C   -0.8668858   -0.7285659    2.3373528  
C   -0.4876752   -0.4117774    3.6669281  
N    0.5635254    0.4678311    3.5902241  
C   -1.1297612   -0.9515493    4.7854808  
C   -2.1738724   -1.8268314    4.5576857  
O   -2.8357962   -2.3827064    5.6140350  
C   -2.5667212   -2.1555554    3.2384331  
O   -3.6226318   -3.0413663    3.1773122  
C   -1.9335634   -1.6236449    2.1344818  
H    1.0363952    0.8769718    4.3757045  
H   -0.8454472   -0.7142436    5.8013813  
H   -3.5178062   -2.9546422    5.2385129  
H   -3.8247440   -3.2102924    2.2519915  
H   -2.2566033   -1.8942483    1.1360343  
H    1.6567807    1.3889844    2.0042067  
