64

C   -0.8349615   -0.6164621   -9.5215638  
C   -0.5750277   -0.5448131  -10.8705521  
C   -0.7882980    0.8094651  -11.2643111  
C   -1.1800087    1.5237582  -10.1031590  
N   -1.2000942    0.6277267   -9.0632832  
C   -1.4728109    2.8908003  -10.1190413  
C   -1.3679850    3.5488167  -11.3290842  
O   -1.6420403    4.8840001  -11.4011408  
C   -0.9790281    2.8534006  -12.4986681  
O   -0.9213700    3.6483673  -13.6247432  
C   -0.6902826    1.5047233  -12.4837920  
H   -0.2703666   -1.3676820  -11.4942996  
H   -1.7720354    3.4409502   -9.2375649  
H   -1.5095527    5.1405647  -12.3230343  
H   -0.6513359    3.1020618  -14.3692144  
H   -0.3950965    0.9989713  -13.3956900  
H   -0.7901783   -1.4569308   -8.8503227  
C    0.5332460   -0.7193580   -5.2240418  
C   -0.2963293   -0.0005341   -4.3948471  
C   -1.1923437    0.7280151   -5.2320894  
C   -0.8589935    0.4109477   -6.5738313  
N    0.1940939   -0.4688040   -6.5330672  
C   -1.5389810    0.9506274   -7.6698017  
C   -2.5745419    1.8261025   -7.4064881  
O   -3.2722204    2.3818987   -8.4396146  
C   -2.9218747    2.1551058   -6.0745971  
O   -3.9749424    3.0410837   -5.9774569  
C   -2.2513096    1.6232861   -4.9929146  
H    0.6396925   -0.8781463   -7.3342302  
H   -3.9408710    2.9539986   -8.0410249  
H   -4.1451819    3.2101945   -5.0457790  
H   -2.5398834    1.8941046   -3.9840238  
H    1.3409607   -1.3898536   -4.9853125  
C    3.1301146   -0.0010313   -1.7028256  
C    2.5367765   -0.0002766   -0.4864669  
C    1.1089901    0.0001027   -0.7656184  
C    1.0177865   -0.0004150   -2.2415133  
N    2.1993571   -0.0011612   -2.7963824  
C   -0.2459219   -0.0002879   -2.9257116  
C   -1.3675326   -0.0000606   -2.1698520  
O   -2.6129318    0.0000865   -2.6748483  
C   -1.3083588    0.0000910   -0.6783229  
O   -2.3693264    0.0004206   -0.0541685  
C    0.0000000    0.0000000    0.0000000  
H    3.0096016   -0.0001007    0.4807518  
H   -3.1967444    0.0002093   -1.8949026  
H    4.1849275   -0.0015114   -1.9271979  
C    2.5285572    2.1210227    2.9438989  
C    1.9331703    1.6216660    4.0790748  
C    0.8903039    0.7472258    3.6520102  
C    0.8972198    0.7527806    2.2336141  
N    1.9028376    1.5986179    1.8362361  
C    0.0000000    0.0000000    1.4700000  
C   -0.9207814   -0.7726952    2.1506477  
O   -1.8198395   -1.5274828    1.4542253  
C   -0.9436862   -0.7911793    3.5655508  
O   -1.9197945   -1.6098497    4.0950179  
C   -0.0590329   -0.0485852    4.3195194  
H    2.2150357    1.8593692    5.0905303  
H    2.1533708    1.7953814    0.8841339  
H   -2.3621246   -1.9821033    2.1118817  
H   -1.8668290   -1.5649508    5.0545920  
H   -0.1007624   -0.0827977    5.4019087  
H    3.3491200    2.8096064    2.8367138  
