62

C    4.1868705   -3.5952394    0.3533019  
C    4.9892786   -2.9448582   -0.5553306  
C    6.3322841   -3.3409501   -0.2832129  
C    6.2868293   -4.2419259    0.8113650  
N    4.9694204   -4.3726669    1.1746244  
C    7.4323067   -4.8348524    1.3509123  
C    8.6457447   -4.5126081    0.7748018  
O    9.7956058   -5.0633422    1.2621687  
C    8.7116001   -3.6154545   -0.3177161  
O    9.9927355   -3.3956551   -0.7800166  
C    7.5819922   -3.0299353   -0.8503320  
H    4.6270719   -4.9565614    1.9161412  
H    7.4043942   -5.5222098    2.1851557  
H   10.5166233   -4.7100289    0.7249827  
H    9.9484608   -2.7790300   -1.5171847  
H    7.6636733   -2.3463669   -1.6873154  
H    3.1184004   -3.5649711    0.4814193  
C    4.5241706   -2.0197347   -1.5987485  
C    3.2543043   -1.6359768   -1.8666074  
C    3.3687740   -0.7183913   -2.9897430  
C    4.8178233   -0.6623652   -3.2790548  
N    5.5001622   -1.4232185   -2.4669559  
C    5.3513654    0.1489621   -4.3383784  
C    4.4770153    0.8711781   -5.0754339  
O    4.8354301    1.6710200   -6.0941750  
C    3.0088457    0.8354821   -4.8082932  
O    2.2716047    1.5186015   -5.5189576  
C    2.4861704   -0.0045255   -3.7159919  
H    2.3514142   -1.9383095   -1.3641534  
H    6.4147065    0.1710243   -4.5273997  
H    3.9981226    2.0475216   -6.4202358  
C    0.0000000    0.0000000    0.0000000  
C    1.0521669   -0.0011848   -0.8862341  
C    0.4917221   -0.0011931   -2.1979130  
C   -0.9187427    0.0003100   -2.0478683  
N   -1.1833170   -0.0009472   -0.7007915  
C   -1.7951698    0.0010259   -3.1372090  
C   -1.2375835    0.0005161   -4.4010425  
O   -2.0474208    0.0015256   -5.4997580  
C    0.1673584   -0.0013557   -4.5711962  
O    0.5673529   -0.0020659   -5.8915551  
C    1.0325773   -0.0023359   -3.4969890  
H    2.0953059   -0.0030542   -0.6200560  
H   -2.0989777    0.0102265   -0.2891825  
H   -2.8710930    0.0020274   -3.0295514  
H   -1.4634881    0.0006427   -6.2693593  
H    1.5290715   -0.0033076   -5.9180042  
C    1.0672568    0.0000697    2.3021913  
C    0.0000000    0.0000000    1.4700000  
C   -1.1601224    0.0000736    2.3478473  
C   -0.5938729    0.0000769    3.7138435  
N    0.7113367    0.0001554    3.6934124  
C   -1.4286986    0.0001879    4.8835240  
C   -2.7683114    0.0006799    4.6970523  
O   -3.6653903    0.0008304    5.6976972  
C   -3.3702025    0.0010610    3.3310774  
O   -4.5974910    0.0013779    3.2362962  
C   -2.4926826    0.0008943    2.1470656  
H   -0.9878360   -0.0000190    5.8697035  
H   -4.5324246    0.0012261    5.2533954  
H   -2.9677772    0.0012974    1.1752040  
H    2.1134392    0.0000545    2.0405121  
