62

C   -9.1941438    3.2869908   -1.7849201  
C   -8.0194146    2.6036578   -1.9983082  
C   -8.3660675    1.2370158   -2.2144616  
C   -9.7784547    1.1460227   -2.1206144  
N  -10.2495891    2.4082603   -1.8571629  
C  -10.4710722   -0.0578438   -2.2811619  
C   -9.7243114   -1.1904327   -2.5414859  
O  -10.3499180   -2.3921621   -2.7072464  
C   -8.3141878   -1.1199403   -2.6384323  
O   -7.7137401   -2.3338632   -2.9014866  
C   -7.6302191    0.0673161   -2.4798923  
H   -7.0337915    3.0367144   -1.9971035  
H  -11.2164383    2.6557976   -1.7480406  
H  -11.5473871   -0.1338761   -2.2106907  
H   -9.6544983   -3.0409084   -2.8769071  
H   -6.7625601   -2.1982638   -2.9512104  
H   -9.3625469    4.3314165   -1.5854855  
C   -4.3329665    2.1450166   -0.3175484  
C   -5.5711456    1.7385431   -0.6826118  
C   -5.3538018    0.8273993   -1.7957508  
C   -3.8860920    0.7997433   -1.9736450  
N   -3.2823480    1.5701205   -1.1099310  
C   -3.2578655    0.0024282   -2.9908505  
C   -4.0594180   -0.7340898   -3.7935894  
O   -3.6090879   -1.5234311   -4.7836320  
C   -5.5440614   -0.7276254   -3.6388177  
O   -6.2117105   -1.4223047   -4.4049022  
C   -6.1645244    0.0985302   -2.5879055  
H   -6.5153527    2.0219329   -0.2499008  
H   -4.4116857   -1.9150018   -5.1730704  
H   -4.0641812    2.8271376    0.4732985  
C    0.0000000    0.0000000    0.0000000  
C    1.0521666   -0.0011982   -0.8862343  
C    0.4917215   -0.0011996   -2.1979132  
C   -0.9187429    0.0003215   -2.0478682  
N   -1.1833171   -0.0009323   -0.7007913  
C   -1.7951703    0.0010483   -3.1372089  
C   -1.2375841    0.0005313   -4.4010422  
O   -2.0474218    0.0015510   -5.4997578  
C    0.1673576   -0.0013585   -4.5711963  
O    0.5673520   -0.0020735   -5.8915554  
C    1.0325768   -0.0023493   -3.4969892  
H    2.0953056   -0.0030808   -0.6200564  
H   -2.0989778    0.0102529   -0.2891822  
H   -1.4634888    0.0006601   -6.2693595  
H    1.5290707   -0.0033271   -5.9180047  
H    2.1042146   -0.0039770   -3.6584456  
C    0.0000000    0.0000000    1.4700000  
C    1.0541688    0.0001722    2.3260392  
C    0.5103138    0.0000454    3.6635956  
C   -0.9576371   -0.0002459    3.5155732  
N   -1.2018458    0.0001392    2.1615969  
C   -1.8348311   -0.0008317    4.5510609  
C   -1.2972847   -0.0009736    5.9014604  
O   -2.0050672   -0.0014265    6.9001319  
C    0.2542623   -0.0004184    6.0817573  
O    0.7184670   -0.0002256    7.2139121  
C    1.0974552   -0.0000873    4.8889129  
H    2.0940752    0.0005483    2.0517982  
H   -2.9081052   -0.0011668    4.4207061  
H    2.1707277    0.0000911    5.0223670  
H   -2.1128194   -0.0014912    1.7406791  
