64

C    7.0002333   -3.0331759   -4.3402137  
C    7.4055421   -3.6821009   -3.1969341  
C    8.5384128   -4.4747682   -3.5474795  
C    8.7801189   -4.2670480   -4.9296359  
N    7.8269414   -3.3879273   -5.3804312  
C    9.8246300   -4.8924990   -5.6170934  
C   10.6401780   -5.7429025   -4.8960713  
O   11.6752287   -6.3793401   -5.5178645  
C   10.4148460   -5.9632980   -3.5164098  
O   11.3126112   -6.8375262   -2.9392734  
C    9.3844377   -5.3468231   -2.8376288  
H    6.9410669   -3.5957264   -2.2295690  
H    7.7523656   -3.0448383   -6.3210216  
H   10.0140608   -4.7384944   -6.6704696  
H   12.1101165   -6.9168342   -4.8431512  
H   11.0902983   -6.9309361   -2.0079005  
H    9.2364042   -5.5352780   -1.7807232  
C    5.8883844   -2.0954747   -4.5533061  
C    4.9762274   -1.6321308   -3.6603568  
C    4.1010830   -0.7362690   -4.3789592  
C    4.5815863   -0.7155458   -5.7737629  
N    5.6672527   -1.5597487   -5.8130038  
C    4.0183660    0.0134746   -6.7702647  
C    2.8618710    0.8325284   -6.4474560  
O    2.2840239    1.5248518   -7.2751529  
C    2.3361182    0.8260250   -4.9766239  
O    1.3633188    1.5118827   -4.6928606  
C    3.0267438   -0.0008951   -3.9901699  
H    4.9226755   -1.8885071   -2.6172766  
H    4.3863443    0.0144162   -7.7868770  
H    6.2134523   -1.7579029   -6.6312018  
C    3.3003547    0.0005277   -1.4738986  
C    2.5232816    0.0003497   -2.6090746  
C    1.1623203   -0.0001319   -2.1820102  
C    1.1711884    0.0000584   -0.7636141  
N    2.4852301   -0.0014919   -0.3662359  
C    0.0000000    0.0000000    0.0000000  
C   -1.2020383    0.0000520   -0.6806479  
O   -2.3759248    0.0003493    0.0157745  
C   -1.2314655   -0.0005115   -2.0955511  
O   -2.5054388   -0.0008040   -2.6250184  
C   -0.0764513   -0.0007274   -2.8495195  
H    2.8036266    0.0088183    0.5858662  
H   -3.0835639    0.0000346   -0.6418822  
H   -2.4360043   -0.0011529   -3.5845924  
H   -0.1304091   -0.0013423   -3.9319089  
H    4.3715553    0.0004897   -1.3667133  
C    2.5311839    2.1237619    3.0120429  
C    1.9795631    1.6616747    1.8395852  
C    0.9223175    0.7739173    2.1983588  
C    0.8753926    0.7337535    3.6154372  
N    1.8668922    1.5631002    4.0777464  
C   -0.0496243   -0.0427881    4.3197917  
C   -0.9437528   -0.7922060    3.5801400  
O   -1.8685244   -1.5680278    4.2172520  
C   -0.9124520   -0.7656372    2.1655264  
O   -1.8671164   -1.5663939    1.5732860  
C    0.0000000    0.0000000    1.4700000  
H    2.3005065    1.9304404    0.8477417  
H    2.0679347    1.7444845    5.0445261  
H   -0.0904770   -0.0778569    5.3997470  
H   -2.3849669   -2.0011402    3.5251786  
H   -1.7775064   -1.4909735    0.6183591  
H    3.3468514    2.8078103    3.1724291  
