62

C    4.0593873    0.6998872   -7.3354700  
C    5.1445145   -0.1176609   -7.1196439  
C    5.9703278   -0.0282831   -8.2792317  
C    5.3327194    0.8664894   -9.1763179  
N    4.1741135    1.2886993   -8.5730021  
C    5.8673224    1.1931829  -10.4262219  
C    7.0676015    0.6061454  -10.7767843  
O    7.6342891    0.8904315  -11.9855265  
C    7.7188198   -0.2894203   -9.8954820  
O    8.9053697   -0.7909667  -10.3893390  
C    7.1918654   -0.6123785   -8.6623794  
H    5.3188125   -0.7069156   -6.2356796  
H    3.5178904    1.9382663   -8.9672285  
H    5.3862243    1.8743001  -11.1145717  
H    8.4550503    0.3827179  -12.0284653  
H    9.2802989   -1.3865313   -9.7333403  
H    7.7134289   -1.3017621   -8.0087738  
C    2.9127944   -0.7214799   -3.3153362  
C    3.5543783   -0.5031937   -4.4921099  
C    2.7457300    0.4250582   -5.2466113  
C    1.5720421    0.7318925   -4.4069087  
N    1.7334695    0.0049281   -3.2500363  
C    0.5691433    1.5730721   -4.7651200  
C    0.6510614    2.2191847   -6.0644901  
O   -0.2019642    2.9933461   -6.4784007  
C    1.8850636    1.9086368   -6.9703616  
O    1.9647773    2.4464641   -8.0665589  
C    2.9022258    0.9847052   -6.4747973  
H    4.4875220   -0.9424634   -4.7969035  
H   -0.2829827    1.7845577   -4.1341955  
H    3.2021859   -1.3520631   -2.4904075  
C    1.1319246    0.0015678   -0.8009268  
C    0.7969914    0.0034958   -2.1169401  
C   -0.6453340    0.0035696   -2.1842669  
C   -1.1266832    0.0015410   -0.7896025  
N    0.0000000    0.0000000    0.0000000  
C   -2.4346129    0.0013913   -0.4276292  
C   -3.4350111    0.0031335   -1.4820181  
O   -4.6384614    0.0030875   -1.2583914  
C   -2.9478961    0.0050442   -2.9661074  
O   -3.7809382    0.0062135   -3.8623773  
C   -1.5113825    0.0053055   -3.2312122  
H   -2.7664565    0.0000174    0.6013448  
H   -1.1823533    0.0068381   -4.2614848  
H    2.1104316    0.0009435   -0.3488059  
C    2.5285572    2.1210227    2.9438989  
C    1.9331703    1.6216660    4.0790748  
C    0.8903039    0.7472258    3.6520102  
C    0.8972198    0.7527806    2.2336141  
N    1.9028376    1.5986179    1.8362361  
C    0.0000000    0.0000000    1.4700000  
C   -0.9207814   -0.7726952    2.1506477  
O   -1.8198395   -1.5274828    1.4542253  
C   -0.9436862   -0.7911793    3.5655508  
O   -1.9197945   -1.6098497    4.0950179  
C   -0.0590329   -0.0485852    4.3195194  
H    2.2150357    1.8593692    5.0905303  
H    2.1533708    1.7953814    0.8841339  
H   -2.3621246   -1.9821033    2.1118817  
H   -1.8668290   -1.5649508    5.0545920  
H   -0.1007624   -0.0827977    5.4019087  
H    3.3491200    2.8096064    2.8367138  
