60

C   -0.4717745    0.0181293   -8.8129927  
C    0.3004581   -0.6577627   -9.7291228  
C   -0.1765042   -0.2954668  -11.0236681  
C   -1.2497125    0.6121336  -10.8328502  
N   -1.4037916    0.7791563   -9.4789743  
C   -1.9599538    1.1777604  -11.8960589  
C   -1.5796763    0.8208997  -13.1752057  
O   -2.2390997    1.3439606  -14.2497201  
C   -0.5116676   -0.0834016  -13.3859515  
O   -0.2542165   -0.3390241  -14.7170100  
C    0.1892709   -0.6420026  -12.3375350  
H    1.1074743   -1.3301630   -9.4933354  
H   -2.0824694    1.3756863   -9.0413341  
H   -2.7789550    1.8699908  -11.7572913  
H   -1.8208252    0.9691110  -15.0357227  
H    0.4801797   -0.9581508  -14.7713075  
H    1.0026310   -1.3318640  -12.5299274  
C    2.1451928   -2.0951773   -5.9900943  
C    1.6340471   -1.6323753   -4.8202142  
C    0.5538824   -0.7357923   -5.1581773  
C    0.4770636   -0.7140558   -6.6314112  
N    1.4686360   -1.5584203   -7.0749457  
C   -0.4180296    0.0158496   -7.3439773  
C   -1.3690895    0.8348539   -6.6110028  
O   -2.2145428    1.5279315   -7.1615959  
C   -1.3057474    0.8272854   -5.0503184  
O   -2.1011642    1.5130918   -4.4224310  
C   -0.2963293   -0.0005341   -4.3948471  
H    1.9749143   -1.8895633   -3.8331592  
H    2.9593495   -2.7830348   -6.1509984  
H    1.6685742   -1.7560269   -8.0382850  
C    3.1301146   -0.0010313   -1.7028256  
C    2.5367765   -0.0002766   -0.4864669  
C    1.1089901    0.0001027   -0.7656184  
C    1.0177865   -0.0004150   -2.2415133  
N    2.1993571   -0.0011612   -2.7963824  
C   -0.2459219   -0.0002879   -2.9257116  
C   -1.3675326   -0.0000606   -2.1698520  
O   -2.6129318    0.0000865   -2.6748483  
C   -1.3083588    0.0000910   -0.6783229  
O   -2.3693264    0.0004206   -0.0541685  
C    0.0000000    0.0000000    0.0000000  
H    3.0096016   -0.0001007    0.4807518  
H   -3.1967444    0.0002093   -1.8949026  
H    4.1849275   -0.0015114   -1.9271979  
C    2.5528530    2.1414826    2.8079335  
C    2.0663498    1.7338582    4.0032312  
C    0.9804344    0.8229586    3.6752840  
C    0.9495562    0.7966882    2.1971295  
N    1.8690446    1.5676019    1.6831036  
C    0.0000000    0.0000000    1.4700000  
C   -0.8785127   -0.7372425    2.1869543  
O   -1.8187535   -1.5261249    1.6395491  
C   -0.8723269   -0.7321790    3.6796354  
O   -1.7010379   -1.4274584    4.2670412  
C    0.1115397    0.0933559    4.4024240  
H    2.4028853    2.0163452    4.9860947  
H   -2.2861435   -1.9184361    2.3990168  
H    0.0832434    0.0693689    5.4835595  
H    3.3664920    2.8238276    2.6198634  
