62

C    3.6986969   -2.1260462   -4.3034128  
C    4.9523584   -1.6280270   -4.5731851  
C    4.8208897   -0.7530076   -5.6919596  
C    3.4523481   -0.7568468   -6.0647926  
N    2.7994298   -1.6022639   -5.2024789  
C    2.9574919   -0.0030885   -7.1333220  
C    3.8605704    0.7688383   -7.8381302  
O    3.4309508    1.5245224   -8.8904539  
C    5.2300398    0.7856119   -7.4816330  
O    6.0023043    1.6036999   -8.2801828  
C    5.7189758    0.0420526   -6.4277891  
H    5.8512517   -1.8669710   -4.0310690  
H    1.8147817   -1.7978903   -5.2158911  
H    4.2102425    1.9783797   -9.2368373  
H    6.9126725    1.5576369   -7.9724292  
H    6.7731081    0.0749582   -6.1783891  
H    3.3750843   -2.8145489   -3.5417063  
C   -0.8287671    0.0000935   -4.7555305  
C    0.4934746   -0.0006542   -5.1351926  
C    0.5171464   -0.0005536   -6.5613906  
C   -0.8317450    0.0005630   -7.0000446  
N   -1.6230471   -0.0010197   -5.8782354  
C   -1.1872830    0.0012650   -8.3522206  
C   -0.1624539    0.0011390   -9.2784518  
O   -0.4533747    0.0021534  -10.6120094  
C    1.1896019   -0.0003435   -8.8604089  
O    2.0936303   -0.0006992   -9.9025603  
C    1.5410844   -0.0013100   -7.5266236  
H    1.3371561   -0.0023098   -4.4664686  
H   -2.6269690    0.0098426   -5.8761615  
H   -2.2134625    0.0019725   -8.6930394  
H    0.3938023    0.0015662  -11.0762892  
H    2.9824063   -0.0016915   -9.5342131  
C    1.0672566   -0.0000698   -0.8321912  
C    0.0000000    0.0000000    0.0000000  
C   -1.1601226   -0.0000736   -0.8778472  
C   -0.5938732   -0.0000770   -2.2438435  
N    0.7113365   -0.0001555   -2.2234123  
C   -1.4286989   -0.0001880   -3.4135239  
C   -2.7683117   -0.0006800   -3.2270522  
O   -3.6653907   -0.0008306   -4.2276967  
C   -3.3702026   -0.0010611   -1.8610771  
O   -4.5974909   -0.0013781   -1.7662957  
C   -2.4926826   -0.0008944   -0.6770655  
H   -4.5324249   -0.0012263   -3.7833950  
H   -2.9677773   -0.0012975    0.2947963  
H    2.1134390   -0.0000546   -0.5705121  
C    2.3971438    2.0127888    3.1728260  
C    1.9431056    1.6308205    1.9564670  
C    0.8496017    0.7127664    2.2356185  
C    0.7794028    0.6545384    3.7115134  
N    1.6840587    1.4146091    4.2663826  
C   -0.1885723   -0.1578550    4.3957118  
C   -1.0476298   -0.8789867    3.6398520  
O   -2.0015663   -1.6796266    4.1448486  
C   -1.0022026   -0.8410666    2.1483229  
O   -1.8147390   -1.5232959    1.5241687  
C    0.0000000    0.0000000    1.4700000  
H    2.3054237    1.9346118    0.9892483  
H   -0.2170646   -0.1815267    5.4753125  
H   -2.4487139   -2.0549881    3.3649027  
H    3.2048689    2.6911772    3.3971983  
