60

C    3.6873675   -2.1126460   -4.7604899  
C    2.5754204   -1.6503439   -5.4255591  
C    3.0372706   -0.7617562   -6.4412881  
C    4.4519886   -0.7213305   -6.3471368  
N    4.8136775   -1.5513279   -5.3151952  
C    5.2445959    0.0560002   -7.1970312  
C    4.5972802    0.8059529   -8.1596989  
O    5.3229540    1.5825529   -9.0160316  
C    3.1865643    0.7791342   -8.2691426  
O    2.6919345    1.5804931   -9.2773633  
C    2.4039879    0.0127183   -7.4308672  
H    1.5566560   -1.9195034   -5.2049556  
H    5.7557356   -1.7327036   -5.0192076  
H    6.3232571    0.0912724   -7.1303411  
H    4.6855242    2.0159317   -9.5983813  
H    1.7328472    1.5048543   -9.2831425  
H    3.7660657   -2.7972646   -3.9334087  
C   -1.0641738    0.0073911   -4.6315339  
C    0.2051250    0.0079405   -5.1010654  
C    0.0692344    0.0101845   -6.5495227  
C   -1.3902928    0.0106356   -6.7869340  
N   -2.0598284    0.0090848   -5.6663498  
C   -1.9455301    0.0127602   -8.1123750  
C   -1.0819568    0.0147505   -9.1533229  
O   -1.4606988    0.0168498  -10.4427381  
C    0.3963100    0.0147277   -8.9462282  
O    1.1228030    0.0164809   -9.9399210  
C    0.9412638    0.0124825   -7.5769419  
H    1.1205720    0.0070362   -4.5344688  
H   -3.0161069    0.0128371   -8.2565139  
H   -0.6265995    0.0179429  -10.9461568  
C    1.1319245    0.0015656   -0.8009271  
C    0.7969914    0.0034943   -2.1169404  
C   -0.6453340    0.0035712   -2.1842672  
C   -1.1266833    0.0015434   -0.7896027  
N    0.0000000    0.0000000    0.0000000  
C   -2.4346131    0.0013965   -0.4276296  
C   -3.4350110    0.0031409   -1.4820182  
O   -4.6384610    0.0030975   -1.2583916  
C   -2.9478961    0.0050507   -2.9661073  
O   -3.7809383    0.0062220   -3.8623773  
C   -1.5113824    0.0053091   -3.2312124  
H    1.4821237    0.0045409   -2.9459193  
H   -2.7664564    0.0000233    0.6013449  
H    2.1104315    0.0009392   -0.3488061  
C    0.0000000    0.0000000    1.4700000  
C    1.0541688    0.0001722    2.3260392  
C    0.5103138    0.0000454    3.6635956  
C   -0.9576371   -0.0002459    3.5155732  
N   -1.2018458    0.0001392    2.1615969  
C   -1.8348311   -0.0008317    4.5510609  
C   -1.2972847   -0.0009736    5.9014604  
O   -2.0050672   -0.0014265    6.9001319  
C    0.2542623   -0.0004184    6.0817573  
O    0.7184670   -0.0002256    7.2139121  
C    1.0974552   -0.0000873    4.8889129  
H    2.0940752    0.0005483    2.0517982  
H   -2.9081052   -0.0011668    4.4207061  
H    2.1707277    0.0000911    5.0223670  
H   -2.1128194   -0.0014912    1.7406791  
