62

C    7.6046304   -3.6858190   -5.0317713  
C    8.3871711   -4.5038931   -4.2502009  
C    7.9036086   -4.3892419   -2.9131815  
C    6.8155702   -3.4796574   -2.9406627  
N    6.6620925   -3.0700830   -4.2419354  
C    6.0951162   -3.1275037   -1.7953580  
C    6.4798495   -3.7043062   -0.6005954  
O    5.8104467   -3.3957841    0.5481981  
C    7.5630852   -4.6137764   -0.5528182  
O    7.8237239   -5.1018835    0.7109695  
C    8.2744525   -4.9614357   -1.6822494  
H    9.2065275   -5.1080261   -4.6004484  
H    5.2649804   -2.4347749   -1.8096150  
H    6.2344299   -3.8997052    1.2549984  
H    8.5685907   -5.7082395    0.6551829  
H    9.0996299   -5.6607142   -1.6146486  
H    7.6451516   -3.4917297   -6.0899041  
C    5.6357769   -2.1338820   -4.7226681  
C    5.4138135   -1.6803978   -5.9832865  
C    4.2861631   -0.7812071   -5.9147650  
C    3.8663694   -0.7477409   -4.5007476  
N    4.7243816   -1.5891316   -3.8308469  
C    2.8310662   -0.0116220   -4.0232752  
C    2.0799741    0.8018234   -4.9649241  
O    1.1306870    1.4996774   -4.6330289  
C    2.5068722    0.7814483   -6.4673046  
O    1.8817989    1.4620144   -7.2694107  
C    3.6400749   -0.0517382   -6.8616450  
H    5.9757709   -1.9456740   -6.8610368  
H    3.9294080   -0.0601118   -7.9037296  
H    4.6945085   -1.7768209   -2.8454903  
C    3.3041270    0.0001177   -1.5420434  
C    2.5845372   -0.0004781   -0.3695856  
C    1.2040006   -0.0000008   -0.7283592  
C    1.1422371    0.0006037   -2.1454375  
N    2.4348636    0.0026109   -2.6077467  
C   -0.0655183    0.0008798   -2.8497920  
C   -1.2321770    0.0002326   -2.1101400  
O   -2.4392818    0.0001147   -2.7472520  
C   -1.1911210   -0.0000007   -0.6955263  
O   -2.4371527   -0.0002320   -0.1032859  
C    0.0000000    0.0000000    0.0000000  
H    3.0031533   -0.0000660    0.6222577  
H   -0.1193553    0.0014844   -3.9297472  
H   -3.1132989   -0.0000648   -2.0551784  
H   -2.3200282   -0.0004069    0.8516410  
H    4.3686624    0.0004070   -1.7024294  
C    0.8175213    0.6860729    2.3021913  
C    0.0000000    0.0000000    1.4700000  
C   -0.8887526   -0.7456559    2.3478473  
C   -0.4549825   -0.3816753    3.7138435  
N    0.5448156    0.4573574    3.6934124  
C   -1.0945674   -0.9182058    4.8835240  
C   -2.1210866   -1.7789155    4.6970523  
O   -2.8083856   -2.3554314    5.6976972  
C   -2.5824069   -2.1655116    3.3310774  
O   -3.5227682   -2.9541547    3.2362962  
C   -1.9100805   -1.6015804    2.1470656  
H   -0.7567140   -0.6349833    5.8697035  
H   -3.4728268   -2.9124471    5.2533954  
H   -2.2742832   -1.9066565    1.1752040  
H    1.6189533    1.3585343    2.0405121  
