64

C    0.1742960   -3.2715448  -10.3045412  
C   -0.0463452   -2.4808993  -11.4084717  
C   -0.2496567   -1.1510904  -10.9342648  
C   -0.1402978   -1.1920238   -9.5206561  
N    0.1154736   -2.4947430   -9.1711979  
C   -0.2848505   -0.0565842   -8.7177416  
C   -0.5442297    1.1420657   -9.3534613  
O   -0.6939986    2.2817504   -8.6174568  
C   -0.6572437    1.2030905  -10.7628299  
O   -0.9179226    2.4690499  -11.2452582  
C   -0.5150241    0.0833042  -11.5555332  
H   -0.0602641   -2.8209974  -12.4298103  
H    0.2528877   -2.8279770   -8.2341525  
H   -0.8665340    2.9931743   -9.2478308  
H   -0.9790835    2.4224537  -12.2042632  
H   -0.6070952    0.1609083  -12.6325562  
H    0.3675541   -4.3283737  -10.2358250  
C    2.3446872   -2.1385757   -5.7825615  
C    1.7992131   -1.7303702   -6.9519228  
C    0.7308355   -0.8198481   -6.5697985  
C    0.7735875   -0.7944099   -5.0919255  
N    1.7176446   -1.5654466   -4.6247547  
C   -0.1387079    0.0017019   -4.3179684  
C   -1.0519385    0.7391882   -4.9898753  
O   -1.9638772    1.5275964   -4.3958873  
C   -1.1200789    0.7349605   -6.4810156  
O   -1.9771132    1.4304200   -7.0260375  
C   -0.1732951   -0.0899943   -7.2523616  
H    2.0864381   -2.0122473   -7.9504831  
H   -2.4685598    1.9202485   -5.1309198  
H    3.1667836   -2.8208805   -5.6356219  
C    3.3041273    0.0001178   -1.5420428  
C    2.5845373   -0.0004780   -0.3695851  
C    1.2040007   -0.0000007   -0.7283589  
C    1.1422374    0.0006038   -2.1454372  
N    2.4348641    0.0026111   -2.6077464  
C   -0.0655179    0.0008799   -2.8497918  
C   -1.2321766    0.0002325   -2.1101402  
O   -2.4392814    0.0001148   -2.7472522  
C   -1.1911209   -0.0000007   -0.6955266  
O   -2.4371528   -0.0002320   -0.1032862  
C    0.0000000    0.0000000    0.0000000  
H    3.0031533   -0.0000660    0.6222584  
H    2.7054631   -0.0071097   -3.5745261  
H   -3.1132988   -0.0000648   -2.0551787  
H   -2.3200282   -0.0004072    0.8516409  
H    4.3686625    0.0004073   -1.7024290  
C    2.5311839    2.1237619    3.0120429  
C    1.9795631    1.6616747    1.8395852  
C    0.9223175    0.7739173    2.1983588  
C    0.8753926    0.7337535    3.6154372  
N    1.8668922    1.5631002    4.0777464  
C   -0.0496243   -0.0427881    4.3197917  
C   -0.9437528   -0.7922060    3.5801400  
O   -1.8685244   -1.5680278    4.2172520  
C   -0.9124520   -0.7656372    2.1655264  
O   -1.8671164   -1.5663939    1.5732860  
C    0.0000000    0.0000000    1.4700000  
H    2.3005065    1.9304404    0.8477417  
H    2.0679347    1.7444845    5.0445261  
H   -0.0904770   -0.0778569    5.3997470  
H   -2.3849669   -2.0011402    3.5251786  
H   -1.7775064   -1.4909735    0.6183591  
H    3.3468514    2.8078103    3.1724291  
