60

C    8.8863521   -0.0041284   -2.9586726  
C    9.9745024   -0.0053670   -2.1170106  
C   11.1385318   -0.0063999   -2.9414110  
C   10.6944769   -0.0054376   -4.2885341  
N    9.3218993   -0.0060176   -4.2631436  
C   11.5745448   -0.0057563   -5.3749362  
C   12.9275297   -0.0067634   -5.0963499  
O   13.8308008   -0.0067642   -6.1196361  
C   13.3900759   -0.0081087   -3.7588649  
O   14.7650871   -0.0094199   -3.6462454  
C   12.5224379   -0.0080684   -2.6866096  
H    9.9342415   -0.0066136   -1.0411988  
H    8.7264911    0.0049904   -5.0714434  
H   11.2424605   -0.0051715   -6.4039757  
H   14.7062187   -0.0078413   -5.7110918  
H   14.9937109   -0.0102479   -2.7117218  
H   12.9062077   -0.0092996   -1.6731021  
C    6.7235404   -0.0015093    0.8630518  
C    5.4473217   -0.0011276    0.3990038  
C    5.5236520   -0.0015784   -1.0428731  
C    6.9592471   -0.0022881   -1.3832519  
N    7.6329843   -0.0018114   -0.1836821  
C    7.4493969   -0.0032604   -2.6487385  
C    6.4996351   -0.0034065   -3.7489599  
O    6.8417413   -0.0041910   -4.9242317  
C    4.9744857   -0.0024119   -3.4117302  
O    4.1654301   -0.0022186   -4.3297117  
C    4.5679461   -0.0016854   -2.0086701  
H    4.5543636   -0.0004091    0.9983692  
H    7.0761901   -0.0013785    1.8816429  
H    8.6315325   -0.0036615   -0.0839620  
C    3.1301149   -0.0010311   -1.7028252  
C    2.5367768   -0.0002767   -0.4864665  
C    1.1089904    0.0001028   -0.7656183  
C    1.0177872   -0.0004148   -2.2415132  
N    2.1993578   -0.0011611   -2.7963820  
C   -0.2459209   -0.0002877   -2.9257118  
C   -1.3675319   -0.0000605   -2.1698524  
O   -2.6129313    0.0000867   -2.6748490  
C   -1.3083584    0.0000910   -0.6783232  
O   -2.3693261    0.0004206   -0.0541692  
C    0.0000000    0.0000000    0.0000000  
H    3.0096017   -0.0001007    0.4807525  
H   -0.2829630   -0.0004687   -4.0053125  
H   -3.1967441    0.0002094   -1.8949034  
C    0.8175213    0.6860729    2.3021913  
C    0.0000000    0.0000000    1.4700000  
C   -0.8887526   -0.7456559    2.3478473  
C   -0.4549825   -0.3816753    3.7138435  
N    0.5448156    0.4573574    3.6934124  
C   -1.0945674   -0.9182058    4.8835240  
C   -2.1210866   -1.7789155    4.6970523  
O   -2.8083856   -2.3554314    5.6976972  
C   -2.5824069   -2.1655116    3.3310774  
O   -3.5227682   -2.9541547    3.2362962  
C   -1.9100805   -1.6015804    2.1470656  
H   -0.7567140   -0.6349833    5.8697035  
H   -3.4728268   -2.9124471    5.2533954  
H   -2.2742832   -1.9066565    1.1752040  
H    1.6189533    1.3585343    2.0405121  
