62

C    4.5104720   -0.9970806   -8.9022113  
C    4.8087232   -0.5832291  -10.1798029  
C    4.5552803    0.8194632  -10.2329162  
C    4.1006997    1.2092567   -8.9470927  
N    4.0834643    0.0818329   -8.1639980  
C    3.7557260    2.5275998   -8.6344362  
C    3.8720523    3.4696644   -9.6380096  
O    3.5487634    4.7717553   -9.3868990  
C    4.3234096    3.1001634  -10.9274139  
O    4.3847374    4.1524091  -11.8175614  
C    4.6636500    1.7997251  -11.2366421  
H    5.1640735   -1.2148602  -10.9758951  
H    3.4084699    2.8311007   -7.6564268  
H    3.6994410    5.2541615  -10.2102135  
H    4.6984833    3.8175579  -12.6631632  
H    5.0060848    1.5466697  -12.2332271  
H    4.5671885   -1.9767691   -8.4595459  
C    5.7490607   -2.1284786   -4.7144778  
C    4.8671664   -1.6645343   -3.7660657  
C    3.9696975   -0.7771949   -4.4307298  
C    4.3561281   -0.7391882   -5.7949708  
N    5.4407941   -1.5693622   -5.9325542  
C    3.6896895    0.0363916   -6.7484506  
C    2.6133592    0.7870479   -6.3169351  
O    1.9266966    1.5620107   -7.2062836  
C    2.2128025    0.7626344   -4.9598146  
O    1.1236813    1.5644120   -4.6872124  
C    2.8699641   -0.0020530   -4.0185824  
H    4.8709993   -1.9318255   -2.7232165  
H    5.9263183   -1.7522465   -6.7920894  
H    1.2244403    1.9962427   -6.7047423  
H    0.9184891    1.4904381   -3.7501808  
H    6.5744611   -2.8128715   -4.6181479  
C    3.2573670   -0.0002921   -1.5109382  
C    2.5379468   -0.0001711   -0.3591962  
C    1.1435043    0.0000330   -0.7338498  
C    1.1092608   -0.0000085   -2.2088474  
N    2.4227562    0.0001906   -2.6182610  
C   -0.0265533   -0.0002525   -2.9515663  
C   -1.3003033   -0.0002641   -2.2514979  
O   -2.3786785   -0.0004132   -2.8306425  
C   -1.2877724    0.0000310   -0.6895608  
O   -2.3539956    0.0003306   -0.0892035  
C    0.0000000    0.0000000    0.0000000  
H    2.9384091   -0.0000370    0.6389240  
H   -0.0296290   -0.0004088   -4.0327231  
H    4.3270394   -0.0004767   -1.6439445  
C    2.4951002    2.0940188    2.9809380  
C    1.9440701    1.6314916    1.8291961  
C    0.8759964    0.7350050    2.2038498  
C    0.8497377    0.7130254    3.6788474  
N    1.8560616    1.5571714    4.0882609  
C   -0.0205033   -0.0168748    4.4215661  
C   -0.9962600   -0.8356168    3.7214979  
O   -1.8224391   -1.5286685    4.3006425  
C   -0.9864710   -0.8277881    2.1595606  
O   -1.8030528   -1.5133726    1.5592035  
C    0.0000000    0.0000000    1.4700000  
H    2.2509283    1.8888011    0.8310761  
H   -0.0229599   -0.0187323    5.5027230  
H    3.3143982    2.7817323    3.1139444  
H    2.0889452    1.7545833    5.0442112  
