62

C   -3.7936400    0.7115012   -8.0890190  
C   -4.9879983    0.4618925   -8.7243697  
C   -4.7115998   -0.4469811   -9.7883959  
C   -3.3199334   -0.7188485   -9.7526159  
N   -2.7925202    0.0020550   -8.7101419  
C   -2.6937498   -1.5786461  -10.6600462  
C   -3.4869447   -2.1750927  -11.6209167  
O   -2.9269858   -3.0236746  -12.5316129  
C   -4.8772746   -1.9160950  -11.6730557  
O   -5.5297046   -2.5854606  -12.6877618  
C   -5.4956478   -1.0677850  -10.7783427  
H   -5.9410147    0.8839267   -8.4548520  
H   -1.6335147   -1.7898916  -10.6381856  
H   -3.6458363   -3.3243359  -13.1026837  
H   -6.4632650   -2.3555945  -12.6526653  
H   -6.5624999   -0.8885935  -10.8431194  
H   -3.5764328    1.3405798   -7.2428271  
C   -0.8712823    0.0001712   -4.7267111  
C    0.4339908   -0.0008060   -5.1611397  
C    0.3982143   -0.0008817   -6.5870850  
C   -0.9677833    0.0003685   -6.9691518  
N   -1.7116543   -0.0009682   -5.8153445  
C   -1.3793560    0.0009558   -8.3053390  
C   -0.3940120    0.0005752   -9.2734680  
O   -0.7402469    0.0014682  -10.5937462  
C    0.9742892   -0.0010442   -8.9121277  
O    1.8341067   -0.0016513   -9.9910418  
C    1.3810430   -0.0018973   -7.5941456  
H    1.3048040   -0.0024975   -4.5281507  
H   -2.7146166    0.0100335   -5.7714415  
H    0.0868488    0.0007067  -11.0929229  
H    2.7374593   -0.0027220   -9.6600482  
H    2.4364414   -0.0033180   -7.3479530  
C    1.0965515    0.0001358   -0.8010304  
C    0.0000000    0.0000000    0.0000000  
C   -1.1546562    0.0001470   -0.8669514  
C   -0.6372012    0.0003520   -2.2486282  
N    0.7342873    0.0007338   -2.1395014  
C   -1.4147737    0.0001354   -3.3608717  
C   -2.8576047   -0.0001047   -3.1854463  
O   -3.6427778   -0.0002491   -4.1244908  
C   -3.4275837   -0.0000725   -1.7311667  
O   -4.6406828    0.0000333   -1.5710061  
C   -2.4891866   -0.0001090   -0.6116745  
H   -2.8919121   -0.0002919    0.3920865  
H    2.1388272    0.0000662   -0.5261647  
H    1.3735873   -0.0006098   -2.9130261  
C    2.5128556    2.1077716    2.9199648  
C    1.9592212    1.6432552    4.0696553  
C    0.8915788    0.7479214    3.6910360  
C    0.8684491    0.7287414    2.2159470  
N    1.8754542    1.5738793    1.8102719  
C    0.0000000    0.0000000    1.4700000  
C   -0.9772830   -0.8200135    2.1664417  
O   -1.8021297   -1.5120829    1.5842315  
C   -0.9711318   -0.8147624    3.7284083  
O   -1.7894187   -1.5009653    4.3257297  
C    0.0140216    0.0115358    4.4216297  
H    2.2638494    1.8988021    5.0689105  
H    0.0117648    0.0094386    5.5031631  
H    3.3327358    2.7953732    2.7900019  
H    2.1123206    1.7707734    0.8551938  
