60

C    0.1871928   -2.9633515   -9.4910736  
C    0.4429278   -2.5292383  -10.7711563  
C    0.1414944   -1.1354982  -10.8061696  
C   -0.2971970   -0.7717865   -9.5072508  
N   -0.2592197   -1.9055227   -8.7340653  
C   -0.6791280    0.5315762   -9.1753422  
C   -0.6167830    1.4852094  -10.1727765  
O   -0.9778707    2.7735645   -9.9030162  
C   -0.1820722    1.1416987  -11.4750219  
O   -0.1758530    2.2026643  -12.3568703  
C    0.1946059   -0.1439577  -11.8032407  
H    0.8014624   -3.1419955  -11.5804617  
H   -0.5054090   -1.9535181   -7.7619185  
H   -0.8617880    3.2674984  -10.7250993  
H    0.1300631    1.8855116  -13.2121094  
H    0.5230888   -0.3771611  -12.8093193  
H    0.2865416   -3.9441616   -9.0585231  
C    0.7844860   -0.6865739   -5.2559748  
C   -0.0307352   -0.0004646   -4.4215603  
C   -0.9220583    0.7449733   -5.2969831  
C   -0.4921385    0.3808399   -6.6641554  
N    0.5078001   -0.4580872   -6.6464478  
C   -1.1351037    0.9171360   -7.8320886  
C   -2.1611769    1.7777671   -7.6428221  
O   -2.8513792    2.3540681   -8.6415896  
C   -2.6186491    2.1645132   -6.2755956  
O   -3.5588179    2.9530733   -6.1782535  
C   -1.9428990    1.6008220   -5.0934203  
H   -3.5146108    2.9110798   -8.1954798  
H   -2.3043670    1.9060013   -4.1205703  
H    1.5867282   -1.3589152   -4.9964798  
C    3.2573670   -0.0002920   -1.5109380  
C    2.5379468   -0.0001709   -0.3591961  
C    1.1435043    0.0000332   -0.7338500  
C    1.1092609   -0.0000082   -2.2088477  
N    2.4227562    0.0001909   -2.6182613  
C   -0.0265532   -0.0002522   -2.9515663  
C   -1.3003035   -0.0002639   -2.2514981  
O   -2.3786784   -0.0004131   -2.8306429  
C   -1.2877725    0.0000312   -0.6895608  
O   -2.3539958    0.0003307   -0.0892036  
C    0.0000000    0.0000000    0.0000000  
H    2.9384091   -0.0000369    0.6389239  
H    4.3270394   -0.0004765   -1.6439446  
H    2.7280494   -0.0013406   -3.5742113  
C    2.5128556    2.1077716    2.9199648  
C    1.9592212    1.6432552    4.0696553  
C    0.8915788    0.7479214    3.6910360  
C    0.8684491    0.7287414    2.2159470  
N    1.8754542    1.5738793    1.8102719  
C    0.0000000    0.0000000    1.4700000  
C   -0.9772830   -0.8200135    2.1664417  
O   -1.8021297   -1.5120829    1.5842315  
C   -0.9711318   -0.8147624    3.7284083  
O   -1.7894187   -1.5009653    4.3257297  
C    0.0140216    0.0115358    4.4216297  
H    2.2638494    1.8988021    5.0689105  
H    0.0117648    0.0094386    5.5031631  
H    3.3327358    2.7953732    2.7900019  
H    2.1123206    1.7707734    0.8551938  
