62

C   -3.7154149    0.0821292   -8.1726455  
C   -4.6999829    0.0737657   -7.2119046  
C   -5.9507904    0.0804763   -7.8974967  
C   -5.6639829    0.0927134   -9.2865674  
N   -4.2975329    0.0953528   -9.4185641  
C   -6.6627128    0.1016071  -10.2649581  
C   -7.9748756    0.0977765   -9.8332282  
O   -8.9894265    0.1057300  -10.7462668  
C   -8.2811573    0.0859806   -8.4516103  
O   -9.6342178    0.0839519   -8.1822214  
C   -7.2963975    0.0774752   -7.4858455  
H   -4.5367464    0.0651313   -6.1478218  
H   -3.7986344    0.0928151  -10.2898134  
H   -6.4506984    0.1110932  -11.3252233  
H   -9.8122787    0.1015658  -10.2401427  
H   -9.7542791    0.0757559   -7.2276943  
H   -7.5615373    0.0686928   -6.4350832  
C   -1.2456296    0.0472577   -4.5828766  
C    0.0058401    0.0519621   -5.0980276  
C   -0.1823953    0.0659874   -6.5405499  
C   -1.6495602    0.0680020   -6.7249602  
N   -2.2780920    0.0571385   -5.5809241  
C   -2.2524144    0.0807971   -8.0293722  
C   -1.4270896    0.0914998   -9.1008474  
O   -1.8522597    0.1040207  -10.3756474  
C    0.0577051    0.0901658   -8.9474071  
O    0.7477509    0.1002111   -9.9666994  
C    0.6518699    0.0768898   -7.5988093  
H    0.9411976    0.0466699   -4.5649667  
H   -1.0369307    0.1094342  -10.9089040  
H    1.7314732    0.0764618   -7.5303508  
C    1.1243418    0.0099155   -0.7919003  
C    0.7474093    0.0234033   -2.1148542  
C   -0.6787365    0.0234953   -2.1414700  
C   -1.1201738    0.0099357   -0.7935546  
N    0.0000000    0.0000000    0.0000000  
C   -2.4730811    0.0065398   -0.4408241  
C   -3.3971945    0.0173300   -1.4675058  
O   -4.7313507    0.0149490   -1.1793472  
C   -2.9763626    0.0305537   -2.8186325  
O   -4.0166449    0.0397860   -3.7247623  
C   -1.6418538    0.0336381   -3.1673481  
H    1.4178738    0.0310004   -2.9571209  
H   -2.8160170   -0.0039189    0.5845965  
H   -5.1938800    0.0234412   -2.0274384  
H   -3.6464643    0.0484782   -4.6127344  
H    2.1062469    0.0051381   -0.3505407  
C    2.5128556    2.1077716    2.9199648  
C    1.9592212    1.6432552    4.0696553  
C    0.8915788    0.7479214    3.6910360  
C    0.8684491    0.7287414    2.2159470  
N    1.8754542    1.5738793    1.8102719  
C    0.0000000    0.0000000    1.4700000  
C   -0.9772830   -0.8200135    2.1664417  
O   -1.8021297   -1.5120829    1.5842315  
C   -0.9711318   -0.8147624    3.7284083  
O   -1.7894187   -1.5009653    4.3257297  
C    0.0140216    0.0115358    4.4216297  
H    2.2638494    1.8988021    5.0689105  
H    0.0117648    0.0094386    5.5031631  
H    3.3327358    2.7953732    2.7900019  
H    2.1123206    1.7707734    0.8551938  
