64

C    0.0000000    0.0000000    0.0000000  
C    0.8621497    0.6031213   -0.8862343  
C    0.4032859    0.2813405   -2.1979132  
C   -0.7524054   -0.5272325   -2.0478683  
N   -0.9683057   -0.6801648   -0.7007911  
C   -1.4703979   -1.0298385   -3.1372088  
C   -1.0135774   -0.7101231   -4.4010420  
O   -1.6772179   -1.1742570   -5.4997579  
C    0.1378032    0.0949773   -4.5711965  
O    0.4657094    0.3240488   -5.8915550  
C    0.8467704    0.5909314   -3.4969891  
H    1.7173002    1.2004981   -0.6200565  
H   -1.7244247   -1.1967334   -0.2891825  
H   -2.3518927   -1.6467489   -3.0295510  
H   -1.1986111   -0.8397205   -6.2693595  
H    1.2538358    0.8751930   -5.9180047  
C    4.7655181    0.7793126   -1.4710666  
C    3.5001386    0.4582432   -1.8449712  
C    3.1604362    1.3128293   -2.9581290  
C    4.3401017    2.1641756   -3.2038716  
N    5.2777827    1.7913287   -2.2686556  
C    4.4181769    3.1078593   -4.1760189  
C    3.2631954    3.2978709   -5.0376728  
O    3.2351615    4.1224991   -5.9418318  
C    2.0029598    2.4074446   -4.7952825  
O    1.0244141    2.5585815   -5.5142169  
C    2.0381675    1.4237045   -3.7159924  
H    2.8758788   -0.2915423   -1.3924951  
H    5.2930645    3.7216578   -4.3395231  
H    5.3668374    0.3619060   -0.6798167  
C    9.2159286   -0.0313424   -1.4155670  
C    9.9578613    1.1264030   -1.4559207  
C    9.0523410    2.1915687   -1.7388614  
C    7.7607472    1.6183001   -1.8616398  
N    7.8961204    0.2669122   -1.6615359  
C    6.6198204    2.3771365   -2.1395629  
C    6.7857260    3.7395421   -2.2960985  
O    5.7050655    4.5276509   -2.5682582  
C    8.0663972    4.3300324   -2.1776930  
O    8.0670763    5.6974454   -2.3607903  
C    9.1924317    3.5819989   -1.9037967  
H   11.0211237    1.1946558   -1.3016233  
H    7.1459856   -0.4001835   -1.6777371  
H    6.0373777    5.4320534   -2.6381831  
H    8.9694840    6.0167692   -2.2643665  
H   10.1602463    4.0622402   -1.8190578  
H    9.5239853   -1.0464478   -1.2322075  
C    0.0000000    0.0000000    1.4700000  
C    1.0521667    0.0011902    2.3562342  
C    0.4917218    0.0011957    3.6679131  
C   -0.9187428   -0.0003148    3.5178682  
N   -1.1833171    0.0009411    2.1707914  
C   -1.7951701   -0.0010350    4.6072090  
C   -1.2375837   -0.0005224    5.8710424  
O   -2.0474215   -0.0015360    6.9697579  
C    0.1673580    0.0013566    6.0411963  
O    0.5673524    0.0020687    7.3615553  
C    1.0325770    0.0023412    4.9669890  
H    2.0953057    0.0030649    2.0900562  
H   -2.0989778   -0.0102372    1.7591824  
H   -2.8710934   -0.0020419    4.4995513  
H   -1.4634884   -0.0006497    7.7393593  
H    1.5290710    0.0033153    7.3880045  
H    2.1042148    0.0039609    5.1284455  
