60

C    4.6314851   -2.9719938   -8.7728075  
C    5.2680504   -2.5397077   -9.9131494  
C    4.9927995   -1.1459503  -10.0407311  
C    4.1768347   -0.7803458   -8.9396129  
N    3.9749425   -1.9130204   -8.1906770  
C    3.7122943    0.5235593   -8.7425785  
C    4.0783805    1.4757988   -9.6739202  
O    3.6527434    2.7646058   -9.5296189  
C    4.8915909    1.1303916  -10.7794523  
O    5.1688518    2.1901355  -11.6181490  
C    5.3500106   -0.1558010  -10.9746094  
H    5.8572911   -3.1536628  -10.5725796  
H    3.4422229   -1.9596171   -7.3409589  
H    4.0158601    3.2573769  -10.2770061  
H    5.7223000    1.8717329  -12.3378139  
H    5.9712873   -0.3904680  -11.8310111  
H    4.5926515   -3.9522272   -8.3294190  
C    3.9015080   -0.6894964   -4.5616462  
C    2.8699641   -0.0020530   -4.0185824  
C    2.2908331    0.7423718   -5.1262549  
C    3.1193986    0.3762533   -6.2950239  
N    4.0651029   -0.4628707   -5.9702103  
C    2.8662857    0.9110770   -7.6045979  
C    1.8321947    1.7721969   -7.7404752  
O    1.4822278    2.3472700   -8.9035981  
C    0.9774045    2.1609344   -6.5801402  
O    0.0532404    2.9498372   -6.7770489  
C    1.2573313    1.5987279   -5.2469150  
H    0.7144384    2.9050451   -8.6832841  
H    0.6149062    1.9053321   -4.4323510  
H    4.5849522   -1.3616566   -4.0676039  
C    3.2573670   -0.0002921   -1.5109382  
C    2.5379468   -0.0001711   -0.3591962  
C    1.1435043    0.0000330   -0.7338498  
C    1.1092608   -0.0000085   -2.2088474  
N    2.4227562    0.0001906   -2.6182610  
C   -0.0265533   -0.0002525   -2.9515663  
C   -1.3003033   -0.0002641   -2.2514979  
O   -2.3786785   -0.0004132   -2.8306425  
C   -1.2877724    0.0000310   -0.6895608  
O   -2.3539956    0.0003306   -0.0892035  
C    0.0000000    0.0000000    0.0000000  
H    2.9384091   -0.0000370    0.6389240  
H   -0.0296290   -0.0004088   -4.0327231  
H    4.3270394   -0.0004767   -1.6439445  
C    2.4951002    2.0940188    2.9809380  
C    1.9440701    1.6314916    1.8291961  
C    0.8759964    0.7350050    2.2038498  
C    0.8497377    0.7130254    3.6788474  
N    1.8560616    1.5571714    4.0882609  
C   -0.0205033   -0.0168748    4.4215661  
C   -0.9962600   -0.8356168    3.7214979  
O   -1.8224391   -1.5286685    4.3006425  
C   -0.9864710   -0.8277881    2.1595606  
O   -1.8030528   -1.5133726    1.5592035  
C    0.0000000    0.0000000    1.4700000  
H    2.2509283    1.8888011    0.8310761  
H   -0.0229599   -0.0187323    5.5027230  
H    3.3143982    2.7817323    3.1139444  
H    2.0889452    1.7545833    5.0442112  
