62

C   -1.1188202    0.0099960   -0.8003807  
C    0.0000000    0.0000000    0.0000000  
C    1.1323246   -0.0118385   -0.8673530  
C    0.6382171   -0.0081390   -2.1969278  
N   -0.7324049    0.0032336   -2.1202236  
C    1.4769959   -0.0170131   -3.3154808  
C    2.8393942   -0.0295491   -3.0876856  
O    3.7037234   -0.0382546   -4.1440352  
C    3.3516164   -0.0338005   -1.7684332  
O    4.7298162   -0.0469702   -1.7073127  
C    2.5247273   -0.0253245   -0.6644821  
H   -1.3575139    0.0187433   -2.9057040  
H    4.5937670   -0.0466009   -3.7685134  
H    4.9932198   -0.0490068   -0.7819915  
H    2.9461146   -0.0290470    0.3339656  
H   -2.1618973    0.0199686   -0.5342064  
C    0.9735448   -0.0134597   -4.6965766  
C   -0.3100005   -0.0016216   -5.1397996  
C   -0.2571536   -0.0034661   -6.5827269  
C    1.1726450   -0.0174786   -6.9464170  
N    1.8657918   -0.0225896   -5.7579677  
C    1.6421054   -0.0235466   -8.2197093  
C    0.6746019   -0.0155307   -9.3043328  
O    0.9975142   -0.0200127  -10.4850140  
C   -0.8447841   -0.0004154   -8.9423339  
O   -1.6686365    0.0067400   -9.8470310  
C   -1.2284116    0.0047081   -7.5328466  
H   -1.1930419    0.0075582   -4.5259861  
H    2.6950632   -0.0339673   -8.4648250  
H    2.8657727   -0.0335303   -5.6745056  
C   -3.3728654    2.1699963   -4.4183092  
C   -4.6505705    1.7742690   -4.6243403  
C   -4.5828030    0.8614721   -5.7551406  
C   -3.1494234    0.8211982   -6.1162290  
N   -2.4352409    1.5861995   -5.3360334  
C   -2.6610089    0.0186688   -7.2036500  
C   -3.5634603   -0.7107800   -7.8985024  
O   -3.2480369   -1.5038072   -8.9366049  
C   -5.0167281   -0.6915473   -7.5582035  
O   -5.7813761   -1.3803192   -8.2335754  
C   -5.4929546    0.1397490   -6.4383466  
H   -5.5303776    2.0657131   -4.0765494  
H   -4.0965758   -1.8883817   -9.2216258  
H   -6.5531462    0.1260614   -6.2237857  
H   -3.0008906    2.8496430   -3.6681835  
C    0.8676693    0.7151171    2.2619005  
C    0.5875920    0.4624972    3.5848544  
C   -0.5048400   -0.4542819    3.6114698  
C   -0.8517165   -0.7276451    2.2635546  
N    0.0000000    0.0000000    1.4700000  
C   -1.8902865   -1.5946756    1.9108239  
C   -2.5912627   -2.1969500    2.9375057  
O   -3.6148162   -3.0527051    2.6493466  
C   -2.2603868   -1.9365747    4.2886322  
O   -3.0513550   -2.6123276    5.1947621  
C   -1.2361111   -1.0811317    4.6373480  
H    1.1060808    0.8876438    4.4271209  
H   -2.1597133   -1.8070987    0.8854031  
H   -3.9636755   -3.3565188    3.4974381  
H   -2.7621927   -2.3810384    6.0827341  
H   -1.0058879   -0.9010589    5.6809233  
H    1.6167816    1.3499334    1.8205408  
