64

C   -0.5750663    0.6258367   -9.3281282  
C    0.5020818   -0.2238850   -9.4290859  
C    0.9040228   -0.2258308  -10.7976767  
C    0.0280162    0.6489561  -11.4899818  
N   -0.8589961    1.1476185  -10.5684819  
C    0.1306749    0.8913237  -12.8631192  
C    1.1361612    0.2389448  -13.5498350  
O    1.2816565    0.4397084  -14.8920489  
C    2.0198307   -0.6379711  -12.8768094  
O    2.9673177   -1.2115477  -13.6993810  
C    1.9189739   -0.8777548  -11.5222411  
H    0.9431020   -0.7754249   -8.6164988  
H   -1.5933159    1.8033005  -10.7655515  
H   -0.5339252    1.5567824  -13.3966678  
H    2.0313072   -0.1027498  -15.1695877  
H    3.5229743   -1.7888726  -13.1668902  
H    2.6102194   -1.5548383  -11.0341677  
C   -0.2341632   -0.6333941   -5.1705306  
C   -1.2456329    0.0471727   -4.5828766  
C   -1.8647656    0.8033911   -5.6605168  
C   -1.0789142    0.4509138   -6.8625075  
N   -0.1217522   -0.3910229   -6.5814860  
C   -1.3794719    1.0000396   -8.1560343  
C   -2.4181311    1.8618050   -8.2448123  
O   -2.8101930    2.4494763   -9.3880400  
C   -3.2305039    2.2369727   -7.0500488  
O   -4.1614907    3.0272887   -7.2045947  
C   -2.9022836    1.6602243   -5.7341618  
H   -3.5697161    3.0041715   -9.1338930  
H   -3.5149164    1.9572672   -4.8935212  
H    0.4669734   -1.3104607   -4.7090525  
C    1.1243410    0.0099923   -0.7919003  
C    0.7474076    0.0234544   -2.1148543  
C   -0.6787381    0.0234490   -2.1414700  
C   -1.1201745    0.0098592   -0.7935546  
N    0.0000000    0.0000000    0.0000000  
C   -2.4730816    0.0063709   -0.4408240  
C   -3.3971958    0.0170982   -1.4675058  
O   -4.7313517    0.0146259   -1.1793471  
C   -2.9763648    0.0303504   -2.8186324  
O   -4.0166480    0.0395118   -3.7247624  
C   -1.6418562    0.0335260   -3.1673481  
H    1.4178717    0.0310972   -2.9571209  
H   -2.8160166   -0.0041111    0.5845966  
H   -5.1938818    0.0230867   -2.0274384  
H   -3.6464675    0.0482293   -4.6127343  
H    2.1062467    0.0052819   -0.3505407  
C    2.5285572    2.1210227    2.9438989  
C    1.9331703    1.6216660    4.0790748  
C    0.8903039    0.7472258    3.6520102  
C    0.8972198    0.7527806    2.2336141  
N    1.9028376    1.5986179    1.8362361  
C    0.0000000    0.0000000    1.4700000  
C   -0.9207814   -0.7726952    2.1506477  
O   -1.8198395   -1.5274828    1.4542253  
C   -0.9436862   -0.7911793    3.5655508  
O   -1.9197945   -1.6098497    4.0950179  
C   -0.0590329   -0.0485852    4.3195194  
H    2.2150357    1.8593692    5.0905303  
H    2.1533708    1.7953814    0.8841339  
H   -2.3621246   -1.9821033    2.1118817  
H   -1.8668290   -1.5649508    5.0545920  
H   -0.1007624   -0.0827977    5.4019087  
H    3.3491200    2.8096064    2.8367138  
