60

C    0.5908098   -2.7723121   -9.7054812  
C   -0.0602605   -1.8536280   -8.9151671  
C    0.0291073   -0.5948428   -9.5800526  
C    0.7518407   -0.8091645  -10.7815720  
N    1.0794799   -2.1415798  -10.8256258  
C    1.0300839    0.2165881  -11.6899776  
C    0.5700945    1.4816857  -11.3799539  
O    0.8135736    2.5197317  -12.2321237  
C   -0.1524821    1.7155230  -10.1857928  
O   -0.5420053    3.0285673  -10.0198725  
C   -0.4271068    0.7041193   -9.2890377  
H   -0.5395798   -2.0645668   -7.9745556  
H    1.5853937   -2.5905946  -11.5675277  
H    1.5805365    0.0597909  -12.6073751  
H    0.4122633    3.3018218  -11.8314348  
H   -1.0236412    3.1004055   -9.1901313  
H    0.7465073   -3.8272961   -9.5580808  
C    0.0063632   -0.7183650   -5.1315053  
C    0.1635205   -0.4995845   -6.4624867  
C   -0.8683531    0.4283168   -6.8613249  
C   -1.6451050    0.7344066   -5.6448723  
N   -1.0641734    0.0073898   -4.6315339  
C   -2.7096558    1.5750809   -5.6036142  
C   -3.1177654    2.2213966   -6.8398416  
O   -4.0639306    2.9951418   -6.9061054  
C   -2.3096737    1.9116343   -8.1401647  
O   -2.6441253    2.4496388   -9.1870427  
C   -1.1807017    0.9881992   -8.0592842  
H    0.9162680   -0.9383065   -7.0929690  
H   -3.2656673    1.7860234   -4.7006940  
H    0.5824087   -1.3488902   -4.4738586  
C    1.1319248    0.0015675   -0.8009270  
C    0.7969916    0.0034959   -2.1169404  
C   -0.6453336    0.0035703   -2.1842672  
C   -1.1266831    0.0015415   -0.7896027  
N    0.0000000    0.0000000    0.0000000  
C   -2.4346129    0.0013924   -0.4276297  
C   -3.4350110    0.0031352   -1.4820184  
O   -4.6384610    0.0030897   -1.2583919  
C   -2.9478958    0.0050460   -2.9661075  
O   -3.7809377    0.0062160   -3.8623775  
C   -1.5113821    0.0053068   -3.2312125  
H    1.4821240    0.0045436   -2.9459192  
H   -2.7664565    0.0000185    0.6013447  
H    2.1104318    0.0009428   -0.3488058  
C    0.8175213    0.6860729    2.3021913  
C    0.0000000    0.0000000    1.4700000  
C   -0.8887526   -0.7456559    2.3478473  
C   -0.4549825   -0.3816753    3.7138435  
N    0.5448156    0.4573574    3.6934124  
C   -1.0945674   -0.9182058    4.8835240  
C   -2.1210866   -1.7789155    4.6970523  
O   -2.8083856   -2.3554314    5.6976972  
C   -2.5824069   -2.1655116    3.3310774  
O   -3.5227682   -2.9541547    3.2362962  
C   -1.9100805   -1.6015804    2.1470656  
H   -0.7567140   -0.6349833    5.8697035  
H   -3.4728268   -2.9124471    5.2533954  
H   -2.2742832   -1.9066565    1.1752040  
H    1.6189533    1.3585343    2.0405121  
