64

C    4.9705237   -2.6022036   -8.9700372  
C    5.5473181   -2.0384688  -10.0844779  
C    5.2206861   -0.6501104  -10.0651930  
C    4.4364236   -0.4231214   -8.9053075  
N    4.3019857   -1.6295320   -8.2641230  
C    3.9364125    0.8374872   -8.5652421  
C    4.2337773    1.8881475   -9.4113293  
O    3.7710706    3.1402772   -9.1265699  
C    5.0144397    1.6815713  -10.5735311  
O    5.2230976    2.8269114  -11.3138017  
C    5.5078163    0.4381714  -10.9097775  
H    6.1306969   -2.5635505  -10.8213304  
H    3.8046348   -1.7777265   -7.4046690  
H    4.0880558    3.7160647   -9.8345630  
H    5.7584655    2.6002806  -12.0803665  
H    6.1027868    0.3105506  -11.8065499  
H    4.9819107   -3.6214275   -8.6236111  
C    4.1997576   -0.7142333   -4.3804518  
C    4.4285870   -0.4616215   -5.7132274  
C    3.4231705    0.4548822   -6.1418987  
C    2.6024499    0.7280933   -5.0177544  
N    3.1006054    0.0006263   -3.9654951  
C    1.5068388    1.5948438   -5.0740423  
C    1.2349665    2.1969895   -6.2871722  
O    0.1771845    3.0524717   -6.3979040  
C    2.0420041    1.9367625   -7.4202164  
O    1.6419271    2.6123578   -8.5546119  
C    3.1228464    1.0815955   -7.3654835  
H    5.2218489   -0.8865966   -6.3040953  
H    0.8773289    1.8071501   -4.2209039  
H    0.1665252    3.3562377   -7.3148977  
H    2.2389614    2.3811846   -9.2727431  
H    4.7327698   -1.3488805   -3.6933712  
C    3.2798083    0.0005857   -1.4499652  
C    2.5571142    0.0005565   -2.5996556  
C    1.1637432    0.0001548   -2.2210361  
C    1.1336964   -0.0000200   -0.7459473  
N    2.4483512   -0.0001428   -0.3402723  
C    0.0000000    0.0000000    0.0000000  
C   -1.2757368   -0.0000186   -0.6964415  
O   -2.3524598   -0.0000639   -0.1142311  
C   -1.2676497   -0.0000872   -2.2584083  
O   -2.3355766   -0.0004101   -2.8557295  
C    0.0181558    0.0001758   -2.9516296  
H    0.0150788    0.0003319   -4.0331631  
H    4.3498547    0.0008612   -1.3200026  
H    2.7563626    0.0012823    0.6148059  
C    0.8576279    0.7185626    2.2703808  
C    0.0000000    0.0000000    1.4700000  
C   -0.8668858   -0.7285659    2.3373528  
C   -0.4876752   -0.4117774    3.6669281  
N    0.5635254    0.4678311    3.5902241  
C   -1.1297612   -0.9515493    4.7854808  
C   -2.1738724   -1.8268314    4.5576857  
O   -2.8357962   -2.3827064    5.6140350  
C   -2.5667212   -2.1555554    3.2384331  
O   -3.6226318   -3.0413663    3.1773122  
C   -1.9335634   -1.6236449    2.1344818  
H    1.0363952    0.8769718    4.3757045  
H   -0.8454472   -0.7142436    5.8013813  
H   -3.5178062   -2.9546422    5.2385129  
H   -3.8247440   -3.2102924    2.2519915  
H   -2.2566033   -1.8942483    1.1360343  
H    1.6567807    1.3889844    2.0042067  
