60

C   -6.3597917    2.4117206   -0.7396874  
C   -7.4728161    2.6209131    0.0412623  
C   -8.1941700    1.3908584    0.0761013  
C   -7.4667347    0.4594041   -0.7082186  
N   -6.3595653    1.1123801   -1.1903132  
C   -7.8859113   -0.8610579   -0.8965273  
C   -9.0606740   -1.2483619   -0.2816244  
O   -9.5156915   -2.5263873   -0.4320299  
C   -9.8006989   -0.3334313    0.5045579  
O  -10.9483602   -0.8706735    1.0500751  
C   -9.3879101    0.9694660    0.6905412  
H   -7.7333949    3.5465583    0.5252810  
H   -7.3360962   -1.5758084   -1.4932153  
H  -10.3381108   -2.5844430    0.0714805  
H  -11.3885941   -0.1879251    1.5654901  
H   -9.9757974    1.6475297    1.2980745  
H   -5.5668160    3.0869594   -1.0120846  
C   -3.9842745    0.7276660   -1.9452914  
C   -5.3215475    0.5113816   -2.0401478  
C   -5.5219108   -0.4154368   -3.1290451  
C   -4.1821416   -0.7236113   -3.6646171  
N   -3.2941076    0.0012878   -2.9038237  
C   -3.9439115   -1.5640342   -4.7031937  
C   -5.0830927   -2.2078593   -5.3358780  
O   -4.9725191   -2.9811841   -6.2782386  
C   -6.5111098   -1.8958617   -4.7852141  
O   -7.4778756   -2.4317610   -5.3100340  
C   -6.6412648   -0.9729317   -3.6604425  
H   -2.9532728   -1.7765304   -5.0805396  
H   -7.6334407   -0.7623650   -3.2849791  
H   -3.4449077    1.3567548   -1.2559294  
C    0.0000000    0.0000000    0.0000000  
C    1.0541688   -0.0001723   -0.8560392  
C    0.5103136   -0.0000455   -2.1935956  
C   -0.9576373    0.0002461   -2.0455730  
N   -1.2018460   -0.0001389   -0.6915968  
C   -1.8348314    0.0008319   -3.0810607  
C   -1.2972851    0.0009739   -4.4314603  
O   -2.0050676    0.0014268   -5.4301316  
C    0.2542619    0.0004184   -4.6117572  
O    0.7184666    0.0002257   -5.7439122  
C    1.0974551    0.0000873   -3.4189129  
H    2.0940752   -0.0005484   -0.5817983  
H    2.1707276   -0.0000912   -3.5523673  
H   -2.1128194    0.0014915   -0.2706789  
C    3.2798086   -0.0005857    2.9199648  
C    2.5571146   -0.0005566    4.0696553  
C    1.1637436   -0.0001548    3.6910360  
C    1.1336965    0.0000200    2.2159470  
N    2.4483514    0.0001428    1.8102719  
C    0.0000000    0.0000000    1.4700000  
C   -1.2757367    0.0000186    2.1664417  
O   -2.3524596    0.0000640    1.5842315  
C   -1.2676493    0.0000873    3.7284083  
O   -2.3355761    0.0004100    4.3257297  
C    0.0181563   -0.0001760    4.4216297  
H    2.9547357   -0.0006076    5.0689105  
H    0.0150794   -0.0003319    5.5031631  
H    4.3498549   -0.0008612    2.7900019  
H    2.7563627   -0.0012824    0.8551938  
