60

C   -4.7178596    2.1223731   -4.2728939  
C   -3.6858055    1.6604521   -5.0564505  
C   -4.2566520    0.7728071   -6.0160445  
C   -5.6524807    0.7325374   -5.7671139  
N   -5.8984248    1.5617154   -4.7010027  
C   -6.5338407   -0.0439369   -6.5254549  
C   -5.9963684   -0.7931772   -7.5540177  
O   -6.8119056   -1.5689265   -8.3261096  
C   -4.6062001   -0.7665007   -7.8177195  
O   -4.2255061   -1.5670832   -8.8748296  
C   -3.7360896   -0.0009298   -7.0698328  
H   -2.6489052    1.9292535   -4.9488524  
H   -6.8022286    1.7429962   -4.3031868  
H   -7.5986604   -0.0790859   -6.3407260  
H   -6.2424053   -2.0019153   -8.9753058  
H   -3.2728359   -1.4915992   -8.9858501  
H   -4.7050634    2.8063001   -3.4416066  
C   -0.2963294   -0.0005341   -4.3948471  
C    0.7407565   -0.0008427   -5.2643483  
C    0.1250898   -0.0009651   -6.5824732  
C   -1.3291522   -0.0008024   -6.3145845  
N   -1.5822800   -0.0004688   -5.0339928  
C   -2.2982584   -0.0008135   -7.3756780  
C   -1.8356090   -0.0005907   -8.6466189  
O   -2.6263952   -0.0005805   -9.7332184  
C   -0.3739301   -0.0003760   -8.9493653  
O   -0.0244449   -0.0003028  -10.1296537  
C    0.6002563   -0.0004129   -7.8435231  
H    1.7935279   -0.0008810   -5.0390757  
H   -2.0105073   -0.0003708  -10.4880914  
H    1.6500152   -0.0001373   -8.1047447  
C    3.1301143   -0.0010313   -1.7028257  
C    2.5367765   -0.0002767   -0.4864669  
C    1.1089900    0.0001027   -0.7656184  
C    1.0177864   -0.0004150   -2.2415133  
N    2.1993571   -0.0011613   -2.7963824  
C   -0.2459220   -0.0002879   -2.9257116  
C   -1.3675327   -0.0000606   -2.1698519  
O   -2.6129319    0.0000866   -2.6748482  
C   -1.3083588    0.0000910   -0.6783229  
O   -2.3693264    0.0004206   -0.0541685  
C    0.0000000    0.0000000    0.0000000  
H    3.0096014   -0.0001008    0.4807517  
H   -3.1967445    0.0002093   -1.8949025  
H    4.1849272   -0.0015113   -1.9271980  
C    2.5528530    2.1414826    2.8079335  
C    2.0663498    1.7338582    4.0032312  
C    0.9804344    0.8229586    3.6752840  
C    0.9495562    0.7966882    2.1971295  
N    1.8690446    1.5676019    1.6831036  
C    0.0000000    0.0000000    1.4700000  
C   -0.8785127   -0.7372425    2.1869543  
O   -1.8187535   -1.5261249    1.6395491  
C   -0.8723269   -0.7321790    3.6796354  
O   -1.7010379   -1.4274584    4.2670412  
C    0.1115397    0.0933559    4.4024240  
H    2.4028853    2.0163452    4.9860947  
H   -2.2861435   -1.9184361    2.3990168  
H    0.0832434    0.0693689    5.4835595  
H    3.3664920    2.8238276    2.6198634  
