60

C   -1.3039055    2.1201869   -5.5811378  
C   -2.3080130    1.6208128   -6.3779203  
C   -1.6940490    0.7448534   -7.3215001  
C   -0.3020043    0.7495419   -7.0492592  
N   -0.0991452    1.5963455   -5.9879441  
C    0.6154058   -0.0047901   -7.7869105  
C    0.1184661   -0.7781744   -8.8179810  
O    0.9702145   -1.5344741   -9.5700115  
C   -1.2671661   -0.7958135   -9.1052606  
O   -1.6052801   -1.6153326  -10.1623370  
C   -2.1727580   -0.0516891   -8.3781373  
H   -3.3541505    1.8594796   -6.2905832  
H    0.7894106    1.7928235   -5.5638614  
H    0.4252885   -1.9893422  -10.2253090  
H   -2.5577751   -1.5697783  -10.2899396  
H   -3.2282407   -0.0852845   -8.6216625  
H   -1.3516094    2.8096923   -4.7557501  
C    2.8699641   -0.0020527   -4.0185824  
C    4.1345929   -0.0036617   -4.5133415  
C    4.0234314   -0.0055092   -5.9529510  
C    2.5800288   -0.0048104   -6.2585304  
N    1.9354845   -0.0030988   -5.0430271  
C    2.0594329   -0.0056967   -7.5117999  
C    2.9823227   -0.0076821   -8.6346564  
O    2.6119075   -0.0086660   -9.8013143  
C    4.5151773   -0.0087043   -8.3343882  
O    5.3018065   -0.0106823   -9.2716567  
C    4.9555128   -0.0073190   -6.9415653  
H    5.0417776   -0.0037477   -3.9357352  
H    6.0185127   -0.0078337   -6.7421798  
H    0.9396386   -0.0007135   -4.9192027  
C    3.2573673   -0.0002921   -1.5109381  
C    2.5379469   -0.0001710   -0.3591962  
C    1.1435042    0.0000332   -0.7338498  
C    1.1092607   -0.0000083   -2.2088474  
N    2.4227562    0.0001908   -2.6182610  
C   -0.0265532   -0.0002523   -2.9515663  
C   -1.3003033   -0.0002639   -2.2514979  
O   -2.3786784   -0.0004132   -2.8306425  
C   -1.2877726    0.0000312   -0.6895609  
O   -2.3539956    0.0003308   -0.0892035  
C    0.0000000    0.0000000    0.0000000  
H    2.9384091   -0.0000368    0.6389240  
H   -0.0296292   -0.0004086   -4.0327231  
H    4.3270395   -0.0004765   -1.6439444  
C    0.8681109    0.7263879    2.2709268  
C    0.6127770    0.5096195    3.5869401  
C   -0.4920590   -0.4175482    3.6542670  
C   -0.8620974   -0.7254003    2.2596025  
N    0.0000000    0.0000000    1.4700000  
C   -1.8641242   -1.5660088    1.8976294  
C   -2.6293522   -2.2103885    2.9520183  
O   -3.5512764   -2.9839180    2.7283916  
C   -2.2549728   -1.8987399    4.4361073  
O   -2.8923672   -2.4351063    5.3323774  
C   -1.1543735   -0.9755647    4.7012123  
H    1.1382914    0.9492124    4.4159191  
H   -2.1192137   -1.7782617    0.8686553  
H   -0.9013378   -0.7652422    5.7314848  
H    1.6172880    1.3558399    1.8188057  
