62

C    1.2609981   -1.0740749   -7.7162733  
C    2.3121554   -1.9601502   -7.7653274  
C    2.5730265   -2.2208109   -9.1432251  
C    1.6417217   -1.4591083   -9.8944954  
N    0.8588343   -0.7760433   -8.9972072  
C    1.6073209   -1.4713679  -11.2921558  
C    2.5300698   -2.2668216  -11.9432820  
O    2.5409257   -2.3157028  -13.3072855  
C    3.4670153   -3.0343231  -11.2112356  
O    4.3192132   -3.7750357  -12.0039821  
C    3.5013542   -3.0229236   -9.8323888  
H    2.8268052   -2.3692612   -6.9128273  
H    0.1161472   -0.1447813   -9.2378419  
H    0.8999441   -0.8932315  -11.8705844  
H    3.2520265   -2.9216386  -13.5531370  
H    4.9191565   -4.2634286  -11.4320174  
H    4.2304816   -3.6214873   -9.2989360  
C    0.9070721   -0.7042925   -5.2310448  
C    0.0950446    0.0004351   -4.4015596  
C   -0.8184770    0.7430226   -5.2375488  
C   -0.4696135    0.4107479   -6.6320657  
N    0.5842460   -0.4707046   -6.5591861  
C   -1.1031228    0.9106730   -7.7231412  
C   -2.2017458    1.8380507   -7.5097575  
O   -2.8350882    2.3428878   -8.4275364  
C   -2.5881746    2.2042623   -6.0412999  
O   -3.5112397    2.9842136   -5.8492387  
C   -1.8314682    1.6007481   -4.9472166  
H   -0.8315611    0.6538820   -8.7376471  
H   -2.1054515    1.8593459   -3.9334198  
H    1.7143128   -1.3744692   -4.9838303  
C    3.3321173    0.0004713   -1.3379338  
C    2.6974181    0.0000116   -2.5332314  
C    1.2800438   -0.0002119   -2.2052841  
C    1.2395034    0.0000643   -0.7271299  
N    2.4394062    0.0005460   -0.2131038  
C    0.0000000    0.0000000    0.0000000  
C   -1.1468702    0.0000634   -0.7169543  
O   -2.3742203    0.0000074   -0.1695487  
C   -1.1388770    0.0001607   -2.2096355  
O   -2.2206234    0.0000905   -2.7970411  
C    0.1454522    0.0001815   -2.9324241  
H    3.1367984   -0.0000653   -3.5160950  
H   -2.9844346    0.0001026   -0.9290167  
H    4.3940038    0.0007618   -1.1498640  
C    0.8676693    0.7151171    2.2619005  
C    0.5875920    0.4624972    3.5848544  
C   -0.5048400   -0.4542819    3.6114698  
C   -0.8517165   -0.7276451    2.2635546  
N    0.0000000    0.0000000    1.4700000  
C   -1.8902865   -1.5946756    1.9108239  
C   -2.5912627   -2.1969500    2.9375057  
O   -3.6148162   -3.0527051    2.6493466  
C   -2.2603868   -1.9365747    4.2886322  
O   -3.0513550   -2.6123276    5.1947621  
C   -1.2361111   -1.0811317    4.6373480  
H    1.1060808    0.8876438    4.4271209  
H   -2.1597133   -1.8070987    0.8854031  
H   -3.9636755   -3.3565188    3.4974381  
H   -2.7621927   -2.3810384    6.0827341  
H   -1.0058879   -0.9010589    5.6809233  
H    1.6167816    1.3499334    1.8205408  
