60

C   10.0179204    0.7119818   -1.4773448  
C   11.2960907    0.4618258   -1.0344313  
C   11.1872872   -0.4473924    0.0592247  
C    9.8067463   -0.7188964    0.2390019  
N    9.1246828    0.0025454   -0.7091160  
C    9.3281656   -1.5788899    1.2320582  
C   10.2602326   -2.1759096    2.0584942  
O    9.8475889   -3.0247052    3.0445383  
C   11.6419808   -1.9172818    1.8950805  
O   12.4432779   -2.5872058    2.7964491  
C   12.1148072   -1.0687786    0.9157936  
H   12.1960904    0.8837253   -1.4479446  
H    8.2772402   -1.7898602    1.3743530  
H   10.6460133   -3.3257694    3.4974644  
H   13.3602501   -2.3575607    2.6174799  
H   13.1788968   -0.8898804    0.8148644  
H    9.6726571    1.3414443   -2.2795472  
C    6.6317365    0.0027576   -4.3241616  
C    5.4016570    0.0020952   -3.7488541  
C    5.6054515    0.0015082   -2.3194126  
C    7.0655606    0.0019148   -2.1075802  
N    7.6303538    0.0022712   -3.3621311  
C    7.6659168    0.0019587   -0.8905032  
C    6.8173813    0.0013543    0.2895486  
O    7.2622824    0.0012813    1.4298835  
C    5.2683493    0.0006643    0.0887879  
O    4.5438187   -0.0001547    1.0748485  
C    4.7390840    0.0009613   -1.2727298  
H    4.4591015    0.0018435   -4.2667371  
H    6.8927419    0.0033433   -5.3699943  
H    8.6161382    0.0041518   -3.5499387  
C    3.2798077    0.0005856   -1.4499661  
C    2.5571132    0.0005565   -2.5996564  
C    1.1637425    0.0001547   -2.2210366  
C    1.1336959   -0.0000200   -0.7459475  
N    2.4483509   -0.0001429   -0.3402730  
C    0.0000000    0.0000000    0.0000000  
C   -1.2757370   -0.0000187   -0.6964411  
O   -2.3524597   -0.0000640   -0.1142306  
C   -1.2676502   -0.0000874   -2.2584078  
O   -2.3355774   -0.0004102   -2.8557287  
C    0.0181551    0.0001758   -2.9516297  
H    2.9547342    0.0006074   -3.5989118  
H    0.0150776    0.0003317   -4.0331632  
H    2.7563626    0.0012823    0.6148051  
C    2.4951002    2.0940188    2.9809380  
C    1.9440701    1.6314916    1.8291961  
C    0.8759964    0.7350050    2.2038498  
C    0.8497377    0.7130254    3.6788474  
N    1.8560616    1.5571714    4.0882609  
C   -0.0205033   -0.0168748    4.4215661  
C   -0.9962600   -0.8356168    3.7214979  
O   -1.8224391   -1.5286685    4.3006425  
C   -0.9864710   -0.8277881    2.1595606  
O   -1.8030528   -1.5133726    1.5592035  
C    0.0000000    0.0000000    1.4700000  
H    2.2509283    1.8888011    0.8310761  
H   -0.0229599   -0.0187323    5.5027230  
H    3.3143982    2.7817323    3.1139444  
H    2.0889452    1.7545833    5.0442112  
