62

C   -0.4221268   -0.6163923   -9.5756952  
C   -0.7874008    0.6277176   -9.1160936  
C   -0.7188373    1.5188933  -10.2277157  
C   -0.3027720    0.7552779  -11.3482995  
N   -0.1296366   -0.5365132  -10.9171185  
C   -0.1279724    1.3109171  -12.6193232  
C   -0.3780317    2.6619737  -12.7617834  
O   -0.2233858    3.2555857  -13.9810965  
C   -0.7935792    3.4407010  -11.6555657  
O   -1.0020017    4.7703518  -11.9587711  
C   -0.9659673    2.8932707  -10.4013223  
H    0.1530344   -1.3079734  -11.4941171  
H    0.1890644    0.7343708  -13.4773918  
H   -0.4456063    4.1880306  -13.8609762  
H   -1.2801020    5.2249860  -11.1577894  
H   -1.2850017    3.5148784   -9.5728901  
H   -0.3457112   -1.5541250   -9.0524577  
C    0.8246865   -0.7190543   -5.2242741  
C   -0.0307352   -0.0004646   -4.4215603  
C   -0.9001604    0.7278868   -5.2865486  
C   -0.5247010    0.4109452   -6.6171514  
N    0.5268046   -0.4685439   -6.5433115  
C   -1.1700225    0.9504894   -7.7339507  
C   -2.2135719    1.8256968   -7.5033123  
O   -2.8785559    2.3813509   -8.5578538  
C   -2.6027001    2.1545709   -6.1829949  
O   -3.6585241    3.0402816   -6.1189979  
C   -1.9663491    1.6228849   -5.0807725  
H    0.9974802   -0.8777492   -7.3300751  
H   -3.5595538    2.9532703   -8.1804759  
H   -3.8580207    3.2093203   -5.1931304  
H   -2.2865752    1.8935993   -4.0814492  
H    1.6246627   -1.3893551   -4.9602782  
C    3.2573670   -0.0002920   -1.5109380  
C    2.5379468   -0.0001709   -0.3591961  
C    1.1435043    0.0000332   -0.7338500  
C    1.1092609   -0.0000082   -2.2088477  
N    2.4227562    0.0001909   -2.6182613  
C   -0.0265532   -0.0002522   -2.9515663  
C   -1.3003035   -0.0002639   -2.2514981  
O   -2.3786784   -0.0004131   -2.8306429  
C   -1.2877725    0.0000312   -0.6895608  
O   -2.3539958    0.0003307   -0.0892036  
C    0.0000000    0.0000000    0.0000000  
H    2.9384091   -0.0000369    0.6389239  
H    4.3270394   -0.0004765   -1.6439446  
H    2.7280494   -0.0013406   -3.5742113  
C    2.5128556    2.1077716    2.9199648  
C    1.9592212    1.6432552    4.0696553  
C    0.8915788    0.7479214    3.6910360  
C    0.8684491    0.7287414    2.2159470  
N    1.8754542    1.5738793    1.8102719  
C    0.0000000    0.0000000    1.4700000  
C   -0.9772830   -0.8200135    2.1664417  
O   -1.8021297   -1.5120829    1.5842315  
C   -0.9711318   -0.8147624    3.7284083  
O   -1.7894187   -1.5009653    4.3257297  
C    0.0140216    0.0115358    4.4216297  
H    2.2638494    1.8988021    5.0689105  
H    0.0117648    0.0094386    5.5031631  
H    3.3327358    2.7953732    2.7900019  
H    2.1123206    1.7707734    0.8551938  
