62

C    0.0032502   -0.9818706   -9.5809371  
C   -0.1586635    0.0938919   -8.7389241  
C   -0.3901999    1.2356619   -9.5619372  
C   -0.3583528    0.7913718  -10.9086068  
N   -0.1154257   -0.5595597  -10.8843624  
C   -0.5494471    1.6521247  -11.9936773  
C   -0.7771352    2.9856251  -11.7141893  
O   -0.9705008    3.8694913  -12.7361509  
C   -0.8121837    3.4481360  -10.3771511  
O   -1.0490337    4.8025122  -10.2635276  
C   -0.6234786    2.5995951   -9.3062195  
H   -0.0486975   -1.1518122  -11.6923018  
H   -0.5262243    1.3197745  -13.0223680  
H   -1.1097195    4.7335619  -12.3271704  
H   -1.0569941    5.0325665   -9.3293885  
H   -0.6556820    2.9828570   -8.2930309  
H    0.1954221   -2.0167355   -9.3549207  
C    2.4938370   -2.1214407   -5.9023410  
C    1.8951720   -1.6223091   -7.0358902  
C    0.8534346   -0.7479142   -6.6059872  
C    0.8643862   -0.7532634   -5.1876154  
N    1.8712175   -1.5989401   -4.7929780  
C   -0.0307352   -0.0004646   -4.4215603  
C   -0.9535289    0.7720379   -5.0996973  
O   -1.8506797    1.5268337   -4.4008291  
C   -0.9804606    0.7903153   -6.5145322  
O   -1.9581556    1.6088090   -7.0413383  
C   -0.0978794    0.0477031   -7.2709076  
H    2.1741831   -1.8601293   -8.0481093  
H    2.1244785   -1.7955402   -3.8415641  
H   -2.3948807    1.9813037   -5.0570049  
H   -1.9079156    1.5637771   -8.0010523  
H    3.3147726   -2.8099248   -5.7973912  
C    3.2573670   -0.0002920   -1.5109380  
C    2.5379468   -0.0001709   -0.3591961  
C    1.1435043    0.0000332   -0.7338500  
C    1.1092609   -0.0000082   -2.2088477  
N    2.4227562    0.0001909   -2.6182613  
C   -0.0265532   -0.0002522   -2.9515663  
C   -1.3003035   -0.0002639   -2.2514981  
O   -2.3786784   -0.0004131   -2.8306429  
C   -1.2877725    0.0000312   -0.6895608  
O   -2.3539958    0.0003307   -0.0892036  
C    0.0000000    0.0000000    0.0000000  
H    2.9384091   -0.0000369    0.6389239  
H    4.3270394   -0.0004765   -1.6439446  
H    2.7280494   -0.0013406   -3.5742113  
C    0.0000000    0.0000000    1.4700000  
C    1.0662921    0.0000102    2.3034270  
C    0.4961870   -0.0000064    3.6418889  
C   -0.9663858    0.0000850    3.4240247  
N   -1.2632773    0.0000084    2.1528658  
C   -1.8985362    0.0000517    4.5177257  
C   -1.3925775   -0.0004564    5.7720543  
O   -2.1456383   -0.0005410    6.8851312  
C    0.0786232   -0.0009323    6.0245000  
O    0.4683759   -0.0012588    7.1921102  
C    1.0143166   -0.0008442    4.8859032  
H    2.1107198   -0.0000632    2.0421868  
H   -2.9622183    0.0003270    4.3293377  
H   -1.5042274   -0.0009692    7.6184419  
H    2.0724152   -0.0013148    5.1109744  
