60

C    8.1834192   -3.6501350   -4.2026992  
C    8.8462352   -4.4728685   -3.3216470  
C    8.1709840   -4.3719050   -2.0692729  
C    7.0947943   -3.4654845   -2.2485615  
N    7.1323633   -3.0445464   -3.5547074  
C    6.2123458   -3.1260169   -1.2185930  
C    6.4199058   -3.7124880    0.0147557  
O    5.5876334   -3.4165237    1.0553038  
C    7.4883627   -4.6189945    0.2134146  
O    7.5626440   -5.1177878    1.4975594  
C    8.3594714   -4.9541407   -0.8021502  
H    9.7108117   -5.0712424   -3.5528419  
H    5.3902702   -2.4357634   -1.3487574  
H    5.9053876   -3.9255483    1.8123977  
H    8.3102875   -5.7212988    1.5466521  
H    9.1688343   -5.6514453   -0.6200076  
H    8.3781067   -3.4462866   -5.2416892  
C    6.1837013   -2.1071891   -4.1730114  
C    6.1473616   -1.6429257   -5.4486345  
C    5.0179313   -0.7478961   -5.5388763  
C    4.3948019   -0.7286184   -4.2016665  
N    5.1487785   -1.5734153   -3.4201764  
C    3.2973506   -0.0000934   -3.8752374  
C    2.6891812    0.8195676   -4.9100422  
O    1.6983687    1.5114227   -4.7152914  
C    3.3322628    0.8142074   -6.3334964  
O    2.8288269    1.5001143   -7.2128968  
C    4.5147638   -0.0118348   -6.5641432  
H    6.8333436   -1.8984495   -6.2365113  
H    4.9540947   -0.0098150   -7.5524287  
H    4.9752877   -1.7701683   -2.4515502  
C    3.3321174    0.0004714   -1.3379332  
C    2.6974186    0.0000115   -2.5332308  
C    1.2800441   -0.0002119   -2.2052838  
C    1.2395035    0.0000643   -0.7271293  
N    2.4394063    0.0005458   -0.2131034  
C    0.0000000    0.0000000    0.0000000  
C   -1.1468701    0.0000634   -0.7169542  
O   -2.3742201    0.0000072   -0.1695492  
C   -1.1388767    0.0001606   -2.2096354  
O   -2.2206229    0.0000903   -2.7970413  
C    0.1454526    0.0001815   -2.9324239  
H   -2.9844344    0.0001023   -0.9290168  
H    0.1083580    0.0003680   -4.0135594  
H    4.3940040    0.0007617   -1.1498630  
C    0.8681109    0.7263879    2.2709268  
C    0.6127770    0.5096195    3.5869401  
C   -0.4920590   -0.4175482    3.6542670  
C   -0.8620974   -0.7254003    2.2596025  
N    0.0000000    0.0000000    1.4700000  
C   -1.8641242   -1.5660088    1.8976294  
C   -2.6293522   -2.2103885    2.9520183  
O   -3.5512764   -2.9839180    2.7283916  
C   -2.2549728   -1.8987399    4.4361073  
O   -2.8923672   -2.4351063    5.3323774  
C   -1.1543735   -0.9755647    4.7012123  
H    1.1382914    0.9492124    4.4159191  
H   -2.1192137   -1.7782617    0.8686553  
H   -0.9013378   -0.7652422    5.7314848  
H    1.6172880    1.3558399    1.8188057  
