64

C    2.8394163   -0.6446731   -6.3863694  
C    4.1896994   -0.3940198   -6.4662233  
C    4.3798405    0.5244317   -7.5408830  
C    3.0988914    0.8007943   -8.0837642  
N    2.1864102    0.0732519   -7.3608002  
C    2.9058166    1.6701029   -9.1616387  
C    4.0262322    2.2716133   -9.7011150  
O    3.8947618    3.1295048  -10.7545614  
C    5.3127555    2.0082575   -9.1735550  
O    6.3274494    2.6836073   -9.8198075  
C    5.5040024    1.1505666   -8.1103913  
H    4.9448705   -0.8215161   -5.8290762  
H    1.9321714    1.8848169   -9.5801058  
H    4.7857624    3.4323246  -10.9729252  
H    7.1622102    2.4502465   -9.4022897  
H    6.5014781    0.9682319   -7.7279343  
H    2.2906141   -1.2798660   -5.7123487  
C   -1.2456296    0.0472577   -4.5828766  
C    0.0002605    0.0520443   -5.1230708  
C   -0.1629402    0.0660975   -6.5576450  
C   -1.6164586    0.0691567   -6.8107554  
N   -2.2165808    0.0569155   -5.5727758  
C   -2.1820808    0.0818100   -8.0442937  
C   -1.3004427    0.0929479   -9.1997691  
O   -1.7128467    0.1046495  -10.3521964  
C    0.2422773    0.0896881   -8.9552087  
O    0.9944631    0.0986758   -9.9202983  
C    0.7327431    0.0759273   -7.5793068  
H    0.9277599    0.0461949   -4.5787142  
H   -3.2507684    0.0839639   -8.2080410  
H   -3.2072922    0.0572146   -5.4129706  
C    1.1243418    0.0099155   -0.7919003  
C    0.7474093    0.0234033   -2.1148542  
C   -0.6787365    0.0234953   -2.1414700  
C   -1.1201738    0.0099357   -0.7935546  
N    0.0000000    0.0000000    0.0000000  
C   -2.4730811    0.0065398   -0.4408241  
C   -3.3971945    0.0173300   -1.4675058  
O   -4.7313507    0.0149490   -1.1793472  
C   -2.9763626    0.0305537   -2.8186325  
O   -4.0166449    0.0397860   -3.7247623  
C   -1.6418538    0.0336381   -3.1673481  
H    1.4178738    0.0310004   -2.9571209  
H   -2.8160170   -0.0039189    0.5845965  
H   -5.1938800    0.0234412   -2.0274384  
H   -3.6464643    0.0484782   -4.6127344  
H    2.1062469    0.0051381   -0.3505407  
C    2.5285572    2.1210227    2.9438989  
C    1.9331703    1.6216660    4.0790748  
C    0.8903039    0.7472258    3.6520102  
C    0.8972198    0.7527806    2.2336141  
N    1.9028376    1.5986179    1.8362361  
C    0.0000000    0.0000000    1.4700000  
C   -0.9207814   -0.7726952    2.1506477  
O   -1.8198395   -1.5274828    1.4542253  
C   -0.9436862   -0.7911793    3.5655508  
O   -1.9197945   -1.6098497    4.0950179  
C   -0.0590329   -0.0485852    4.3195194  
H    2.2150357    1.8593692    5.0905303  
H    2.1533708    1.7953814    0.8841339  
H   -2.3621246   -1.9821033    2.1118817  
H   -1.8668290   -1.5649508    5.0545920  
H   -0.1007624   -0.0827977    5.4019087  
H    3.3491200    2.8096064    2.8367138  
