62

C    3.3982178   -0.7145515   -2.9707414  
C    4.6647797   -0.4659384   -3.4466418  
C    4.5287062    0.4428853   -4.5375698  
C    3.1442637    0.7157497   -4.6817636  
N    2.4861703   -0.0045376   -3.7159919  
C    2.6410831    1.5757823   -5.6625505  
C    3.5521108    2.1714432   -6.5130773  
O    3.1150136    3.0202122   -7.4885517  
C    4.9373492    1.9114455   -6.3852787  
O    5.7157918    2.5801127   -7.3073712  
C    5.4344347    1.0629029   -5.4181137  
H    5.5747236   -0.8885872   -3.0563047  
H    1.5870514    1.7877859   -5.7777583  
H    3.9017848    3.3202307   -7.9620967  
H    6.6368419    2.3495915   -7.1520321  
H    6.5005906    0.8829384   -5.3446134  
H    3.0731387   -1.3432799   -2.1595800  
C    0.0000000    0.0000000    0.0000000  
C    1.0521669   -0.0011899   -0.8862338  
C    0.4917222   -0.0011953   -2.1979129  
C   -0.9187426    0.0003152   -2.0478681  
N   -1.1833169   -0.0009409   -0.7007913  
C   -1.7951697    0.0010354   -3.1372090  
C   -1.2375835    0.0005230   -4.4010425  
O   -2.0474206    0.0015366   -5.4997579  
C    0.1673585   -0.0013561   -4.5711965  
O    0.5673529   -0.0020681   -5.8915554  
C    1.0325774   -0.0023407   -3.4969889  
H    2.0953060   -0.0030646   -0.6200560  
H   -2.0989776    0.0102374   -0.2891826  
H   -1.4634880    0.0006503   -6.2693594  
H    1.5290717   -0.0033145   -5.9180047  
C   -4.4484711    2.1113803   -0.3461920  
C   -5.6480035    1.6479665   -0.7825918  
C   -5.3783981    0.7523421   -1.8825943  
C   -3.9129598    0.7317898   -2.0524736  
N   -3.4082520    1.5764914   -1.0908922  
C   -3.2578649    0.0024042   -2.9908508  
C   -4.0489120   -0.8169040   -3.8939090  
O   -3.5523648   -1.5094677   -4.7725992  
C   -5.6024998   -0.8101988   -3.7322738  
O   -6.2789643   -1.4957980   -4.4869992  
C   -6.1934209    0.0166877   -2.6830247  
H   -6.6117250    1.9044261   -0.3799969  
H   -7.2698066    0.0155978   -2.5775891  
H   -4.2368828    2.7988132    0.4566506  
H   -2.4341530    1.7724825   -0.9503005  
C    1.1319247   -0.0015655    2.2709268  
C    0.7969915   -0.0034943    3.5869401  
C   -0.6453339   -0.0035710    3.6542670  
C   -1.1266833   -0.0015433    2.2596025  
N    0.0000000    0.0000000    1.4700000  
C   -2.4346130   -0.0013964    1.8976294  
C   -3.4350110   -0.0031408    2.9520183  
O   -4.6384611   -0.0030974    2.7283916  
C   -2.9478959   -0.0050506    4.4361073  
O   -3.7809380   -0.0062218    5.3323774  
C   -1.5113823   -0.0053090    4.7012123  
H    1.4821238   -0.0045407    4.4159191  
H   -2.7664565   -0.0000232    0.8686553  
H   -1.1823530   -0.0068408    5.7314848  
H    2.1104316   -0.0009391    1.8188057  
