64

C    7.3681285   -0.7224094   -5.4818015  
C    6.7844971   -0.0032615   -6.4989884  
C    7.8271121    0.7237173   -7.1463335  
C    9.0353402    0.4054021   -6.4749266  
N    8.7206219   -0.4735491   -5.4684405  
C   10.2712584    0.9433800   -6.8462426  
C   10.2878228    1.8184043   -7.9149974  
O   11.4676927    2.3725553   -8.3197660  
C    9.0927621    2.1486338   -8.5973423  
O    9.2743383    3.0339641   -9.6397263  
C    7.8731035    1.6184942   -8.2314068  
H    9.3775767   -0.8834595   -4.8294059  
H   11.1956805    0.7049046   -6.3385267  
H   11.2577141    2.9446171   -9.0693780  
H    8.4193589    3.2039854  -10.0467969  
H    6.9745209    1.8902235   -8.7728778  
H    6.9264407   -1.3920613   -4.7638621  
C    3.1006060    0.0006268   -3.9654947  
C    4.4058792   -0.0003210   -4.3999228  
C    4.3701029   -0.0003707   -5.8258685  
C    3.0041050    0.0008646   -6.2079353  
N    2.2602342   -0.0005059   -5.0541279  
C    2.5925325    0.0014702   -7.5441224  
C    3.5778770    0.0011237   -8.5122522  
O    3.2316417    0.0020357   -9.8325294  
C    4.9461776   -0.0004800   -8.1509103  
O    5.8059958   -0.0010533   -9.2298262  
C    5.3529316   -0.0013514   -6.8329291  
H    5.2766925   -0.0020102   -3.7669343  
H    1.2572719    0.0104787   -5.0102251  
H    1.5530432    0.0022673   -7.8418858  
H    4.0587372    0.0012975  -10.3317064  
H    6.7093483   -0.0021156   -8.8988327  
C    3.2798085    0.0005859   -1.4499648  
C    2.5571146    0.0005569   -2.5996553  
C    1.1637437    0.0001551   -2.2210359  
C    1.1336966   -0.0000198   -0.7459471  
N    2.4483513   -0.0001427   -0.3402720  
C    0.0000000    0.0000000    0.0000000  
C   -1.2757366   -0.0000185   -0.6964416  
O   -2.3524595   -0.0000640   -0.1142313  
C   -1.2676493   -0.0000870   -2.2584084  
O   -2.3355759   -0.0004098   -2.8557296  
C    0.0181563    0.0001763   -2.9516295  
H    0.0150795    0.0003323   -4.0331630  
H    4.3498549    0.0008614   -1.3200020  
H    2.7563627    0.0012824    0.6148062  
C    0.0000000    0.0000000    1.4700000  
C    1.0521667    0.0011902    2.3562342  
C    0.4917218    0.0011957    3.6679131  
C   -0.9187428   -0.0003148    3.5178682  
N   -1.1833171    0.0009411    2.1707914  
C   -1.7951701   -0.0010350    4.6072090  
C   -1.2375837   -0.0005224    5.8710424  
O   -2.0474215   -0.0015360    6.9697579  
C    0.1673580    0.0013566    6.0411963  
O    0.5673524    0.0020687    7.3615553  
C    1.0325770    0.0023412    4.9669890  
H    2.0953057    0.0030649    2.0900562  
H   -2.0989778   -0.0102372    1.7591824  
H   -2.8710934   -0.0020419    4.4995513  
H   -1.4634884   -0.0006497    7.7393593  
H    1.5290710    0.0033153    7.3880045  
H    2.1042148    0.0039609    5.1284455  
