62

C   -0.5750663    0.6258367   -9.3281282  
C    0.5020818   -0.2238850   -9.4290859  
C    0.9040228   -0.2258308  -10.7976767  
C    0.0280162    0.6489561  -11.4899818  
N   -0.8589961    1.1476185  -10.5684819  
C    0.1306749    0.8913237  -12.8631192  
C    1.1361612    0.2389448  -13.5498350  
O    1.2816565    0.4397084  -14.8920489  
C    2.0198307   -0.6379711  -12.8768094  
O    2.9673177   -1.2115477  -13.6993810  
C    1.9189739   -0.8777548  -11.5222411  
H    0.9431020   -0.7754249   -8.6164988  
H   -1.5933159    1.8033005  -10.7655515  
H   -0.5339252    1.5567824  -13.3966678  
H    2.0313072   -0.1027498  -15.1695877  
H    3.5229743   -1.7888726  -13.1668902  
H    2.6102194   -1.5548383  -11.0341677  
C   -0.2341632   -0.6333941   -5.1705306  
C   -1.2456329    0.0471727   -4.5828766  
C   -1.8647656    0.8033911   -5.6605168  
C   -1.0789142    0.4509138   -6.8625075  
N   -0.1217522   -0.3910229   -6.5814860  
C   -1.3794719    1.0000396   -8.1560343  
C   -2.4181311    1.8618050   -8.2448123  
O   -2.8101930    2.4494763   -9.3880400  
C   -3.2305039    2.2369727   -7.0500488  
O   -4.1614907    3.0272887   -7.2045947  
C   -2.9022836    1.6602243   -5.7341618  
H   -3.5697161    3.0041715   -9.1338930  
H   -3.5149164    1.9572672   -4.8935212  
H    0.4669734   -1.3104607   -4.7090525  
C    1.1243410    0.0099923   -0.7919003  
C    0.7474076    0.0234544   -2.1148543  
C   -0.6787381    0.0234490   -2.1414700  
C   -1.1201745    0.0098592   -0.7935546  
N    0.0000000    0.0000000    0.0000000  
C   -2.4730816    0.0063709   -0.4408240  
C   -3.3971958    0.0170982   -1.4675058  
O   -4.7313517    0.0146259   -1.1793471  
C   -2.9763648    0.0303504   -2.8186324  
O   -4.0166480    0.0395118   -3.7247624  
C   -1.6418562    0.0335260   -3.1673481  
H    1.4178717    0.0310972   -2.9571209  
H   -2.8160166   -0.0041111    0.5845966  
H   -5.1938818    0.0230867   -2.0274384  
H   -3.6464675    0.0482293   -4.6127343  
H    2.1062467    0.0052819   -0.3505407  
C    0.8400945    0.7047457    2.2710304  
C    0.0000000    0.0000000    1.4700000  
C   -0.8844236   -0.7423113    2.3369512  
C   -0.4878984   -0.4098547    3.7186280  
N    0.5629682    0.4714286    3.6095011  
C   -1.0836927   -0.9095027    4.8308716  
C   -2.1891196   -1.8367527    4.6554461  
O   -2.7906899   -2.3413415    5.5944904  
C   -2.6257283   -2.2031529    3.2011665  
O   -3.5549479   -2.9829990    3.0410059  
C   -1.9068976   -1.5999348    2.0816745  
H   -0.7774656   -0.6525820    5.8354244  
H   -2.2155208   -1.8586617    1.0779135  
H    1.6384792    1.3747609    1.9961646  
H    1.0518368    0.8833920    4.3830260  
