62

C    6.2180284   -0.6726153   -3.5212713  
C    7.5278046   -0.4254999   -3.1808475  
C    8.0425635    0.4915334   -4.1445236  
C    6.9922057    0.7707169   -5.0559684  
N    5.8992829    0.0461441   -4.6496041  
C    7.1432853    1.6395890   -6.1408767  
C    8.3770820    2.2377540   -6.3085690  
O    8.5791997    3.0950715   -7.3512425  
C    9.4375034    1.9715497   -5.4099807  
O   10.6038600    2.6437339   -5.7118504  
C    9.2892531    1.1142874   -4.3396311  
H    8.0485317   -0.8543847   -2.3418630  
H    6.3467198    1.8564417   -6.8392032  
H    9.4949325    3.3954136   -7.2842100  
H   11.2685511    2.4085898   -5.0572539  
H   10.1196802    0.9297212   -3.6682112  
H    5.4864026   -1.3058152   -3.0493181  
C    1.6628972    0.0337774   -3.2649299  
C    3.0162024    0.0329603   -3.2529403  
C    3.4037232    0.0459981   -4.6551376  
C    2.1237308    0.0535428   -5.3955064  
N    1.0997901    0.0465113   -4.5858853  
C    2.0755562    0.0671408   -6.8316750  
C    3.2525887    0.0733272   -7.4979267  
O    3.3566005    0.0859901   -8.8377260  
C    4.5608690    0.0663567   -6.7792364  
O    5.5929755    0.0724782   -7.4500116  
C    4.5838552    0.0523648   -5.3057373  
H    3.6706629    0.0246393   -2.3981374  
H    1.1260108    0.0722078   -7.3466974  
H    4.3151302    0.0875696   -9.0119996  
C    1.1243417    0.0099160   -0.7919004  
C    0.7474091    0.0234036   -2.1148543  
C   -0.6787366    0.0234950   -2.1414699  
C   -1.1201739    0.0099353   -0.7935547  
N    0.0000000    0.0000000    0.0000000  
C   -2.4730814    0.0065387   -0.4408241  
C   -3.3971947    0.0173286   -1.4675058  
O   -4.7313509    0.0149470   -1.1793468  
C   -2.9763629    0.0305525   -2.8186324  
O   -4.0166449    0.0397843   -3.7247623  
C   -1.6418539    0.0336374   -3.1673480  
H   -2.8160170   -0.0039200    0.5845965  
H   -5.1938800    0.0234391   -2.0274383  
H   -3.6464639    0.0484767   -4.6127342  
H   -1.3497441    0.0436783   -4.2109235  
H    2.1062470    0.0051389   -0.3505406  
C    0.8681109    0.7263879    2.2709268  
C    0.6127770    0.5096195    3.5869401  
C   -0.4920590   -0.4175482    3.6542670  
C   -0.8620974   -0.7254003    2.2596025  
N    0.0000000    0.0000000    1.4700000  
C   -1.8641242   -1.5660088    1.8976294  
C   -2.6293522   -2.2103885    2.9520183  
O   -3.5512764   -2.9839180    2.7283916  
C   -2.2549728   -1.8987399    4.4361073  
O   -2.8923672   -2.4351063    5.3323774  
C   -1.1543735   -0.9755647    4.7012123  
H    1.1382914    0.9492124    4.4159191  
H   -2.1192137   -1.7782617    0.8686553  
H   -0.9013378   -0.7652422    5.7314848  
H    1.6172880    1.3558399    1.8188057  
