60

C    6.6282256   -1.8451259   -6.8869324  
C    7.7260156   -2.6643424   -7.0142462  
C    8.1537963   -2.5792095   -8.3723166  
C    7.2715478   -1.6851880   -9.0313226  
N    6.3561703   -1.2593231   -8.1010864  
C    7.3947449   -1.3623648  -10.3860906  
C    8.4275615   -1.9525720  -11.0883169  
O    8.5939289   -1.6721272  -12.4137173  
C    9.3178844   -2.8474493  -10.4485229  
O   10.2935255   -3.3524601  -11.2830489  
C    9.1967825   -3.1665904   -9.1121064  
H    8.1638825   -3.2519564   -6.2255916  
H    5.6110979   -0.6093397   -8.2753567  
H    6.7255261   -0.6818397  -10.8942584  
H    9.3607739   -2.1815658  -12.7064388  
H   10.8518766   -3.9472945  -10.7731272  
H    9.8937606   -3.8555399   -8.6494531  
C    5.9779326   -2.0928591   -4.4468277  
C    5.0400352   -1.6304885   -3.5804345  
C    4.1859904   -0.7341816   -4.3234534  
C    4.7069272   -0.7121371   -5.7036446  
N    5.7934745   -1.5560772   -5.7119679  
C    4.1728106    0.0176374   -6.7155014  
C    3.0072080    0.8361656   -6.4258171  
O    2.4535610    1.5290918   -7.2693981  
C    2.4388223    0.8282645   -4.9709354  
O    1.4580063    1.5136694   -4.7150431  
C    3.1006054    0.0006263   -3.9654951  
H    4.9561722   -1.8877887   -2.5395800  
H    4.5702549    0.0195457   -7.7209579  
H    6.7884826   -2.7804144   -4.2674802  
C    3.2798083    0.0005857   -1.4499652  
C    2.5571142    0.0005565   -2.5996556  
C    1.1637432    0.0001548   -2.2210361  
C    1.1336964   -0.0000200   -0.7459473  
N    2.4483512   -0.0001428   -0.3402723  
C    0.0000000    0.0000000    0.0000000  
C   -1.2757368   -0.0000186   -0.6964415  
O   -2.3524598   -0.0000639   -0.1142311  
C   -1.2676497   -0.0000872   -2.2584083  
O   -2.3355766   -0.0004101   -2.8557295  
C    0.0181558    0.0001758   -2.9516296  
H    0.0150788    0.0003319   -4.0331631  
H    4.3498547    0.0008612   -1.3200026  
H    2.7563626    0.0012823    0.6148059  
C    0.8681109    0.7263879    2.2709268  
C    0.6127770    0.5096195    3.5869401  
C   -0.4920590   -0.4175482    3.6542670  
C   -0.8620974   -0.7254003    2.2596025  
N    0.0000000    0.0000000    1.4700000  
C   -1.8641242   -1.5660088    1.8976294  
C   -2.6293522   -2.2103885    2.9520183  
O   -3.5512764   -2.9839180    2.7283916  
C   -2.2549728   -1.8987399    4.4361073  
O   -2.8923672   -2.4351063    5.3323774  
C   -1.1543735   -0.9755647    4.7012123  
H    1.1382914    0.9492124    4.4159191  
H   -2.1192137   -1.7782617    0.8686553  
H   -0.9013378   -0.7652422    5.7314848  
H    1.6172880    1.3558399    1.8188057  
