60

C    0.1871928   -2.9633515   -9.4910736  
C    0.4429278   -2.5292383  -10.7711563  
C    0.1414944   -1.1354982  -10.8061696  
C   -0.2971970   -0.7717865   -9.5072508  
N   -0.2592197   -1.9055227   -8.7340653  
C   -0.6791280    0.5315762   -9.1753422  
C   -0.6167830    1.4852094  -10.1727765  
O   -0.9778707    2.7735645   -9.9030162  
C   -0.1820722    1.1416987  -11.4750219  
O   -0.1758530    2.2026643  -12.3568703  
C    0.1946059   -0.1439577  -11.8032407  
H    0.8014624   -3.1419955  -11.5804617  
H   -0.5054090   -1.9535181   -7.7619185  
H   -0.8617880    3.2674984  -10.7250993  
H    0.1300631    1.8855116  -13.2121094  
H    0.5230888   -0.3771611  -12.8093193  
H    0.2865416   -3.9441616   -9.0585231  
C    0.7844860   -0.6865739   -5.2559748  
C   -0.0307352   -0.0004646   -4.4215603  
C   -0.9220583    0.7449733   -5.2969831  
C   -0.4921385    0.3808399   -6.6641554  
N    0.5078001   -0.4580872   -6.6464478  
C   -1.1351037    0.9171360   -7.8320886  
C   -2.1611769    1.7777671   -7.6428221  
O   -2.8513792    2.3540681   -8.6415896  
C   -2.6186491    2.1645132   -6.2755956  
O   -3.5588179    2.9530733   -6.1782535  
C   -1.9428990    1.6008220   -5.0934203  
H   -3.5146108    2.9110798   -8.1954798  
H   -2.3043670    1.9060013   -4.1205703  
H    1.5867282   -1.3589152   -4.9964798  
C    3.2573670   -0.0002920   -1.5109380  
C    2.5379468   -0.0001709   -0.3591961  
C    1.1435043    0.0000332   -0.7338500  
C    1.1092609   -0.0000082   -2.2088477  
N    2.4227562    0.0001909   -2.6182613  
C   -0.0265532   -0.0002522   -2.9515663  
C   -1.3003035   -0.0002639   -2.2514981  
O   -2.3786784   -0.0004131   -2.8306429  
C   -1.2877725    0.0000312   -0.6895608  
O   -2.3539958    0.0003307   -0.0892036  
C    0.0000000    0.0000000    0.0000000  
H    2.9384091   -0.0000369    0.6389239  
H    4.3270394   -0.0004765   -1.6439446  
H    2.7280494   -0.0013406   -3.5742113  
C    0.0000000    0.0000000    1.4700000  
C    1.0662921    0.0000102    2.3034270  
C    0.4961870   -0.0000064    3.6418889  
C   -0.9663858    0.0000850    3.4240247  
N   -1.2632773    0.0000084    2.1528658  
C   -1.8985362    0.0000517    4.5177257  
C   -1.3925775   -0.0004564    5.7720543  
O   -2.1456383   -0.0005410    6.8851312  
C    0.0786232   -0.0009323    6.0245000  
O    0.4683759   -0.0012588    7.1921102  
C    1.0143166   -0.0008442    4.8859032  
H    2.1107198   -0.0000632    2.0421868  
H   -2.9622183    0.0003270    4.3293377  
H   -1.5042274   -0.0009692    7.6184419  
H    2.0724152   -0.0013148    5.1109744  
