64

C    6.6040902   -0.0023388   -2.0631269  
C    5.9305215   -0.0055282   -0.8636429  
C    6.9162121   -0.0076585    0.1673811  
C    8.1839592   -0.0053241   -0.4688074  
N    7.9582145   -0.0040670   -1.8229320  
C    9.3873321   -0.0062066    0.2430104  
C    9.3095012   -0.0091987    1.6221809  
O   10.4538269   -0.0098309    2.3661789  
C    8.0539905   -0.0119354    2.2752529  
O    8.1435647   -0.0151660    3.6519555  
C    6.8664310   -0.0113399    1.5736644  
H    4.8603802   -0.0073377   -0.7462235  
H    8.6707990    0.0082079   -2.5300766  
H   10.3567779   -0.0045835   -0.2359180  
H   10.1776289   -0.0123234    3.2919076  
H    7.2524961   -0.0168387    4.0147190  
H    5.9199045   -0.0136703    2.1014521  
C    2.4521485    0.0014838   -3.7217479  
C    3.5379007    0.0002979   -2.8769945  
C    4.7042704    0.0010662   -3.6980801  
C    4.2640505    0.0030226   -5.0464602  
N    2.8914059    0.0012766   -5.0249751  
C    5.1472046    0.0045345   -6.1303536  
C    6.4993915    0.0043697   -5.8479195  
O    7.4055700    0.0061549   -6.8686306  
C    6.9581315    0.0020553   -4.5091255  
O    8.3328179    0.0017727   -4.3925955  
C    6.0874477    0.0002897   -3.4393439  
H    3.4945818   -0.0020709   -1.8013036  
H    2.2982903    0.0126076   -5.8349547  
H    4.8180480    0.0058847   -7.1603320  
H    8.2798214    0.0053916   -6.4575986  
H    8.5587829    0.0001890   -3.4574265  
C    0.0000000    0.0000000    0.0000000  
C    1.0662924   -0.0000102   -0.8334267  
C    0.4961874    0.0000064   -2.1718888  
C   -0.9663853   -0.0000849   -1.9540250  
N   -1.2632772   -0.0000084   -0.6828660  
C   -1.8985357   -0.0000515   -3.0477261  
C   -1.3925767    0.0004566   -4.3020548  
O   -2.1456375    0.0005411   -5.4151316  
C    0.0786242    0.0009324   -4.5545000  
O    0.4683770    0.0012590   -5.7221099  
C    1.0143173    0.0008443   -3.4159029  
H    2.1107200    0.0000632   -0.5721862  
H   -2.9622180   -0.0003269   -2.8593382  
H   -1.5042262    0.0009694   -6.1484423  
C    0.0000000    0.0000000    1.4700000  
C    1.0521667    0.0011902    2.3562342  
C    0.4917218    0.0011957    3.6679131  
C   -0.9187428   -0.0003148    3.5178682  
N   -1.1833171    0.0009411    2.1707914  
C   -1.7951701   -0.0010350    4.6072090  
C   -1.2375837   -0.0005224    5.8710424  
O   -2.0474215   -0.0015360    6.9697579  
C    0.1673580    0.0013566    6.0411963  
O    0.5673524    0.0020687    7.3615553  
C    1.0325770    0.0023412    4.9669890  
H    2.0953057    0.0030649    2.0900562  
H   -2.0989778   -0.0102372    1.7591824  
H   -2.8710934   -0.0020419    4.4995513  
H   -1.4634884   -0.0006497    7.7393593  
H    1.5290710    0.0033153    7.3880045  
H    2.1042148    0.0039609    5.1284455  
