62

C   -0.4221268   -0.6163923   -9.5756952  
C   -0.7874008    0.6277176   -9.1160936  
C   -0.7188373    1.5188933  -10.2277157  
C   -0.3027720    0.7552779  -11.3482995  
N   -0.1296366   -0.5365132  -10.9171185  
C   -0.1279724    1.3109171  -12.6193232  
C   -0.3780317    2.6619737  -12.7617834  
O   -0.2233858    3.2555857  -13.9810965  
C   -0.7935792    3.4407010  -11.6555657  
O   -1.0020017    4.7703518  -11.9587711  
C   -0.9659673    2.8932707  -10.4013223  
H    0.1530344   -1.3079734  -11.4941171  
H    0.1890644    0.7343708  -13.4773918  
H   -0.4456063    4.1880306  -13.8609762  
H   -1.2801020    5.2249860  -11.1577894  
H   -1.2850017    3.5148784   -9.5728901  
H   -0.3457112   -1.5541250   -9.0524577  
C    0.8246865   -0.7190543   -5.2242741  
C   -0.0307352   -0.0004646   -4.4215603  
C   -0.9001604    0.7278868   -5.2865486  
C   -0.5247010    0.4109452   -6.6171514  
N    0.5268046   -0.4685439   -6.5433115  
C   -1.1700225    0.9504894   -7.7339507  
C   -2.2135719    1.8256968   -7.5033123  
O   -2.8785559    2.3813509   -8.5578538  
C   -2.6027001    2.1545709   -6.1829949  
O   -3.6585241    3.0402816   -6.1189979  
C   -1.9663491    1.6228849   -5.0807725  
H    0.9974802   -0.8777492   -7.3300751  
H   -3.5595538    2.9532703   -8.1804759  
H   -3.8580207    3.2093203   -5.1931304  
H   -2.2865752    1.8935993   -4.0814492  
H    1.6246627   -1.3893551   -4.9602782  
C    3.2573670   -0.0002920   -1.5109380  
C    2.5379468   -0.0001709   -0.3591961  
C    1.1435043    0.0000332   -0.7338500  
C    1.1092609   -0.0000082   -2.2088477  
N    2.4227562    0.0001909   -2.6182613  
C   -0.0265532   -0.0002522   -2.9515663  
C   -1.3003035   -0.0002639   -2.2514981  
O   -2.3786784   -0.0004131   -2.8306429  
C   -1.2877725    0.0000312   -0.6895608  
O   -2.3539958    0.0003307   -0.0892036  
C    0.0000000    0.0000000    0.0000000  
H    2.9384091   -0.0000369    0.6389239  
H    4.3270394   -0.0004765   -1.6439446  
H    2.7280494   -0.0013406   -3.5742113  
C    0.8175213    0.6860729    2.3021913  
C    0.0000000    0.0000000    1.4700000  
C   -0.8887526   -0.7456559    2.3478473  
C   -0.4549825   -0.3816753    3.7138435  
N    0.5448156    0.4573574    3.6934124  
C   -1.0945674   -0.9182058    4.8835240  
C   -2.1210866   -1.7789155    4.6970523  
O   -2.8083856   -2.3554314    5.6976972  
C   -2.5824069   -2.1655116    3.3310774  
O   -3.5227682   -2.9541547    3.2362962  
C   -1.9100805   -1.6015804    2.1470656  
H   -0.7567140   -0.6349833    5.8697035  
H   -3.4728268   -2.9124471    5.2533954  
H   -2.2742832   -1.9066565    1.1752040  
H    1.6189533    1.3585343    2.0405121  
