62

C    1.1243405    0.0099912   -0.7919011  
C    0.7474067    0.0234534   -2.1148549  
C   -0.6787392    0.0234491   -2.1414699  
C   -1.1201751    0.0098600   -0.7935544  
N    0.0000000    0.0000000    0.0000000  
C   -2.4730819    0.0063728   -0.4408235  
C   -3.3971964    0.0171005   -1.4675046  
O   -4.7313522    0.0146296   -1.1793451  
C   -2.9763662    0.0303526   -2.8186311  
O   -4.0166493    0.0395145   -3.7247609  
C   -1.6418577    0.0335267   -3.1673478  
H    1.4178701    0.0310953   -2.9571214  
H   -2.8160167   -0.0041088    0.5845978  
H   -5.1938829    0.0230908   -2.0274364  
H   -3.6464695    0.0482315   -4.6127330  
H    2.1062461    0.0052800   -0.3505414  
C    1.5731279   -2.0887113   -5.2038816  
C    1.4268543   -1.6686911   -6.4820702  
C    0.2928339   -0.7579339   -6.4501487  
C   -0.1353193   -0.7453028   -5.0348361  
N    0.6115040   -1.5234452   -4.2994868  
C   -1.2456350    0.0471728   -4.5828762  
C   -1.8983059    0.7934183   -5.5029156  
O   -2.9512088    1.5797315   -5.2215851  
C   -1.4900133    0.8021949   -6.9386669  
O   -2.1296486    1.5051417   -7.7209414  
C   -0.3478302   -0.0192593   -7.3774781  
H    2.0158241   -1.9429533   -7.3405402  
H   -3.1965514    1.9803418   -6.0750904  
H    2.3058872   -2.7749763   -4.8100823  
C    0.9356419   -3.1568084  -10.1688619  
C    1.0907916   -2.4089232  -11.2916581  
C    0.7558496   -1.0488474  -10.9411682  
C    0.3902544   -1.0657860   -9.5118873  
N    0.5194988   -2.3731602   -9.1032824  
C    0.0111349    0.0270769   -8.8022229  
C   -0.0404787    1.3052689   -9.4922203  
O   -0.3697778    2.3471788   -8.9405980  
C    0.3422838    1.3465284  -11.0060223  
O    0.3022827    2.4169095  -11.5975829  
C    0.7352275    0.1022674  -11.6627269  
H    1.4039401   -2.7689617  -12.2554649  
H    0.9989454    0.1394153  -12.7109621  
H    1.0900919   -4.2145533  -10.0302576  
H    0.3411519   -2.7063262   -8.1736368  
C    2.5285572    2.1210227    2.9438989  
C    1.9331703    1.6216660    4.0790748  
C    0.8903039    0.7472258    3.6520102  
C    0.8972198    0.7527806    2.2336141  
N    1.9028376    1.5986179    1.8362361  
C    0.0000000    0.0000000    1.4700000  
C   -0.9207814   -0.7726952    2.1506477  
O   -1.8198395   -1.5274828    1.4542253  
C   -0.9436862   -0.7911793    3.5655508  
O   -1.9197945   -1.6098497    4.0950179  
C   -0.0590329   -0.0485852    4.3195194  
H    2.2150357    1.8593692    5.0905303  
H    2.1533708    1.7953814    0.8841339  
H   -2.3621246   -1.9821033    2.1118817  
H   -1.8668290   -1.5649508    5.0545920  
H   -0.1007624   -0.0827977    5.4019087  
H    3.3491200    2.8096064    2.8367138  
