62

C   -1.8348690    4.3060449    2.0218351  
C   -2.7533019    4.9174547    2.8434961  
C   -4.0433808    4.4687252    2.4324755  
C   -3.8475657    3.5772812    1.3466991  
N   -2.4953194    3.5025979    1.1220432  
C   -4.9055034    2.9416186    0.6898203  
C   -6.1843937    3.2105318    1.1373726  
O   -7.2538381    2.6165174    0.5320223  
C   -6.4001102    4.0973389    2.2189717  
O   -7.7302506    4.2618565    2.5460854  
C   -5.3569186    4.7249986    2.8672933  
H   -2.5219707    5.6034444    3.6403012  
H   -2.0541460    2.9378271    0.4189204  
H   -8.0406238    2.9367728    0.9920968  
H   -7.7881128    4.8751036    3.2851279  
H   -5.5530604    5.3993718    3.6926586  
H   -0.7610295    4.3806100    2.0055080  
C   -4.7116692    2.0166749   -0.4361492  
C   -3.5469193    1.6335915   -1.0090230  
C   -3.9344200    0.7158636   -2.0692675  
C   -5.4100250    0.6590253   -1.9921697  
N   -5.8713513    1.4195637   -1.0367911  
C   -6.1879620   -0.1526689   -2.8871849  
C   -5.5220673   -0.8744596   -3.8172046  
O   -6.1202839   -1.6745699   -4.7160937  
C   -4.0333913   -0.8379427   -3.9205068  
O   -3.4938790   -1.5207102   -4.7911249  
C   -3.2578655    0.0024282   -2.9908505  
H   -2.5481476    1.9364533   -0.7448158  
H   -7.2650566   -0.1753254   -2.8080458  
H   -5.3890867   -2.0506375   -5.2386608  
C    0.0000000    0.0000000    0.0000000  
C    1.0521666   -0.0011982   -0.8862343  
C    0.4917215   -0.0011996   -2.1979132  
C   -0.9187429    0.0003215   -2.0478682  
N   -1.1833171   -0.0009323   -0.7007913  
C   -1.7951703    0.0010483   -3.1372089  
C   -1.2375841    0.0005313   -4.4010422  
O   -2.0474218    0.0015510   -5.4997578  
C    0.1673576   -0.0013585   -4.5711963  
O    0.5673520   -0.0020735   -5.8915554  
C    1.0325768   -0.0023493   -3.4969892  
H    2.0953056   -0.0030808   -0.6200564  
H   -2.0989778    0.0102529   -0.2891822  
H   -1.4634888    0.0006601   -6.2693595  
H    1.5290707   -0.0033271   -5.9180047  
H    2.1042146   -0.0039770   -3.6584456  
C    3.1301144    0.0010313    3.1728260  
C    2.5367765    0.0002768    1.9564670  
C    1.1089900   -0.0001027    2.2356185  
C    1.0177864    0.0004150    3.7115134  
N    2.1993570    0.0011613    4.2663826  
C   -0.2459220    0.0002880    4.3957118  
C   -1.3675327    0.0000606    3.6398520  
O   -2.6129319   -0.0000866    4.1448486  
C   -1.3083589   -0.0000910    2.1483229  
O   -2.3693264   -0.0004206    1.5241687  
C    0.0000000    0.0000000    1.4700000  
H    3.0096015    0.0001008    0.9892483  
H   -0.2829642    0.0004689    5.4753125  
H   -3.1967446   -0.0002093    3.3649027  
H    4.1849273    0.0015113    3.3971983  
