64

C    3.4563083   -0.7177420   -2.8470533  
C    2.5562222   -0.0001542   -3.6002998  
C    3.3099822    0.7271499   -4.5685324  
C    4.6761873    0.4106312   -4.3558679  
N    4.7297760   -0.4676079   -3.3020927  
C    5.7069662    0.9493902   -5.1317700  
C    5.3520796    1.8233623   -6.1409306  
O    6.3186822    2.3782086   -6.9288638  
C    3.9944357    2.1517966   -6.3684186  
O    3.8034936    3.0362546   -7.4098688  
C    2.9770454    1.6208856   -5.6031889  
H    5.5676007   -0.8762676   -2.9292279  
H    6.7501838    0.7122837   -4.9746748  
H    5.8618777    2.9493258   -7.5600682  
H    2.8603065    3.2050726   -7.4964778  
H    1.9463687    1.8912366   -5.8009102  
H    3.2907748   -1.3870883   -2.0202927  
C    0.0000000    0.0000000    0.0000000  
C    1.0541691   -0.0001719   -0.8560389  
C    0.5103143   -0.0000448   -2.1935953  
C   -0.9576364    0.0002464   -2.0455731  
N   -1.2018458   -0.0001389   -0.6915972  
C   -1.8348303    0.0008322   -3.0810611  
C   -1.2972837    0.0009745   -4.4314603  
O   -2.0050658    0.0014276   -5.4301322  
C    0.2542633    0.0004194   -4.6117570  
O    0.7184681    0.0002269   -5.7439118  
C    1.0974560    0.0000881   -3.4189126  
H    2.0940754   -0.0005481   -0.5817976  
H   -2.1128195    0.0014913   -0.2706792  
C   -4.5189887    2.1247800   -0.2046401  
C   -3.4217511    1.6624925   -0.8937171  
C   -3.9056833    0.7751586   -1.9002201  
C   -5.3180955    0.7354478   -1.7759571  
N   -5.6572031    1.5646450   -0.7357384  
C   -6.1291064   -0.0406022   -2.6095012  
C   -5.5029119   -0.7899853   -3.5864780  
O   -6.2471408   -1.5653365   -4.4278856  
C   -4.0948351   -0.7638642   -3.7259571  
O   -3.6222931   -1.5645224   -4.7452681  
C   -3.2941065    0.0012879   -2.9038247  
H   -2.3983554    1.9308560   -0.6946318  
H   -6.5926283    1.7462696   -0.4195524  
H   -7.2061207   -0.0753242   -2.5198558  
H   -5.6225323   -1.9985108   -5.0241137  
H   -2.6635023   -1.4894245   -4.7714271  
H   -4.5796257    2.8086372    0.6245895  
C    3.3041272   -0.0001177    3.0120429  
C    2.5845372    0.0004780    1.8395852  
C    1.2040006    0.0000008    2.1983588  
C    1.1422373   -0.0006037    3.6154372  
N    2.4348639   -0.0026109    4.0777464  
C   -0.0655181   -0.0008797    4.3197917  
C   -1.2321768   -0.0002324    3.5801400  
O   -2.4392816   -0.0001146    4.2172520  
C   -1.1911209    0.0000007    2.1655264  
O   -2.4371527    0.0002320    1.5732860  
C    0.0000000    0.0000000    1.4700000  
H    3.0031534    0.0000661    0.8477417  
H    2.7054629    0.0071099    5.0445261  
H   -0.1193549   -0.0014844    5.3997470  
H   -3.1132988    0.0000648    3.5251786  
H   -2.3200282    0.0004071    0.6183591  
H    4.3686625   -0.0004071    3.1724291  
