60

C    7.6107558   -3.2443072   -6.7426560  
C    8.4606293   -3.1983940   -7.8234321  
C    8.4611816   -1.8524818   -8.2957862  
C    7.5858662   -1.1165321   -7.4566636  
N    7.0850020   -1.9921905   -6.5255490  
C    7.3426132    0.2493334   -7.6299514  
C    7.9951032    0.8838856   -8.6690756  
O    7.7940364    2.2168438   -8.8831033  
C    8.8719704    0.1666393   -9.5172972  
O    9.4450227    0.9396518  -10.5059356  
C    9.1122090   -1.1808930   -9.3470978  
H    9.0114741   -4.0326179   -8.2229742  
H    6.6765283    0.8159192   -6.9939383  
H    8.3361811    2.4556872   -9.6461867  
H   10.0223910    0.3795175  -11.0336654  
H    9.7889641   -1.7036892  -10.0128035  
H    7.3369128   -4.0714556   -6.1103640  
C    6.1837012   -2.1071894   -4.1730104  
C    6.1473624   -1.6429265   -5.4486332  
C    5.0179318   -0.7478965   -5.5388751  
C    4.3948024   -0.7286185   -4.2016663  
N    5.1487785   -1.5734154   -3.4201754  
C    3.2973506   -0.0000934   -3.8752374  
C    2.6891816    0.8195677   -4.9100425  
O    1.6983690    1.5114229   -4.7152918  
C    3.3322638    0.8142072   -6.3334969  
O    2.8288283    1.5001138   -7.2128972  
C    4.5147645   -0.0118351   -6.5641428  
H    4.9540960   -0.0098155   -7.5524281  
H    6.8793285   -2.7945271   -3.7196252  
H    4.9752873   -1.7701683   -2.4515493  
C    3.3321174    0.0004714   -1.3379332  
C    2.6974186    0.0000115   -2.5332308  
C    1.2800441   -0.0002119   -2.2052838  
C    1.2395035    0.0000643   -0.7271293  
N    2.4394063    0.0005458   -0.2131034  
C    0.0000000    0.0000000    0.0000000  
C   -1.1468701    0.0000634   -0.7169542  
O   -2.3742201    0.0000072   -0.1695492  
C   -1.1388767    0.0001606   -2.2096354  
O   -2.2206229    0.0000903   -2.7970413  
C    0.1454526    0.0001815   -2.9324239  
H   -2.9844344    0.0001023   -0.9290168  
H    0.1083580    0.0003680   -4.0135594  
H    4.3940040    0.0007617   -1.1498630  
C    0.8175213    0.6860729    2.3021913  
C    0.0000000    0.0000000    1.4700000  
C   -0.8887526   -0.7456559    2.3478473  
C   -0.4549825   -0.3816753    3.7138435  
N    0.5448156    0.4573574    3.6934124  
C   -1.0945674   -0.9182058    4.8835240  
C   -2.1210866   -1.7789155    4.6970523  
O   -2.8083856   -2.3554314    5.6976972  
C   -2.5824069   -2.1655116    3.3310774  
O   -3.5227682   -2.9541547    3.2362962  
C   -1.9100805   -1.6015804    2.1470656  
H   -0.7567140   -0.6349833    5.8697035  
H   -3.4728268   -2.9124471    5.2533954  
H   -2.2742832   -1.9066565    1.1752040  
H    1.6189533    1.3585343    2.0405121  
