62

C    8.1689918    0.7093695   -3.9848359  
C    8.8283217    0.4590557   -5.1659778  
C    9.8873195   -0.4486713   -4.8673918  
C    9.8239027   -0.7191449   -3.4764394  
N    8.7705111    0.0014512   -2.9707477  
C   10.7192963   -1.5775654   -2.8313247  
C   11.6963243   -2.1740429   -3.6045068  
O   12.5962990   -3.0213128   -3.0255502  
C   11.7760801   -1.9164242   -4.9937835  
O   12.8041717   -2.5856330   -5.6250751  
C   10.8932544   -1.0694731   -5.6308224  
H    8.5776022    0.8798965   -6.1246363  
H   10.6763839   -1.7877447   -1.7715203  
H   13.1818839   -3.3222452   -3.7325123  
H   12.7875889   -2.3567498   -6.5593892  
H   10.9792324   -0.8913197   -6.6963494  
H    7.3181247    1.3379831   -3.7852643  
C    4.7795901    0.0008674   -1.0815733  
C    5.8063529    0.0010472   -1.9702986  
C    7.0285665    0.0013952   -1.2015147  
C    6.6268092    0.0013742    0.2181264  
N    5.2509927    0.0014465    0.2224663  
C    7.4934505    0.0012526    1.2624621  
C    8.9169021    0.0013603    0.9686564  
O    9.7768360    0.0013258    1.8397561  
C    9.3650173    0.0016362   -0.5276716  
O   10.5607784    0.0020357   -0.7873207  
C    8.3375016    0.0014682   -1.5659693  
H    5.7176690    0.0011298   -3.0420957  
H    7.1779194    0.0011091    2.2965563  
H    4.6776564   -0.0001045    1.0460743  
C    3.3321168    0.0004716   -1.3379341  
C    2.6974177    0.0000118   -2.5332316  
C    1.2800432   -0.0002116   -2.2052842  
C    1.2395033    0.0000644   -0.7271298  
N    2.4394059    0.0005460   -0.2131041  
C    0.0000000    0.0000000    0.0000000  
C   -1.1468704    0.0000635   -0.7169542  
O   -2.3742206    0.0000074   -0.1695488  
C   -1.1388774    0.0001608   -2.2096352  
O   -2.2206238    0.0000906   -2.7970409  
C    0.1454514    0.0001818   -2.9324241  
H    3.1367978   -0.0000649   -3.5160956  
H   -2.9844350    0.0001027   -0.9290164  
H    0.1083567    0.0003684   -4.0135594  
C    0.0000000    0.0000000    1.4700000  
C    1.0521667    0.0011902    2.3562342  
C    0.4917218    0.0011957    3.6679131  
C   -0.9187428   -0.0003148    3.5178682  
N   -1.1833171    0.0009411    2.1707914  
C   -1.7951701   -0.0010350    4.6072090  
C   -1.2375837   -0.0005224    5.8710424  
O   -2.0474215   -0.0015360    6.9697579  
C    0.1673580    0.0013566    6.0411963  
O    0.5673524    0.0020687    7.3615553  
C    1.0325770    0.0023412    4.9669890  
H    2.0953057    0.0030649    2.0900562  
H   -2.0989778   -0.0102372    1.7591824  
H   -2.8710934   -0.0020419    4.4995513  
H   -1.4634884   -0.0006497    7.7393593  
H    1.5290710    0.0033153    7.3880045  
H    2.1042148    0.0039609    5.1284455  
