62

C    0.0000000    0.0000000    0.0000000  
C    1.0521663   -0.0011848   -0.8862345  
C    0.4917204   -0.0011931   -2.1979132  
C   -0.9187440    0.0003103   -2.0478677  
N   -1.1833178   -0.0009469   -0.7007906  
C   -1.7951715    0.0010260   -3.1372080  
C   -1.2375860    0.0005162   -4.4010418  
O   -2.0474246    0.0015258   -5.4997565  
C    0.1673554   -0.0013555   -4.5711965  
O    0.5673495   -0.0020658   -5.8915552  
C    1.0325749   -0.0023359   -3.4969894  
H    2.0953051   -0.0030544   -0.6200571  
H   -2.0989782    0.0102266   -0.2891815  
H   -2.8710950    0.0020277   -3.0295498  
H   -1.4634918    0.0006423   -6.2693584  
H    1.5290678   -0.0033073   -5.9180051  
C    4.3492359   -2.0980064   -1.4710681  
C    3.1288583   -1.6343795   -1.8449721  
C    3.3413761   -0.7396446   -2.9581301  
C    4.7960275   -0.7198915   -3.2038732  
N    5.3496945   -1.5635224   -2.2686574  
C    5.4017582    0.0079301   -4.1760207  
C    4.5652013    0.8266244   -5.0376746  
O    5.0157004    1.5178902   -5.9418338  
C    3.0221456    0.8211333   -4.7952838  
O    2.3077276    1.5066991   -5.5142178  
C    2.4861679   -0.0045255   -3.7159933  
H    2.1872594   -1.8898593   -1.3924955  
H    4.6019212   -2.7850026   -0.6798181  
H    6.3294132   -1.7620983   -2.1805306  
C    7.6759249   -1.0711929   -4.3298514  
C    6.8548512    0.0082622   -4.3983299  
C    7.6810672    1.1453533   -4.7288241  
C    9.0606794    0.6362174   -4.8481590  
N    8.9894312   -0.7141020   -4.5942875  
C   10.1393666    1.4020252   -5.1509415  
C    9.9274540    2.8225485   -5.3739700  
O   10.8347416    3.5958135   -5.6518029  
C    8.4747084    3.3834249   -5.2525010  
O    8.2840624    4.5778189   -5.4378028  
C    7.3931070    2.4592235   -4.9210773  
H   11.1430270    1.0086854   -5.2337613  
H    6.3901258    2.8554865   -4.8390477  
H    7.4319992   -2.0974871   -4.1082432  
H    9.7709048   -1.3436140   -4.6021033  
C    3.3041272   -0.0001177    3.0120429  
C    2.5845372    0.0004780    1.8395852  
C    1.2040006    0.0000008    2.1983588  
C    1.1422373   -0.0006037    3.6154372  
N    2.4348639   -0.0026109    4.0777464  
C   -0.0655181   -0.0008797    4.3197917  
C   -1.2321768   -0.0002324    3.5801400  
O   -2.4392816   -0.0001146    4.2172520  
C   -1.1911209    0.0000007    2.1655264  
O   -2.4371527    0.0002320    1.5732860  
C    0.0000000    0.0000000    1.4700000  
H    3.0031534    0.0000661    0.8477417  
H    2.7054629    0.0071099    5.0445261  
H   -0.1193549   -0.0014844    5.3997470  
H   -3.1132988    0.0000648    3.5251786  
H   -2.3200282    0.0004071    0.6183591  
H    4.3686625   -0.0004071    3.1724291  
