62

C    1.8294735   -2.4029644   -7.1947762  
C    2.8424519   -2.6109143   -8.1020241  
C    3.0397815   -1.3799765   -8.7951714  
C    2.1108551   -0.4492892   -8.2633410  
N    1.3903781   -1.1035500   -7.2951091  
C    2.0223286    0.8717202   -8.7126580  
C    2.8875113    1.2603703   -9.7169431  
O    2.8440321    2.5389811  -10.1926284  
C    3.8211040    0.3462220  -10.2605926  
O    4.6125457    0.8847883  -11.2540266  
C    3.9088116   -0.9572146   -9.8180021  
H    3.3730528   -3.5363181   -8.2472304  
H    1.3164429    1.5858916   -8.3115526  
H    3.5208795    2.5979670  -10.8794060  
H    5.2144274    0.2024973  -11.5667907  
H    4.6338877   -1.6346540  -10.2536844  
H    1.3844688   -3.0791353   -6.4850426  
C    0.1164998   -0.7216400   -5.1523583  
C    0.3272678   -0.5036903   -6.4760463  
C   -0.6879590    0.4235563   -6.9169129  
C   -1.5133671    0.7301674   -5.7330708  
N   -0.9736297    0.0040464   -4.6965763  
C   -2.5790089    1.5704692   -5.7354640  
C   -2.9370249    2.2158046   -6.9876223  
O   -3.8800066    2.9891499   -7.0926168  
C   -2.0769102    1.9054768   -8.2539972  
O   -2.3689469    2.4426557   -9.3139092  
C   -0.9518103    0.9825202   -8.1269043  
H   -3.1711467    1.7818063   -4.8559076  
H   -0.3611580    0.7731148   -9.0083816  
H    0.6657026   -1.3515088   -4.4715271  
C    1.1188642    0.0008222   -0.8003808  
C    0.0000000    0.0000000    0.0000000  
C   -1.1323862    0.0008899   -0.8673528  
C   -0.6382663    0.0019679   -2.1969280  
N    0.7324016    0.0038481   -2.1202242  
C   -1.4770914    0.0027318   -3.3154808  
C   -2.8395473    0.0020945   -3.0876857  
O   -3.7039201    0.0024425   -4.1440349  
C   -3.3517868    0.0013931   -1.7684331  
O   -4.7300497    0.0012366   -1.7073121  
C   -2.5248543    0.0009123   -0.6644817  
H    1.3576314   -0.0056167   -2.9057046  
H   -4.5940032    0.0021826   -3.7685128  
H   -4.9934602    0.0007259   -0.7819913  
H   -2.9462577    0.0005603    0.3339659  
H    2.1619895    0.0009355   -0.5342068  
C    2.5128556    2.1077716    2.9199648  
C    1.9592212    1.6432552    4.0696553  
C    0.8915788    0.7479214    3.6910360  
C    0.8684491    0.7287414    2.2159470  
N    1.8754542    1.5738793    1.8102719  
C    0.0000000    0.0000000    1.4700000  
C   -0.9772830   -0.8200135    2.1664417  
O   -1.8021297   -1.5120829    1.5842315  
C   -0.9711318   -0.8147624    3.7284083  
O   -1.7894187   -1.5009653    4.3257297  
C    0.0140216    0.0115358    4.4216297  
H    2.2638494    1.8988021    5.0689105  
H    0.0117648    0.0094386    5.5031631  
H    3.3327358    2.7953732    2.7900019  
H    2.1123206    1.7707734    0.8551938  
