62

C    9.8353159    0.7177417   -4.4460097  
C    9.2250472    0.0006541   -3.4431011  
C   10.2500023   -0.7262115   -2.7680207  
C   11.4754009   -0.4099534   -3.4085721  
N   11.1874836    0.4677150   -4.4241599  
C   12.7008703   -0.9484069   -3.0047371  
C   12.6891316   -1.8218000   -1.9345856  
O   13.8576955   -2.3763275   -1.4987277  
C   11.4766039   -2.1499668   -1.2827415  
O   11.6304928   -3.0338459   -0.2346869  
C   10.2672429   -1.6193569   -1.6807680  
H   11.8610389    0.8760851   -5.0466858  
H   13.6382693   -0.7114964   -3.4888397  
H   13.6279770   -2.9470575   -0.7539049  
H   10.7651642   -3.2025163    0.1504890  
H    9.3547752   -1.8894915   -1.1622051  
H    9.4128561    1.3866624   -5.1760998  
C    6.7793184   -0.0000202   -4.0582541  
C    7.7853564    0.0004709   -3.1461341  
C    7.1695420    0.0010648   -1.8401450  
C    5.7118176    0.0008487   -2.0678072  
N    5.5416283    0.0005848   -3.4330637  
C    4.7795901    0.0008674   -1.0815733  
C    5.2428769    0.0013428    0.2960699  
O    4.4818131    0.0014585    1.2547580  
C    6.7823177    0.0018303    0.5605058  
O    7.1842444    0.0025393    1.7162372  
C    7.6891545    0.0014823   -0.5847011  
H    8.7535772    0.0016181   -0.3930572  
H    6.8379584   -0.0005567   -5.1345671  
H    4.6549022   -0.0011624   -3.9029153  
C    3.3321168    0.0004716   -1.3379341  
C    2.6974177    0.0000118   -2.5332316  
C    1.2800432   -0.0002116   -2.2052842  
C    1.2395033    0.0000644   -0.7271298  
N    2.4394059    0.0005460   -0.2131041  
C    0.0000000    0.0000000    0.0000000  
C   -1.1468704    0.0000635   -0.7169542  
O   -2.3742206    0.0000074   -0.1695488  
C   -1.1388774    0.0001608   -2.2096352  
O   -2.2206238    0.0000906   -2.7970409  
C    0.1454514    0.0001818   -2.9324241  
H    3.1367978   -0.0000649   -3.5160956  
H   -2.9844350    0.0001027   -0.9290164  
H    0.1083567    0.0003684   -4.0135594  
C    2.5285572    2.1210227    2.9438989  
C    1.9331703    1.6216660    4.0790748  
C    0.8903039    0.7472258    3.6520102  
C    0.8972198    0.7527806    2.2336141  
N    1.9028376    1.5986179    1.8362361  
C    0.0000000    0.0000000    1.4700000  
C   -0.9207814   -0.7726952    2.1506477  
O   -1.8198395   -1.5274828    1.4542253  
C   -0.9436862   -0.7911793    3.5655508  
O   -1.9197945   -1.6098497    4.0950179  
C   -0.0590329   -0.0485852    4.3195194  
H    2.2150357    1.8593692    5.0905303  
H    2.1533708    1.7953814    0.8841339  
H   -2.3621246   -1.9821033    2.1118817  
H   -1.8668290   -1.5649508    5.0545920  
H   -0.1007624   -0.0827977    5.4019087  
H    3.3491200    2.8096064    2.8367138  
