64

C    3.8616515   -3.7068106   -5.1199383  
C    4.5396968   -4.5103902   -4.2328190  
C    3.9032560   -4.3606676   -2.9650942  
C    2.8339507   -3.4456123   -3.1416918  
N    2.8381504   -3.0666529   -4.4611576  
C    1.9868847   -3.0616891   -2.0977231  
C    2.2233996   -3.6117578   -0.8528685  
O    1.4262388   -3.2716698    0.2015922  
C    3.2855490   -4.5261805   -0.6566901  
O    3.3914897   -4.9851857    0.6400113  
C    4.1217647   -4.9051747   -1.6860749  
H    5.3892759   -5.1276170   -4.4699699  
H    1.1702416   -2.3646239   -2.2257703  
H    1.7597542   -3.7608837    0.9649423  
H    4.1324469   -5.5970908    0.6864681  
H    4.9271535   -5.6074716   -1.5055013  
H    4.0280267   -3.5385477   -6.1701600  
C    1.8836765   -2.1362878   -5.0810771  
C    1.8358577   -1.7275852   -6.3703619  
C    0.7030357   -0.8169581   -6.4333933  
C    0.1677631   -0.7920094   -5.0551901  
N    0.8558147   -1.5634002   -4.2579886  
C   -0.9736297    0.0040464   -4.6965763  
C   -1.5536731    0.7419470   -5.6704281  
O   -2.6247580    1.5303580   -5.4774857  
C   -1.0366304    0.7382185   -7.0707186  
O   -1.6142412    1.4340391   -7.9058358  
C    0.1355193   -0.0866884   -7.4135273  
H    2.4887432   -2.0091995   -7.1787617  
H   -2.8038829    1.9233573   -6.3507659  
H    0.4792065   -0.0617341   -8.4389471  
C    1.1188642    0.0008222   -0.8003808  
C    0.0000000    0.0000000    0.0000000  
C   -1.1323862    0.0008899   -0.8673528  
C   -0.6382663    0.0019679   -2.1969280  
N    0.7324016    0.0038481   -2.1202242  
C   -1.4770914    0.0027318   -3.3154808  
C   -2.8395473    0.0020945   -3.0876857  
O   -3.7039201    0.0024425   -4.1440349  
C   -3.3517868    0.0013931   -1.7684331  
O   -4.7300497    0.0012366   -1.7073121  
C   -2.5248543    0.0009123   -0.6644817  
H    1.3576314   -0.0056167   -2.9057046  
H   -4.5940032    0.0021826   -3.7685128  
H   -4.9934602    0.0007259   -0.7819913  
H   -2.9462577    0.0005603    0.3339659  
H    2.1619895    0.0009355   -0.5342068  
C    2.5311839    2.1237619    3.0120429  
C    1.9795631    1.6616747    1.8395852  
C    0.9223175    0.7739173    2.1983588  
C    0.8753926    0.7337535    3.6154372  
N    1.8668922    1.5631002    4.0777464  
C   -0.0496243   -0.0427881    4.3197917  
C   -0.9437528   -0.7922060    3.5801400  
O   -1.8685244   -1.5680278    4.2172520  
C   -0.9124520   -0.7656372    2.1655264  
O   -1.8671164   -1.5663939    1.5732860  
C    0.0000000    0.0000000    1.4700000  
H    2.3005065    1.9304404    0.8477417  
H    2.0679347    1.7444845    5.0445261  
H   -0.0904770   -0.0778569    5.3997470  
H   -2.3849669   -2.0011402    3.5251786  
H   -1.7775064   -1.4909735    0.6183591  
H    3.3468514    2.8078103    3.1724291  
