64

C    0.3609211   -1.0133845   -9.5690028  
C   -0.0432823    0.0795058   -8.8377871  
C   -0.0019816    1.2047355   -9.7134310  
C    0.4383405    0.7331693  -10.9766280  
N    0.6515036   -0.6173990  -10.8535673  
C    0.5963921    1.5720567  -12.0839120  
C    0.3043345    2.9113324  -11.9129707  
O    0.4410282    3.7746121  -12.9613393  
C   -0.1359342    3.4009256  -10.6602622  
O   -0.3856195    4.7577241  -10.6503423  
C   -0.2918228    2.5739651   -9.5673946  
H    0.9584460   -1.2260285  -11.5906828  
H    0.9317485    1.2188713  -13.0493121  
H    0.1897275    4.6470328  -12.6311969  
H   -0.6782200    5.0066913   -9.7682972  
H   -0.6305673    2.9777524   -8.6204590  
H    0.4663030   -2.0437740   -9.2754877  
C    1.5647265   -2.0539605   -5.3222410  
C    1.3415396   -1.5772678   -6.5740504  
C    0.2114930   -0.6825503   -6.4885492  
C   -0.2083728   -0.6770015   -5.0741686  
N    0.6518898   -1.5286393   -4.4202953  
C   -1.2456329    0.0471727   -4.5828766  
C   -1.9989043    0.8763050   -5.5089746  
O   -2.9500476    1.5652087   -5.1639546  
C   -1.5719696    0.8855377   -7.0114545  
O   -2.1988662    1.5795073   -7.8005468  
C   -0.4365507    0.0630003   -7.4214648  
H    1.9041939   -1.8243652   -7.4566468  
H    2.3191293   -2.7449944   -4.9827731  
H    0.6225289   -1.7350433   -3.4386728  
C    1.1243410    0.0099923   -0.7919003  
C    0.7474076    0.0234544   -2.1148543  
C   -0.6787381    0.0234490   -2.1414700  
C   -1.1201745    0.0098592   -0.7935546  
N    0.0000000    0.0000000    0.0000000  
C   -2.4730816    0.0063709   -0.4408240  
C   -3.3971958    0.0170982   -1.4675058  
O   -4.7313517    0.0146259   -1.1793471  
C   -2.9763648    0.0303504   -2.8186324  
O   -4.0166480    0.0395118   -3.7247624  
C   -1.6418562    0.0335260   -3.1673481  
H    1.4178717    0.0310972   -2.9571209  
H   -2.8160166   -0.0041111    0.5845966  
H   -5.1938818    0.0230867   -2.0274384  
H   -3.6464675    0.0482293   -4.6127343  
H    2.1062467    0.0052819   -0.3505407  
C    2.5285572    2.1210227    2.9438989  
C    1.9331703    1.6216660    4.0790748  
C    0.8903039    0.7472258    3.6520102  
C    0.8972198    0.7527806    2.2336141  
N    1.9028376    1.5986179    1.8362361  
C    0.0000000    0.0000000    1.4700000  
C   -0.9207814   -0.7726952    2.1506477  
O   -1.8198395   -1.5274828    1.4542253  
C   -0.9436862   -0.7911793    3.5655508  
O   -1.9197945   -1.6098497    4.0950179  
C   -0.0590329   -0.0485852    4.3195194  
H    2.2150357    1.8593692    5.0905303  
H    2.1533708    1.7953814    0.8841339  
H   -2.3621246   -1.9821033    2.1118817  
H   -1.8668290   -1.5649508    5.0545920  
H   -0.1007624   -0.0827977    5.4019087  
H    3.3491200    2.8096064    2.8367138  
