62

C    3.2555523   -2.9340594   -6.4999842  
C    4.1276387   -3.6332225   -5.6980466  
C    4.9787493   -4.3829335   -6.5630002  
C    4.5754578   -4.0984418   -7.8927921  
N    3.5257114   -3.2168969   -7.8184552  
C    5.1972285   -4.6654507   -9.0093449  
C    6.2454061   -5.5352655   -8.7792993  
O    6.8881410   -6.1168668   -9.8336473  
C    6.6621478   -5.8319440   -7.4597829  
O    7.7191031   -6.7163406   -7.3962932  
C    6.0490411   -5.2731529   -6.3577953  
H    4.1471553   -3.6070501   -4.6219763  
H    3.0386289   -2.8268238   -8.6049502  
H    4.8945151   -4.4528233  -10.0253951  
H    7.5769178   -6.6797197   -9.4567545  
H    7.9379789   -6.8627860   -6.4709547  
H    6.3901611   -5.5195042   -5.3590832  
C    2.1709843   -2.0097061   -6.1391748  
C    1.7780130   -1.6284992   -4.9015021  
C    0.6718283   -0.7104846   -5.1253424  
C    0.5282247   -0.6514440   -6.5958784  
N    1.4042466   -1.4110426   -7.1955321  
C   -0.4727377    0.1611588   -7.2305732  
C   -1.2932051    0.8817142   -6.4324705  
O   -2.2712225    1.6824660   -6.8888906  
C   -1.1735669    0.8429683   -4.9450744  
O   -1.9541224    1.5247033   -4.2808521  
C   -0.1387079    0.0017019   -4.3179684  
H    2.1880843   -1.9327664   -3.9536948  
H   -0.5549505    0.1854289   -8.3074023  
H   -2.6790395    2.0573116   -6.0874366  
C    3.3041273    0.0001178   -1.5420428  
C    2.5845373   -0.0004780   -0.3695851  
C    1.2040007   -0.0000007   -0.7283589  
C    1.1422374    0.0006038   -2.1454372  
N    2.4348641    0.0026111   -2.6077464  
C   -0.0655179    0.0008799   -2.8497918  
C   -1.2321766    0.0002325   -2.1101402  
O   -2.4392814    0.0001148   -2.7472522  
C   -1.1911209   -0.0000007   -0.6955266  
O   -2.4371528   -0.0002320   -0.1032862  
C    0.0000000    0.0000000    0.0000000  
H    3.0031533   -0.0000660    0.6222584  
H    2.7054631   -0.0071097   -3.5745261  
H   -3.1132988   -0.0000648   -2.0551787  
H   -2.3200282   -0.0004072    0.8516409  
H    4.3686625    0.0004073   -1.7024290  
C    0.0000000    0.0000000    1.4700000  
C    1.0541688    0.0001722    2.3260392  
C    0.5103138    0.0000454    3.6635956  
C   -0.9576371   -0.0002459    3.5155732  
N   -1.2018458    0.0001392    2.1615969  
C   -1.8348311   -0.0008317    4.5510609  
C   -1.2972847   -0.0009736    5.9014604  
O   -2.0050672   -0.0014265    6.9001319  
C    0.2542623   -0.0004184    6.0817573  
O    0.7184670   -0.0002256    7.2139121  
C    1.0974552   -0.0000873    4.8889129  
H    2.0940752    0.0005483    2.0517982  
H   -2.9081052   -0.0011668    4.4207061  
H    2.1707277    0.0000911    5.0223670  
H   -2.1128194   -0.0014912    1.7406791  
