62

C   10.0626930   -0.7069739   -1.6099522  
C   11.3117310   -0.4555640   -2.1287655  
C   11.1366535    0.4539730   -3.2135190  
C    9.7475797    0.7243698   -3.3098966  
N    9.1243201    0.0019915   -2.3228140  
C    9.2094794    1.5843298   -4.2720328  
C   10.0897062    2.1824532   -5.1527297  
O    9.6178520    3.0312683   -6.1118333  
C   11.4789886    1.9249392   -5.0727524  
O   12.2241200    2.5958840   -6.0203578  
C   12.0105098    1.0764702   -4.1240107  
H   12.2353012   -0.8768533   -1.7702618  
H    8.1517281    1.7944594   -4.3508289  
H   10.3873691    3.3331821   -6.6117910  
H   13.1503784    2.3669517   -5.8969116  
H   13.0788903    0.8984393   -4.0872828  
H    9.7667798   -1.3370318   -0.7887207  
C    6.5771493   -0.0035570    1.3345532  
C    7.6645487   -0.0027622    0.5288600  
C    7.1290977   -0.0009889   -0.8238370  
C    5.6614000   -0.0010505   -0.6437064  
N    5.3318744   -0.0024720    0.6193853  
C    4.7577216    0.0005129   -1.7610467  
C    5.2958120    0.0024560   -3.0019295  
O    4.5716623    0.0040580   -4.1340274  
C    6.7730254    0.0029427   -3.2164074  
O    7.1927149    0.0046215   -4.3735931  
C    7.6790894    0.0012688   -2.0540951  
H    8.7019030   -0.0032207    0.8169075  
H    5.2317436    0.0052550   -4.8505779  
H    6.5493799   -0.0048792    2.4126073  
C    3.3041270    0.0001177   -1.5420435  
C    2.5845370   -0.0004780   -0.3695856  
C    1.2040004   -0.0000007   -0.7283590  
C    1.1422370    0.0006038   -2.1454373  
N    2.4348634    0.0026110   -2.6077469  
C   -0.0655187    0.0008799   -2.8497918  
C   -1.2321769    0.0002326   -2.1101398  
O   -2.4392822    0.0001149   -2.7472517  
C   -1.1911211   -0.0000007   -0.6955263  
O   -2.4371526   -0.0002319   -0.1032858  
C    0.0000000    0.0000000    0.0000000  
H    3.0031534   -0.0000661    0.6222578  
H    2.7054623   -0.0071098   -3.5745266  
H   -0.1193555    0.0014846   -3.9297472  
H   -3.1132992   -0.0000646   -2.0551783  
H   -2.3200279   -0.0004070    0.8516411  
C    0.8175213    0.6860729    2.3021913  
C    0.0000000    0.0000000    1.4700000  
C   -0.8887526   -0.7456559    2.3478473  
C   -0.4549825   -0.3816753    3.7138435  
N    0.5448156    0.4573574    3.6934124  
C   -1.0945674   -0.9182058    4.8835240  
C   -2.1210866   -1.7789155    4.6970523  
O   -2.8083856   -2.3554314    5.6976972  
C   -2.5824069   -2.1655116    3.3310774  
O   -3.5227682   -2.9541547    3.2362962  
C   -1.9100805   -1.6015804    2.1470656  
H   -0.7567140   -0.6349833    5.8697035  
H   -3.4728268   -2.9124471    5.2533954  
H   -2.2742832   -1.9066565    1.1752040  
H    1.6189533    1.3585343    2.0405121  
