60

C    5.9147679   -3.2179483   -7.4556483  
C    6.5307822   -2.4495452   -8.4161436  
C    6.0751422   -1.1103066   -8.2332994  
C    5.1753701   -1.1228305   -7.1368602  
N    5.0993501   -2.4184287   -6.6893521  
C    4.5318911    0.0286585   -6.6733988  
C    4.8018745    1.2144439   -7.3285324  
O    4.2009890    2.3688328   -6.9170288  
C    5.6963651    1.2471433   -8.4247233  
O    5.8603173    2.5033135   -8.9710740  
C    6.3313216    0.1115116   -8.8826505  
H    7.2225106   -2.8101409   -9.1580835  
H    4.5453494   -2.7328153   -5.9133199  
H    4.5229130    3.0675363   -7.5013594  
H    6.4790602    2.4374497   -9.7048464  
H    7.0112088    0.1674675   -9.7247310  
H    5.9914346   -4.2733173   -7.2574655  
C    4.6190967   -2.0899187   -2.8279649  
C    3.4606683   -1.6280057   -2.2906061  
C    2.8761401   -0.7301694   -3.2586205  
C    3.7955634   -0.7067285   -4.4122676  
N    4.8319965   -1.5514033   -4.0878914  
C    3.5979916    0.0246978   -5.5381832  
C    2.3999527    0.8436571   -5.6190796  
O    2.1321349    1.5380348   -6.5908895  
C    1.4124499    0.8342975   -4.4088912  
O    0.4006155    1.5200500   -4.4654210  
C    1.7334695    0.0049281   -3.2500363  
H    3.0613134   -1.8865707   -1.3260992  
H    5.3352943   -2.7782579   -2.4094676  
H    5.6204864   -1.7480985   -4.6766544  
C    1.1319246    0.0015678   -0.8009268  
C    0.7969914    0.0034958   -2.1169401  
C   -0.6453340    0.0035696   -2.1842669  
C   -1.1266832    0.0015410   -0.7896025  
N    0.0000000    0.0000000    0.0000000  
C   -2.4346129    0.0013913   -0.4276292  
C   -3.4350111    0.0031335   -1.4820181  
O   -4.6384614    0.0030875   -1.2583914  
C   -2.9478961    0.0050442   -2.9661074  
O   -3.7809382    0.0062135   -3.8623773  
C   -1.5113825    0.0053055   -3.2312122  
H   -2.7664565    0.0000174    0.6013448  
H   -1.1823533    0.0068381   -4.2614848  
H    2.1104316    0.0009435   -0.3488059  
C    0.0000000    0.0000000    1.4700000  
C    1.0662921    0.0000102    2.3034270  
C    0.4961870   -0.0000064    3.6418889  
C   -0.9663858    0.0000850    3.4240247  
N   -1.2632773    0.0000084    2.1528658  
C   -1.8985362    0.0000517    4.5177257  
C   -1.3925775   -0.0004564    5.7720543  
O   -2.1456383   -0.0005410    6.8851312  
C    0.0786232   -0.0009323    6.0245000  
O    0.4683759   -0.0012588    7.1921102  
C    1.0143166   -0.0008442    4.8859032  
H    2.1107198   -0.0000632    2.0421868  
H   -2.9622183    0.0003270    4.3293377  
H   -1.5042274   -0.0009692    7.6184419  
H    2.0724152   -0.0013148    5.1109744  
