60

C    4.3443986   -3.6117892   -5.1088549  
C    5.3198503   -4.4174353   -5.6491285  
C    5.1949244   -4.3286276   -7.0672631  
C    4.1171362   -3.4464500   -7.3357059  
N    3.6218739   -3.0308845   -6.1246583  
C    3.7092032   -3.1237556   -8.6334924  
C    4.4021051   -3.7019139   -9.6793411  
O    4.0457942   -3.4210225  -10.9666452  
C    5.4800193   -4.5848698   -9.4317387  
O    6.0684981   -5.0787097  -10.5776709  
C    5.8828288   -4.9038785   -8.1516983  
H    6.0329415   -4.9986023   -5.0898965  
H    2.8884643   -2.4522253   -8.8447656  
H    4.6485266   -3.9212336  -11.5321264  
H    6.7864439   -5.6659333  -10.3220837  
H    6.7119179   -5.5835422   -7.9931236  
H    4.1059653   -3.4066892   -4.0792713  
C    2.5049800   -2.0931560   -5.9399570  
C    1.9571814   -1.6308517   -4.7865848  
C    0.8879542   -0.7344211   -5.1580690  
C    0.8574967   -0.7122313   -6.6329831  
N    1.8627384   -1.5562146   -7.0453796  
C   -0.0149283    0.0176861   -7.3731166  
C   -0.9887734    0.8362266   -6.6701573  
O   -1.8166679    1.5292766   -7.2468484  
C   -0.9745397    0.8281735   -5.1082553  
O   -1.7894805    1.5135873   -4.5054780  
C    0.0139741    0.0003876   -4.4216236  
H    2.2669048   -1.8882737   -3.7893794  
H   -0.0204614    0.0196995   -8.4542617  
H    2.0929214   -1.7534646   -8.0020176  
C    3.2798085    0.0005853   -1.4499648  
C    2.5571144    0.0005562   -2.5996554  
C    1.1637436    0.0001546   -2.2210360  
C    1.1336965   -0.0000201   -0.7459470  
N    2.4483513   -0.0001430   -0.3402717  
C    0.0000000    0.0000000    0.0000000  
C   -1.2757367   -0.0000188   -0.6964414  
O   -2.3524597   -0.0000640   -0.1142313  
C   -1.2676494   -0.0000875   -2.2584081  
O   -2.3355762   -0.0004102   -2.8557294  
C    0.0181562    0.0001757   -2.9516296  
H    2.9547357    0.0006072   -3.5989105  
H    4.3498550    0.0008609   -1.3200021  
H    2.7563627    0.0012824    0.6148063  
C    2.4951002    2.0940188    2.9809380  
C    1.9440701    1.6314916    1.8291961  
C    0.8759964    0.7350050    2.2038498  
C    0.8497377    0.7130254    3.6788474  
N    1.8560616    1.5571714    4.0882609  
C   -0.0205033   -0.0168748    4.4215661  
C   -0.9962600   -0.8356168    3.7214979  
O   -1.8224391   -1.5286685    4.3006425  
C   -0.9864710   -0.8277881    2.1595606  
O   -1.8030528   -1.5133726    1.5592035  
C    0.0000000    0.0000000    1.4700000  
H    2.2509283    1.8888011    0.8310761  
H   -0.0229599   -0.0187323    5.5027230  
H    3.3143982    2.7817323    3.1139444  
H    2.0889452    1.7545833    5.0442112  
