60

C    9.1545642   -0.0050513    0.7740117  
C    9.8924798   -0.0057099   -0.3869995  
C   11.2672106   -0.0069029   -0.0065868  
C   11.3067090   -0.0072055    1.4112868  
N   10.0069837   -0.0041087    1.8532379  
C   12.5032522   -0.0086227    2.1345238  
C   13.6813828   -0.0100619    1.4132866  
O   14.8783307   -0.0118322    2.0692791  
C   13.6625503   -0.0094113   -0.0017972  
O   14.9177308   -0.0106057   -0.5743937  
C   12.4825019   -0.0077402   -0.7159454  
H    9.4894952   -0.0042669   -1.3852951  
H    9.7212224   -0.0141183    2.8156417  
H   12.5401198   -0.0087165    3.2151914  
H   15.5631352   -0.0123119    1.3878774  
H   14.8156192   -0.0100899   -1.5310428  
H   12.4995245   -0.0070962   -1.7995453  
C    5.7656462   -0.0007213   -2.0564738  
C    7.0030823   -0.0022250   -1.4971663  
C    6.8178430   -0.0019791   -0.0652020  
C    5.3606050   -0.0002253    0.1655478  
N    4.7795901    0.0008674   -1.0815733  
C    4.7760820    0.0001002    1.3903079  
C    5.6398486   -0.0011490    2.5592563  
O    5.2097735   -0.0009116    3.7052650  
C    7.1861463   -0.0027618    2.3384243  
O    7.9234036   -0.0035159    3.3150061  
C    7.6977101   -0.0032521    0.9701573  
H    7.9388418   -0.0031927   -2.0272292  
H    3.7050038    0.0012664    1.5376178  
H    5.4911002   -0.0004233   -3.0988343  
C    3.3321168    0.0004716   -1.3379341  
C    2.6974177    0.0000118   -2.5332316  
C    1.2800432   -0.0002116   -2.2052842  
C    1.2395033    0.0000644   -0.7271298  
N    2.4394059    0.0005460   -0.2131041  
C    0.0000000    0.0000000    0.0000000  
C   -1.1468704    0.0000635   -0.7169542  
O   -2.3742206    0.0000074   -0.1695488  
C   -1.1388774    0.0001608   -2.2096352  
O   -2.2206238    0.0000906   -2.7970409  
C    0.1454514    0.0001818   -2.9324241  
H    3.1367978   -0.0000649   -3.5160956  
H   -2.9844350    0.0001027   -0.9290164  
H    0.1083567    0.0003684   -4.0135594  
C    0.0000000    0.0000000    1.4700000  
C    1.0541688    0.0001722    2.3260392  
C    0.5103138    0.0000454    3.6635956  
C   -0.9576371   -0.0002459    3.5155732  
N   -1.2018458    0.0001392    2.1615969  
C   -1.8348311   -0.0008317    4.5510609  
C   -1.2972847   -0.0009736    5.9014604  
O   -2.0050672   -0.0014265    6.9001319  
C    0.2542623   -0.0004184    6.0817573  
O    0.7184670   -0.0002256    7.2139121  
C    1.0974552   -0.0000873    4.8889129  
H    2.0940752    0.0005483    2.0517982  
H   -2.9081052   -0.0011668    4.4207061  
H    2.1707277    0.0000911    5.0223670  
H   -2.1128194   -0.0014912    1.7406791  
