60

C    0.1032711   -1.0819553   -9.6209365  
C    0.0001448   -0.7062854  -10.9402940  
C   -0.2580747    0.6964658  -10.9548266  
C   -0.3017748    1.1256429   -9.6035958  
N   -0.0804007    0.0206014   -8.8196987  
C   -0.5363380    2.4550136   -9.2395315  
C   -0.7300180    3.3678151  -10.2580890  
O   -0.9625607    4.6790477   -9.9587467  
C   -0.6904834    2.9588498  -11.6123415  
O   -0.9022490    3.9853996  -12.5093887  
C   -0.4593998    1.6475114  -11.9722278  
H    0.0977977   -1.3627554  -11.7879414  
H   -0.5710070    2.7884793   -8.2115232  
H   -1.0686808    5.1371063  -10.8026587  
H   -0.8593746    3.6245576  -13.4002085  
H   -0.4349760    1.3639941  -13.0179320  
H    0.2918891   -2.0494047   -9.1880123  
C    2.5365543   -2.0936800   -5.9975191  
C    2.0254115   -1.6312727   -4.8274817  
C    0.9452521   -0.7345686   -5.1651398  
C    0.8684333   -0.7123309   -6.6383662  
N    1.8600005   -1.5565503   -7.0821879  
C   -0.0266556    0.0178220   -7.3506841  
C   -0.9777108    0.8365827   -6.6174311  
O   -1.8231599    1.5298524   -7.1677885  
C   -0.9143686    0.8284832   -5.0567494  
O   -1.7097813    1.5140809   -4.4286293  
C    0.0950446    0.0004351   -4.4015596  
H    2.3662772   -1.8887984   -3.8405142  
H    3.3507072   -2.7814877   -6.1586571  
H    2.0599377   -1.7538306   -8.0455943  
C    3.3321173    0.0004713   -1.3379338  
C    2.6974181    0.0000116   -2.5332314  
C    1.2800438   -0.0002119   -2.2052841  
C    1.2395034    0.0000643   -0.7271299  
N    2.4394062    0.0005460   -0.2131038  
C    0.0000000    0.0000000    0.0000000  
C   -1.1468702    0.0000634   -0.7169543  
O   -2.3742203    0.0000074   -0.1695487  
C   -1.1388770    0.0001607   -2.2096355  
O   -2.2206234    0.0000905   -2.7970411  
C    0.1454522    0.0001815   -2.9324241  
H    3.1367984   -0.0000653   -3.5160950  
H   -2.9844346    0.0001026   -0.9290167  
H    4.3940038    0.0007618   -1.1498640  
C    2.3971438    2.0127888    3.1728260  
C    1.9431056    1.6308205    1.9564670  
C    0.8496017    0.7127664    2.2356185  
C    0.7794028    0.6545384    3.7115134  
N    1.6840587    1.4146091    4.2663826  
C   -0.1885723   -0.1578550    4.3957118  
C   -1.0476298   -0.8789867    3.6398520  
O   -2.0015663   -1.6796266    4.1448486  
C   -1.0022026   -0.8410666    2.1483229  
O   -1.8147390   -1.5232959    1.5241687  
C    0.0000000    0.0000000    1.4700000  
H    2.3054237    1.9346118    0.9892483  
H   -0.2170646   -0.1815267    5.4753125  
H   -2.4487139   -2.0549881    3.3649027  
H    3.2048689    2.6911772    3.3971983  
