64

C   -8.3858717    0.9879337   -2.4288756  
C   -7.5657081   -0.0885040   -2.6760230  
C   -8.4090013   -1.2296297   -2.8219302  
C   -9.7449822   -0.7842687   -2.6524144  
N   -9.6949293    0.5666534   -2.4134130  
C  -10.8445916   -1.6441674   -2.7312936  
C  -10.5909355   -2.9778989   -2.9862388  
O  -11.6280194   -3.8609613   -3.0738363  
C   -9.2648775   -3.4414732   -3.1579504  
O   -9.1771676   -4.7959491   -3.4050229  
C   -8.1795860   -2.5937754   -3.0799988  
H  -10.4913237    1.1595504   -2.2643802  
H  -11.8652369   -1.3109990   -2.6029021  
H  -11.2361228   -4.7253622   -3.2540938  
H   -8.2489346   -5.0267460   -3.5085637  
H   -7.1753217   -2.9778434   -3.2157301  
H   -8.1405527    2.0226269   -2.2609840  
C   -4.4706944    2.1246862   -0.3281859  
C   -5.6599778    1.6264299   -0.8075742  
C   -5.3396889    0.7516500   -1.8877480  
C   -3.9276472    0.7558729   -2.0220872  
N   -3.4313258    1.6012781   -1.0610605  
C   -3.2578655    0.0024282   -2.9908505  
C   -4.0275333   -0.7695740   -3.8392615  
O   -3.4247947   -1.5249624   -4.8031638  
C   -5.4377033   -0.7867288   -3.7211790  
O   -6.0624936   -1.6048448   -4.6396926  
C   -6.0991482   -0.0434787   -2.7658800  
H   -6.6381202    1.8650658   -0.4264137  
H   -2.4588260    1.7971332   -0.9065740  
H   -4.1336020   -1.9789343   -5.2772601  
H   -7.0119839   -1.5590485   -4.4914533  
H   -4.2816969    2.8131210    0.4776036  
C    0.0000000    0.0000000    0.0000000  
C    1.0521666   -0.0011982   -0.8862343  
C    0.4917215   -0.0011996   -2.1979132  
C   -0.9187429    0.0003215   -2.0478682  
N   -1.1833171   -0.0009323   -0.7007913  
C   -1.7951703    0.0010483   -3.1372089  
C   -1.2375841    0.0005313   -4.4010422  
O   -2.0474218    0.0015510   -5.4997578  
C    0.1673576   -0.0013585   -4.5711963  
O    0.5673520   -0.0020735   -5.8915554  
C    1.0325768   -0.0023493   -3.4969892  
H    2.0953056   -0.0030808   -0.6200564  
H   -2.0989778    0.0102529   -0.2891822  
H   -1.4634888    0.0006601   -6.2693595  
H    1.5290707   -0.0033271   -5.9180047  
H    2.1042146   -0.0039770   -3.6584456  
C    0.0000000    0.0000000    1.4700000  
C    1.0541688    0.0001722    2.3260392  
C    0.5103138    0.0000454    3.6635956  
C   -0.9576371   -0.0002459    3.5155732  
N   -1.2018458    0.0001392    2.1615969  
C   -1.8348311   -0.0008317    4.5510609  
C   -1.2972847   -0.0009736    5.9014604  
O   -2.0050672   -0.0014265    6.9001319  
C    0.2542623   -0.0004184    6.0817573  
O    0.7184670   -0.0002256    7.2139121  
C    1.0974552   -0.0000873    4.8889129  
H    2.0940752    0.0005483    2.0517982  
H   -2.9081052   -0.0011668    4.4207061  
H    2.1707277    0.0000911    5.0223670  
H   -2.1128194   -0.0014912    1.7406791  
