64

C    2.4249256   -2.9968022   -8.2776305  
C    1.9531374   -1.7678357   -7.8782235  
C    2.2826637   -0.8398937   -8.9101815  
C    2.9603801   -1.5665049   -9.9224370  
N    3.0314217   -2.8725969   -9.5056715  
C    3.4331776   -0.9688426  -11.0946366  
C    3.2176343    0.3869710  -11.2478964  
O    3.6582172    1.0209002  -12.3735217  
C    2.5437995    1.1291689  -10.2489438  
O    2.4074904    2.4688867  -10.5488090  
C    2.0773398    0.5402689   -9.0921657  
H    3.4488068   -3.6249857  -10.0230496  
H    3.9505728   -1.5170535  -11.8698587  
H    3.4086757    1.9494085  -12.2793681  
H    1.9422788    2.8970671   -9.8236589  
H    1.5649050    1.1345208   -8.3446670  
H    2.3780510   -3.9518604   -7.7830344  
C    1.5640652   -2.0395933   -5.3856080  
C    0.7230586   -1.5862625   -4.4205828  
C   -0.2043665   -0.6833979   -5.0605465  
C    0.1679202   -0.6476539   -6.4877519  
N    1.2472258   -1.4907312   -6.6189378  
C   -0.4698109    0.0915039   -7.4304340  
C   -1.5980274    0.9063962   -7.0113716  
O   -2.2374224    1.6070669   -7.7850212  
C   -2.0096058    0.8840406   -5.5047499  
O   -2.9576826    1.5662686   -5.1400907  
C   -1.2456329    0.0471727   -4.5828766  
H    0.7494881   -1.8536711   -3.3792335  
H   -0.1807617    0.1034049   -8.4721726  
H    2.3887876   -2.7282964   -5.2995223  
C    1.1243410    0.0099923   -0.7919003  
C    0.7474076    0.0234544   -2.1148543  
C   -0.6787381    0.0234490   -2.1414700  
C   -1.1201745    0.0098592   -0.7935546  
N    0.0000000    0.0000000    0.0000000  
C   -2.4730816    0.0063709   -0.4408240  
C   -3.3971958    0.0170982   -1.4675058  
O   -4.7313517    0.0146259   -1.1793471  
C   -2.9763648    0.0303504   -2.8186324  
O   -4.0166480    0.0395118   -3.7247624  
C   -1.6418562    0.0335260   -3.1673481  
H    1.4178717    0.0310972   -2.9571209  
H   -2.8160166   -0.0041111    0.5845966  
H   -5.1938818    0.0230867   -2.0274384  
H   -3.6464675    0.0482293   -4.6127343  
H    2.1062467    0.0052819   -0.3505407  
C    2.5311839    2.1237619    3.0120429  
C    1.9795631    1.6616747    1.8395852  
C    0.9223175    0.7739173    2.1983588  
C    0.8753926    0.7337535    3.6154372  
N    1.8668922    1.5631002    4.0777464  
C   -0.0496243   -0.0427881    4.3197917  
C   -0.9437528   -0.7922060    3.5801400  
O   -1.8685244   -1.5680278    4.2172520  
C   -0.9124520   -0.7656372    2.1655264  
O   -1.8671164   -1.5663939    1.5732860  
C    0.0000000    0.0000000    1.4700000  
H    2.3005065    1.9304404    0.8477417  
H    2.0679347    1.7444845    5.0445261  
H   -0.0904770   -0.0778569    5.3997470  
H   -2.3849669   -2.0011402    3.5251786  
H   -1.7775064   -1.4909735    0.6183591  
H    3.3468514    2.8078103    3.1724291  
