60

C    6.5872093   -3.2524185   -4.9011127  
C    6.0263266   -1.9993125   -4.8139147  
C    6.8184244   -1.1314198   -5.6225824  
C    7.8572203   -1.9178566   -6.1832472  
N    7.6884597   -3.2002450   -5.7232296  
C    8.8296552   -1.3886584   -7.0371264  
C    8.7518375   -0.0410697   -7.3306005  
O    9.6756513    0.5271534   -8.1592772  
C    7.7230460    0.7601777   -6.7806858  
O    7.7817628    2.0830523   -7.1678523  
C    6.7635387    0.2388384   -5.9380250  
H    8.2700898   -3.9833171   -5.9608965  
H    9.6240268   -1.9826826   -7.4676021  
H    9.4412664    1.4617123   -8.2294755  
H    7.0526253    2.5540351   -6.7529578  
H    5.9876748    0.8772960   -5.5319650  
H    6.2896855   -4.1789888   -4.4407814  
C    4.5294740   -2.1111779   -2.7873606  
C    4.8355748   -1.6481497   -4.0267077  
C    3.7722454   -0.7522108   -4.4158861  
C    2.8147156   -0.7310539   -3.2936206  
N    3.3317095   -1.5757414   -2.3385760  
C    1.6707636   -0.0012343   -3.2725974  
C    1.3618921    0.8179368   -4.4328097  
O    0.3558258    1.5108615   -4.5101839  
C    2.3616940    0.8105940   -5.6328715  
O    2.1121101    1.4960723   -6.6152604  
C    3.5619233   -0.0167228   -5.5388103  
H    4.2491866   -0.0160733   -6.3739109  
H    5.0780198   -2.7986805   -2.1642017  
H    2.9056662   -1.7713787   -1.4512991  
C    1.0965514    0.0001358   -0.8010306  
C    0.0000000    0.0000000    0.0000000  
C   -1.1546565    0.0001470   -0.8669508  
C   -0.6372019    0.0003520   -2.2486278  
N    0.7342867    0.0007338   -2.1395012  
C   -1.4147744    0.0001354   -3.3608712  
C   -2.8576052   -0.0001047   -3.1854454  
O   -3.6427785   -0.0002490   -4.1244896  
C   -3.4275841   -0.0000727   -1.7311660  
O   -4.6406832    0.0000333   -1.5710049  
C   -2.4891868   -0.0001090   -0.6116739  
H   -1.0150456    0.0001617   -4.3654239  
H   -2.8919122   -0.0002919    0.3920871  
H    2.1388270    0.0000663   -0.5261650  
C    0.8681109    0.7263879    2.2709268  
C    0.6127770    0.5096195    3.5869401  
C   -0.4920590   -0.4175482    3.6542670  
C   -0.8620974   -0.7254003    2.2596025  
N    0.0000000    0.0000000    1.4700000  
C   -1.8641242   -1.5660088    1.8976294  
C   -2.6293522   -2.2103885    2.9520183  
O   -3.5512764   -2.9839180    2.7283916  
C   -2.2549728   -1.8987399    4.4361073  
O   -2.8923672   -2.4351063    5.3323774  
C   -1.1543735   -0.9755647    4.7012123  
H    1.1382914    0.9492124    4.4159191  
H   -2.1192137   -1.7782617    0.8686553  
H   -0.9013378   -0.7652422    5.7314848  
H    1.6172880    1.3558399    1.8188057  
