62

C    1.1243414    0.0099912   -0.7919008  
C    0.7474077    0.0234538   -2.1148545  
C   -0.6787381    0.0234497   -2.1414700  
C   -1.1201746    0.0098604   -0.7935548  
N    0.0000000    0.0000000    0.0000000  
C   -2.4730815    0.0063734   -0.4408243  
C   -3.3971956    0.0171016   -1.4675064  
O   -4.7313519    0.0146310   -1.1793472  
C   -2.9763648    0.0303539   -2.8186327  
O   -4.0166472    0.0395161   -3.7247626  
C   -1.6418562    0.0335279   -3.1673481  
H    1.4178718    0.0310959   -2.9571207  
H   -2.8160167   -0.0041081    0.5845958  
H   -5.1938816    0.0230922   -2.0274387  
H   -3.6464673    0.0482334   -4.6127345  
H    2.1062466    0.0052798   -0.3505407  
C    1.5236698   -1.9535955   -5.5953572  
C    0.7582187   -1.5822012   -4.5428700  
C   -0.2204381   -0.6598275   -5.0978089  
C    0.1097185   -0.5877875   -6.5373887  
N    1.1311693   -1.3441370   -6.8349859  
C   -0.6387792    0.2324873   -7.4495222  
C   -1.6704573    0.9479597   -6.9464571  
O   -2.4537270    1.7547954   -7.6823555  
C   -2.0287020    0.8961218   -5.4983086  
O   -2.9800439    1.5738411   -5.1098947  
C   -1.2456326    0.0471742   -4.5828769  
H    0.8467098   -1.8955443   -3.5166819  
H   -3.0949060    2.1236233   -7.0483140  
H    2.3626182   -2.6311775   -5.6000643  
C    0.6289199   -2.9603345  -10.1302546  
C    0.8091852   -2.2981948  -11.2967253  
C    0.4813071   -0.9130142  -10.9962757  
C    0.1138750   -0.9192199   -9.5639555  
N    0.1985923   -2.1165435   -9.0508978  
C   -0.2801568    0.2783996   -8.8743670  
C   -0.3055811    1.4299425   -9.5833360  
O   -0.6536359    2.6212111   -9.0677996  
C    0.0600639    1.4687101  -11.0300425  
O    0.0142867    2.5520669  -11.6126776  
C    0.4608278    0.2268150  -11.7148855  
H    1.1256654   -2.7000978  -12.2440318  
H   -0.5748881    3.2457282   -9.8113915  
H    0.7182789    0.2971353  -12.7632197  
H    0.7688594   -4.0116281   -9.9348778  
C    2.5285572    2.1210227    2.9438989  
C    1.9331703    1.6216660    4.0790748  
C    0.8903039    0.7472258    3.6520102  
C    0.8972198    0.7527806    2.2336141  
N    1.9028376    1.5986179    1.8362361  
C    0.0000000    0.0000000    1.4700000  
C   -0.9207814   -0.7726952    2.1506477  
O   -1.8198395   -1.5274828    1.4542253  
C   -0.9436862   -0.7911793    3.5655508  
O   -1.9197945   -1.6098497    4.0950179  
C   -0.0590329   -0.0485852    4.3195194  
H    2.2150357    1.8593692    5.0905303  
H    2.1533708    1.7953814    0.8841339  
H   -2.3621246   -1.9821033    2.1118817  
H   -1.8668290   -1.5649508    5.0545920  
H   -0.1007624   -0.0827977    5.4019087  
H    3.3491200    2.8096064    2.8367138  
