62

C   -0.1617803   -1.1486253   -9.5539731  
C   -0.2957820   -0.0648084   -8.7174013  
C   -0.5570080    1.0686453   -9.5430183  
C   -0.5712026    0.6112151  -10.8855829  
N   -0.3259561   -0.7392033  -10.8565736  
C   -0.8007323    1.4611336  -11.9717437  
C   -1.0202272    2.7971098  -11.6975757  
O   -1.2498729    3.6707565  -12.7208143  
C   -1.0095870    3.2726629  -10.3647022  
O   -1.2439978    4.6278812  -10.2561770  
C   -0.7829484    2.4348152   -9.2927069  
H   -0.2864873   -1.3392825  -11.6605193  
H   -0.8126875    1.1187445  -12.9973299  
H   -1.3759093    4.5386702  -12.3157158  
H   -1.2199349    4.8670665   -9.3246117  
H   -0.7805656    2.8279538   -8.2827989  
H    0.0393364   -2.1810601   -9.3246500  
C    2.3338138   -2.1434179   -5.7798768  
C    1.7883284   -1.7365454   -6.9496968  
C    0.7199252   -0.8256235   -6.5685995  
C    0.7626764   -0.7985191   -5.0907561  
N    1.7067550   -1.5690024   -4.6227165  
C   -0.1496415   -0.0015615   -4.3176961  
C   -1.0628927    0.7351418   -4.9904334  
O   -1.9748537    1.5241931   -4.3973341  
C   -1.1310328    0.7292322   -6.4815680  
O   -1.9880866    1.4240533   -7.0273731  
C   -0.1842257   -0.0965645   -7.2519840  
H    2.0755614   -2.0195392   -7.9479394  
H   -2.4795473    1.9160027   -5.1328085  
H    3.1559295   -2.8255338   -5.6321686  
C    3.3003543    0.0005276   -1.4738987  
C    2.5232814    0.0003497   -2.6090747  
C    1.1623200   -0.0001320   -2.1820103  
C    1.1711883    0.0000582   -0.7636140  
N    2.4852300   -0.0014919   -0.3662360  
C    0.0000000    0.0000000    0.0000000  
C   -1.2020384    0.0000519   -0.6806477  
O   -2.3759249    0.0003493    0.0157743  
C   -1.2314656   -0.0005115   -2.0955510  
O   -2.5054392   -0.0008039   -2.6250180  
C   -0.0764516   -0.0007274   -2.8495195  
H    2.8919955   -0.0005620   -3.6205304  
H    2.8036267    0.0088183    0.5858662  
H   -3.0835638    0.0000347   -0.6418818  
H   -2.4360047   -0.0011529   -3.5845921  
H    4.3715549    0.0004895   -1.3667136  
C    0.8175213    0.6860729    2.3021913  
C    0.0000000    0.0000000    1.4700000  
C   -0.8887526   -0.7456559    2.3478473  
C   -0.4549825   -0.3816753    3.7138435  
N    0.5448156    0.4573574    3.6934124  
C   -1.0945674   -0.9182058    4.8835240  
C   -2.1210866   -1.7789155    4.6970523  
O   -2.8083856   -2.3554314    5.6976972  
C   -2.5824069   -2.1655116    3.3310774  
O   -3.5227682   -2.9541547    3.2362962  
C   -1.9100805   -1.6015804    2.1470656  
H   -0.7567140   -0.6349833    5.8697035  
H   -3.4728268   -2.9124471    5.2533954  
H   -2.2742832   -1.9066565    1.1752040  
H    1.6189533    1.3585343    2.0405121  
