60

C    0.6074433   -3.2753803  -10.3855412  
C    0.4389309   -2.4851846  -11.4989413  
C    0.2136799   -1.1551662  -11.0353536  
C    0.2565499   -1.1955143   -9.6181525  
N    0.4955360   -2.4981013   -9.2565309  
C    0.0745464   -0.0597310   -8.8233823  
C   -0.1546122    1.1386672   -9.4710750  
O   -0.3386845    2.2786678   -8.7433877  
C   -0.2013308    1.1991086  -10.8842206  
O   -0.4389792    2.4648803  -11.3788808  
C   -0.0221360    0.0789829  -11.6689088  
H    0.4729513   -2.8257091  -12.5196659  
H    0.5887819   -2.8309507   -8.3139292  
H   -0.4813822    2.9898373   -9.3814621  
H   -0.4550532    2.4178864  -12.3396812  
H   -0.0635363    0.1561415  -12.7490979  
H    0.7971835   -4.3321909  -10.3073890  
C    2.5632303   -2.1406389   -5.7671238  
C    2.0732866   -1.7328926   -6.9609732  
C    0.9882151   -0.8221521   -6.6298070  
C    0.9615396   -0.7960980   -5.1515671  
N    1.8825657   -1.5669911   -4.6402698  
C    0.0139741    0.0003876   -4.4216236  
C   -0.8666503    0.7376429   -5.1359697  
O   -1.8054109    1.5263496   -4.5857773  
C   -0.8647107    0.7327951   -6.6286630  
O   -1.6951607    1.4280737   -7.2136082  
C    0.1171805   -0.0925343   -7.3543666  
H    2.4070538   -2.0152032   -7.9448313  
H   -2.2750000    1.9187219   -5.3438559  
H    3.3774711   -2.8229274   -5.5814675  
C    3.2798085    0.0005853   -1.4499648  
C    2.5571144    0.0005562   -2.5996554  
C    1.1637436    0.0001546   -2.2210360  
C    1.1336965   -0.0000201   -0.7459470  
N    2.4483513   -0.0001430   -0.3402717  
C    0.0000000    0.0000000    0.0000000  
C   -1.2757367   -0.0000188   -0.6964414  
O   -2.3524597   -0.0000640   -0.1142313  
C   -1.2676494   -0.0000875   -2.2584081  
O   -2.3355762   -0.0004102   -2.8557294  
C    0.0181562    0.0001757   -2.9516296  
H    2.9547357    0.0006072   -3.5989105  
H    4.3498550    0.0008609   -1.3200021  
H    2.7563627    0.0012824    0.6148063  
C    0.8681109    0.7263879    2.2709268  
C    0.6127770    0.5096195    3.5869401  
C   -0.4920590   -0.4175482    3.6542670  
C   -0.8620974   -0.7254003    2.2596025  
N    0.0000000    0.0000000    1.4700000  
C   -1.8641242   -1.5660088    1.8976294  
C   -2.6293522   -2.2103885    2.9520183  
O   -3.5512764   -2.9839180    2.7283916  
C   -2.2549728   -1.8987399    4.4361073  
O   -2.8923672   -2.4351063    5.3323774  
C   -1.1543735   -0.9755647    4.7012123  
H    1.1382914    0.9492124    4.4159191  
H   -2.1192137   -1.7782617    0.8686553  
H   -0.9013378   -0.7652422    5.7314848  
H    1.6172880    1.3558399    1.8188057  
