64

C   -8.4065428    0.9853973   -1.8165103  
C   -9.7118041    0.5692539   -1.6916711  
C   -9.7282499   -0.8332983   -1.9508566  
C   -8.3926109   -1.2206484   -2.2300570  
N   -7.6161291   -0.0919663   -2.1419065  
C   -8.0344888   -2.5381896   -2.5310934  
C   -9.0430150   -3.4819503   -2.5503362  
O   -8.7488084   -4.7833560   -2.8380836  
C  -10.3817374   -3.1148956   -2.2748216  
O  -11.2703260   -4.1686084   -2.3335087  
C  -10.7358009   -1.8152492   -1.9780303  
H  -10.5492596    1.1993066   -1.4453086  
H   -7.0183776   -2.8398309   -2.7449450  
H   -9.5840483   -5.2672026   -2.7989276  
H  -12.1507956   -3.8353770   -2.1351795  
H  -11.7695930   -1.5640790   -1.7714687  
H   -7.9770623    1.9657382   -1.7005911  
C   -4.4234436    2.1223642   -0.0294722  
C   -3.3650553    1.6607020   -0.7772355  
C   -3.9025226    0.7730947   -1.7559501  
C   -5.3060603    0.7325803   -1.5550348  
N   -5.5885468    1.5615827   -0.4978812  
C   -6.1607755   -0.0439296   -2.3432494  
C   -5.5882321   -0.7929544   -3.3528697  
O   -6.3766930   -1.5687276   -4.1525694  
C   -4.1898435   -0.7660323   -3.5687436  
O   -3.7729988   -1.5664199   -4.6122782  
C   -3.3460097   -0.0004262   -2.7913647  
H   -2.3324969    1.9296472   -0.6341108  
H   -6.5054887    1.7426746   -0.1312688  
H   -5.7851989   -2.0015455   -4.7819092  
H   -2.8170936   -1.4907765   -4.6905560  
H   -4.4392678    2.8061852    0.8018504  
C    0.0000000    0.0000000    0.0000000  
C    1.0662919   -0.0000103   -0.8334272  
C    0.4961868    0.0000066   -2.1718889  
C   -0.9663860   -0.0000849   -1.9540248  
N   -1.2632775   -0.0000084   -0.6828659  
C   -1.8985364   -0.0000515   -3.0477258  
C   -1.3925778    0.0004567   -4.3020543  
O   -2.1456385    0.0005412   -5.4151314  
C    0.0786229    0.0009326   -4.5544999  
O    0.4683756    0.0012594   -5.7221104  
C    1.0143162    0.0008443   -3.4159034  
H    2.1107195    0.0000631   -0.5721869  
H   -1.5042277    0.0009692   -6.1484420  
H    2.0724151    0.0013151   -3.6409746  
C    3.3041272   -0.0001177    3.0120429  
C    2.5845372    0.0004780    1.8395852  
C    1.2040006    0.0000008    2.1983588  
C    1.1422373   -0.0006037    3.6154372  
N    2.4348639   -0.0026109    4.0777464  
C   -0.0655181   -0.0008797    4.3197917  
C   -1.2321768   -0.0002324    3.5801400  
O   -2.4392816   -0.0001146    4.2172520  
C   -1.1911209    0.0000007    2.1655264  
O   -2.4371527    0.0002320    1.5732860  
C    0.0000000    0.0000000    1.4700000  
H    3.0031534    0.0000661    0.8477417  
H    2.7054629    0.0071099    5.0445261  
H   -0.1193549   -0.0014844    5.3997470  
H   -3.1132988    0.0000648    3.5251786  
H   -2.3200282    0.0004071    0.6183591  
H    4.3686625   -0.0004071    3.1724291  
