64

C    5.3891869   -3.6512148    0.2382962  
C    4.2811792   -3.0517334   -0.3143417  
C    3.1481410   -3.5159857    0.4172971  
C    3.6307212   -4.4037297    1.4127632  
N    4.9952349   -4.4646249    1.2748847  
C    2.7881468   -5.0512820    2.3213524  
C    1.4337677   -4.7978131    2.2234313  
O    0.5662329   -5.4033601    3.0858173  
C    0.9330471   -3.9155077    1.2367029  
O   -0.4382499   -3.7674440    1.2677549  
C    1.7636576   -3.2765437    0.3398544  
H    5.6130473   -5.0076947    1.8505272  
H    3.1496842   -5.7291281    3.0822848  
H   -0.3170378   -5.0933248    2.8471245  
H   -0.6940340   -3.1561629    0.5702495  
H    1.3511146   -2.6062610   -0.4051335  
H    6.4291780   -3.5640375   -0.0258585  
C    4.2912332   -2.1143348   -1.4466323  
C    5.3462909   -1.6515572   -2.1654961  
C    4.8141506   -0.7557113   -3.1650566  
C    3.3521070   -0.7343355   -2.9681719  
N    3.0997470   -1.5788206   -1.9117396  
C    2.4861704   -0.0045255   -3.7159919  
C    3.0304430    0.8144036   -4.7863460  
O    2.3328579    1.5073002   -5.5154345  
C    4.5758847    0.8068266   -5.0129670  
O    5.0456349    1.4921002   -5.9112961  
C    5.4069283   -0.0204564   -4.1418632  
H    6.3794031   -1.9085775   -2.0130697  
H    6.4760574   -0.0199698   -4.3052245  
H    2.1903289   -1.7742811   -1.5351744  
C    0.0000000    0.0000000    0.0000000  
C    1.0521669   -0.0011848   -0.8862341  
C    0.4917221   -0.0011931   -2.1979130  
C   -0.9187427    0.0003100   -2.0478683  
N   -1.1833170   -0.0009472   -0.7007915  
C   -1.7951698    0.0010259   -3.1372090  
C   -1.2375835    0.0005161   -4.4010425  
O   -2.0474208    0.0015256   -5.4997580  
C    0.1673584   -0.0013557   -4.5711962  
O    0.5673529   -0.0020659   -5.8915551  
C    1.0325773   -0.0023359   -3.4969890  
H    2.0953059   -0.0030542   -0.6200560  
H   -2.0989777    0.0102265   -0.2891825  
H   -2.8710930    0.0020274   -3.0295514  
H   -1.4634881    0.0006427   -6.2693593  
H    1.5290715   -0.0033076   -5.9180042  
C    1.1188642   -0.0008217    2.2703808  
C    0.0000000    0.0000000    1.4700000  
C   -1.1323862   -0.0008904    2.3373528  
C   -0.6382662   -0.0019682    3.6669281  
N    0.7324016   -0.0038477    3.5902241  
C   -1.4770914   -0.0027325    4.7854808  
C   -2.8395474   -0.0020958    4.5576857  
O   -3.7039201   -0.0024443    5.6140350  
C   -3.3517868   -0.0013946    3.2384331  
O   -4.7300496   -0.0012389    3.1773122  
C   -2.5248543   -0.0009135    2.1344818  
H    1.3576314    0.0056174    4.3757045  
H   -1.1067570   -0.0036993    5.8013813  
H   -4.5940033   -0.0021850    5.2385129  
H   -4.9934601   -0.0007286    2.2519915  
H   -2.9462578   -0.0005617    1.1360343  
H    2.1619896   -0.0009344    2.0042067  
