62

C    4.6952732   -4.2359557   -8.9380496  
C    5.5312227   -4.9002983   -8.0706956  
C    5.1459031   -4.5231943   -6.7501195  
C    4.0599890   -3.6193186   -6.8755211  
N    3.8132544   -3.4654112   -8.2171810  
C    3.4248461   -3.0424250   -5.7716299  
C    3.8942860   -3.3844506   -4.5183051  
O    3.3102524   -2.8504798   -3.4061925  
C    4.9768793   -4.2842361   -4.3727228  
O    5.3276720   -4.5240540   -3.0601775  
C    5.6041157   -4.8535275   -5.4613036  
H    6.3222302   -5.5730081   -8.3548817  
H    3.0912493   -2.8904391   -8.6122726  
H    3.7836060   -3.2154627   -2.6472535  
H    6.0657039   -5.1411587   -3.0504893  
H    6.4310540   -5.5393034   -5.3186159  
H    4.6593357   -4.2496841  -10.0139117  
C    2.2991554   -2.1048091   -5.8924444  
C    1.6888952   -1.6397484   -7.0128804  
C    0.6412935   -0.7448174   -6.5810651  
C    0.6916333   -0.7264666   -5.1066432  
N    1.7177150   -1.5716515   -4.7520893  
C   -0.1387079    0.0017019   -4.3179684  
C   -1.1495778    0.8219302   -4.9644225  
O   -1.9445178    1.5135264   -4.3414732  
C   -1.2212029    0.8175541   -6.5247612  
O   -2.0683186    1.5039449   -7.0802097  
C   -0.2716619   -0.0081802   -7.2666415  
H    1.9434318   -1.8946819   -8.0262082  
H   -0.3277653   -0.0054782   -8.3467193  
H    2.0018702   -1.7690376   -3.8101009  
C    3.3041273    0.0001178   -1.5420428  
C    2.5845373   -0.0004780   -0.3695851  
C    1.2040007   -0.0000007   -0.7283589  
C    1.1422374    0.0006038   -2.1454372  
N    2.4348641    0.0026111   -2.6077464  
C   -0.0655179    0.0008799   -2.8497918  
C   -1.2321766    0.0002325   -2.1101402  
O   -2.4392814    0.0001148   -2.7472522  
C   -1.1911209   -0.0000007   -0.6955266  
O   -2.4371528   -0.0002320   -0.1032862  
C    0.0000000    0.0000000    0.0000000  
H    3.0031533   -0.0000660    0.6222584  
H    2.7054631   -0.0071097   -3.5745261  
H   -3.1132988   -0.0000648   -2.0551787  
H   -2.3200282   -0.0004072    0.8516409  
H    4.3686625    0.0004073   -1.7024290  
C    0.8400945    0.7047457    2.2710304  
C    0.0000000    0.0000000    1.4700000  
C   -0.8844236   -0.7423113    2.3369512  
C   -0.4878984   -0.4098547    3.7186280  
N    0.5629682    0.4714286    3.6095011  
C   -1.0836927   -0.9095027    4.8308716  
C   -2.1891196   -1.8367527    4.6554461  
O   -2.7906899   -2.3413415    5.5944904  
C   -2.6257283   -2.2031529    3.2011665  
O   -3.5549479   -2.9829990    3.0410059  
C   -1.9068976   -1.5999348    2.0816745  
H   -0.7774656   -0.6525820    5.8354244  
H   -2.2155208   -1.8586617    1.0779135  
H    1.6384792    1.3747609    1.9961646  
H    1.0518368    0.8833920    4.3830260  
