62

C    6.4831323   -3.6201065   -2.3842132  
C    5.2950770   -3.0249223   -2.0281963  
C    4.9636221   -3.5031885   -0.7258909  
C    5.9952659   -4.3946599   -0.3348459  
N    6.9007751   -4.4441914   -1.3654849  
C    5.9971114   -5.0553372    0.8973436  
C    4.9383838   -4.8114057    1.7504386  
O    4.8904706   -5.4299248    2.9662317  
C    3.8994063   -3.9255754    1.3780860  
O    2.9161524   -3.7881340    2.3360339  
C    3.8967963   -3.2736638    0.1625489  
H    7.7454525   -4.9868505   -1.3703101  
H    6.7803176   -5.7360886    1.2012670  
H    4.0809042   -5.1248122    3.3960830  
H    2.2536165   -3.1736169    2.0058536  
H    3.0870939   -2.6009807   -0.0950511  
H    7.0649159   -3.5230884   -3.2848098  
C    4.5310512   -2.0790477   -2.8543233  
C    4.8140926   -1.6029419   -4.0941966  
C    3.7433598   -0.7037137   -4.4544110  
C    2.8066150   -0.6948781   -3.3145769  
N    3.3414841   -1.5491125   -2.3780469  
C    1.6628945    0.0339172   -3.2649299  
C    1.3323524    0.8649110   -4.4106726  
O    0.3247026    1.5579296   -4.4623203  
C    2.3099249    0.8707268   -5.6289189  
O    2.0419932    1.5662246   -6.5993602  
C    3.5120765    0.0432796   -5.5655573  
H    5.6746396   -1.8532639   -4.6886805  
H    4.1838692    0.0530800   -6.4130965  
H    2.9319197   -1.7542582   -1.4851755  
C    1.1243410    0.0100105   -0.7919003  
C    0.7474072    0.0234665   -2.1148542  
C   -0.6787384    0.0234379   -2.1414698  
C   -1.1201748    0.0098411   -0.7935547  
N    0.0000000    0.0000000    0.0000000  
C   -2.4730818    0.0063307   -0.4408240  
C   -3.3971962    0.0170429   -1.4675058  
O   -4.7313520    0.0145490   -1.1793468  
C   -2.9763654    0.0303020   -2.8186325  
O   -4.0166484    0.0394464   -3.7247625  
C   -1.6418567    0.0334992   -3.1673480  
H   -2.8160166   -0.0041569    0.5845966  
H   -5.1938823    0.0230023   -2.0274386  
H   -3.6464680    0.0481700   -4.6127343  
H   -1.3497475    0.0435647   -4.2109234  
H    2.1062466    0.0053162   -0.3505405  
C    0.8681109    0.7263879    2.2709268  
C    0.6127770    0.5096195    3.5869401  
C   -0.4920590   -0.4175482    3.6542670  
C   -0.8620974   -0.7254003    2.2596025  
N    0.0000000    0.0000000    1.4700000  
C   -1.8641242   -1.5660088    1.8976294  
C   -2.6293522   -2.2103885    2.9520183  
O   -3.5512764   -2.9839180    2.7283916  
C   -2.2549728   -1.8987399    4.4361073  
O   -2.8923672   -2.4351063    5.3323774  
C   -1.1543735   -0.9755647    4.7012123  
H    1.1382914    0.9492124    4.4159191  
H   -2.1192137   -1.7782617    0.8686553  
H   -0.9013378   -0.7652422    5.7314848  
H    1.6172880    1.3558399    1.8188057  
