62

C    7.8023614    0.0172961   -6.3912084  
C    7.4253370    0.0272360   -7.7141670  
C    5.9992315    0.0165148   -7.7407776  
C    5.5579096    0.0003194   -6.3928535  
N    6.6781265   -0.0007178   -5.5992983  
C    4.2050668   -0.0131361   -6.0401158  
C    3.2808979   -0.0098818   -7.0667994  
O    1.9467986   -0.0222143   -6.7786339  
C    3.7016175    0.0058200   -8.4179345  
O    2.6612952    0.0066997   -9.3240650  
C    5.0360647    0.0188266   -8.7666575  
H    8.0957247    0.0394682   -8.5564411  
H    3.8622202   -0.0256537   -5.0146881  
H    1.4842174   -0.0176692   -7.6267282  
H    3.0313995    0.0177293  -10.2120420  
H    5.3280898    0.0305321   -9.8102385  
H    8.7842741    0.0201854   -5.9498504  
C    6.6781264    0.0000526   -4.1292983  
C    7.7444181    0.0009683   -3.2958718  
C    7.1743131    0.0014026   -1.9574099  
C    5.7117407    0.0007371   -2.1752742  
N    5.4148494   -0.0001362   -3.4464326  
C    4.7795901    0.0008674   -1.0815733  
C    5.2855489    0.0012391    0.1727555  
O    4.5324883    0.0014069    1.2858327  
C    6.7567496    0.0015421    0.4252013  
O    7.1465024    0.0019988    1.5928113  
C    7.6924429    0.0014446   -0.7133951  
H    8.7888465    0.0012169   -3.5571121  
H    5.1738991    0.0016450    2.0191435  
H    8.7505410    0.0015569   -0.4883243  
C    3.3321168    0.0004716   -1.3379341  
C    2.6974177    0.0000118   -2.5332316  
C    1.2800432   -0.0002116   -2.2052842  
C    1.2395033    0.0000644   -0.7271298  
N    2.4394059    0.0005460   -0.2131041  
C    0.0000000    0.0000000    0.0000000  
C   -1.1468704    0.0000635   -0.7169542  
O   -2.3742206    0.0000074   -0.1695488  
C   -1.1388774    0.0001608   -2.2096352  
O   -2.2206238    0.0000906   -2.7970409  
C    0.1454514    0.0001818   -2.9324241  
H    3.1367978   -0.0000649   -3.5160956  
H   -2.9844350    0.0001027   -0.9290164  
H    0.1083567    0.0003684   -4.0135594  
C    0.8676693    0.7151171    2.2619005  
C    0.5875920    0.4624972    3.5848544  
C   -0.5048400   -0.4542819    3.6114698  
C   -0.8517165   -0.7276451    2.2635546  
N    0.0000000    0.0000000    1.4700000  
C   -1.8902865   -1.5946756    1.9108239  
C   -2.5912627   -2.1969500    2.9375057  
O   -3.6148162   -3.0527051    2.6493466  
C   -2.2603868   -1.9365747    4.2886322  
O   -3.0513550   -2.6123276    5.1947621  
C   -1.2361111   -1.0811317    4.6373480  
H    1.1060808    0.8876438    4.4271209  
H   -2.1597133   -1.8070987    0.8854031  
H   -3.9636755   -3.3565188    3.4974381  
H   -2.7621927   -2.3810384    6.0827341  
H   -1.0058879   -0.9010589    5.6809233  
H    1.6167816    1.3499334    1.8205408  
