64

C    9.0443944    0.0017441   -0.7487539  
C   10.0774915    0.0041380   -1.6571439  
C   11.2910341    0.0043684   -0.9075367  
C   10.9325314    0.0017483    0.4648316  
N    9.5610706    0.0021557    0.5257631  
C   11.8791435    0.0009127    1.4937696  
C   13.2119426    0.0024488    1.1306955  
O   14.1777450    0.0013733    2.0951838  
C   13.5895058    0.0054431   -0.2332154  
O   14.9547219    0.0070903   -0.4320349  
C   12.6561897    0.0065422   -1.2488157  
H    9.9696908    0.0066504   -2.7282957  
H    9.0176449   -0.0098956    1.3698748  
H   11.6123948   -0.0009374    2.5416457  
H   15.0257526    0.0030625    1.6324254  
H   15.1241549    0.0090567   -1.3790790  
H   12.9754978    0.0090281   -2.2844383  
C    6.5582216    0.0029726   -4.4647472  
C    7.6103885    0.0023857   -3.5785128  
C    7.0499442    0.0016136   -2.2668344  
C    5.6394785    0.0014820   -2.4168798  
N    5.3749058    0.0042713   -3.7639548  
C    4.7630507    0.0004755   -1.3275395  
C    5.3206371   -0.0007212   -0.0637066  
O    4.5107985   -0.0020884    1.0350080  
C    6.7255800   -0.0002357    0.1064481  
O    7.1255747   -0.0011497    1.4268069  
C    7.5907998    0.0010304   -0.9677581  
H    8.6535288    0.0036052   -3.8446898  
H    4.4592357   -0.0057080   -4.1755736  
H    5.0947317   -0.0024568    1.8046096  
H    8.0872936   -0.0007700    1.4532570  
H    6.5582219    0.0040131   -5.5412957  
C    3.3003548    0.0005276   -1.4738982  
C    2.5232817    0.0003497   -2.6090743  
C    1.1623204   -0.0001319   -2.1820101  
C    1.1711886    0.0000583   -0.7636140  
N    2.4852302   -0.0014919   -0.3662356  
C    0.0000000    0.0000000    0.0000000  
C   -1.2020379    0.0000520   -0.6806479  
O   -2.3759249    0.0003495    0.0157742  
C   -1.2314652   -0.0005112   -2.0955511  
O   -2.5054384   -0.0008036   -2.6250184  
C   -0.0764510   -0.0007271   -2.8495195  
H    2.8919962   -0.0005619   -3.6205297  
H    2.8036267    0.0088181    0.5858667  
H   -3.0835636    0.0000348   -0.6418823  
H   -2.4360038   -0.0011526   -3.5845925  
H   -0.1304090   -0.0013420   -3.9319089  
C    2.4951002    2.0940188    2.9809380  
C    1.9440701    1.6314916    1.8291961  
C    0.8759964    0.7350050    2.2038498  
C    0.8497377    0.7130254    3.6788474  
N    1.8560616    1.5571714    4.0882609  
C   -0.0205033   -0.0168748    4.4215661  
C   -0.9962600   -0.8356168    3.7214979  
O   -1.8224391   -1.5286685    4.3006425  
C   -0.9864710   -0.8277881    2.1595606  
O   -1.8030528   -1.5133726    1.5592035  
C    0.0000000    0.0000000    1.4700000  
H    2.2509283    1.8888011    0.8310761  
H   -0.0229599   -0.0187323    5.5027230  
H    3.3143982    2.7817323    3.1139444  
H    2.0889452    1.7545833    5.0442112  
