62

C    6.8494036   -0.0718383   -4.2994541  
C    7.8764841   -0.7295899   -3.6631079  
C    9.0852388   -0.3428289   -4.3142044  
C    8.7301763    0.5603136   -5.3487049  
N    7.3650792    0.7012638   -5.3132293  
C    9.6736484    1.1457965   -6.1983291  
C   10.9997385    0.8137444   -5.9998236  
O   11.9622613    1.3569159   -6.8007767  
C   11.3737462   -0.0857205   -4.9732285  
O   12.7322757   -0.3156305   -4.9033505  
C   10.4434986   -0.6639010   -4.1348536  
H    7.7677436   -1.4059097   -2.8325899  
H    6.8262644    1.2888949   -5.9234332  
H    9.4094799    1.8347562   -6.9887417  
H   12.8056736    0.9974481   -6.4963022  
H   12.8996788   -0.9331691   -4.1848618  
H   10.7599356   -1.3494676   -3.3574577  
C    4.1863608   -2.1478772   -1.3903806  
C    5.2964345   -1.7420570   -2.0496411  
C    4.8117016   -0.8307214   -3.0748246  
C    3.3454836   -0.8022507   -2.8851477  
N    2.9730514   -1.5723544   -1.8991330  
C    2.4861704   -0.0045255   -3.7159919  
C    3.0653211    0.7316065   -4.6917114  
O    2.3851028    1.5212588   -5.5401180  
C    4.5422564    0.7243200   -4.9079755  
O    5.0006622    1.4186846   -5.8151375  
C    5.4023458   -0.1022437   -4.0425490  
H    6.3180522   -2.0259915   -1.8632140  
H    3.0670367    1.9124161   -6.1155441  
H    4.1206068   -2.8299028   -0.5576195  
C    0.0000000    0.0000000    0.0000000  
C    1.0521669   -0.0011848   -0.8862341  
C    0.4917221   -0.0011931   -2.1979130  
C   -0.9187427    0.0003100   -2.0478683  
N   -1.1833170   -0.0009472   -0.7007915  
C   -1.7951698    0.0010259   -3.1372090  
C   -1.2375835    0.0005161   -4.4010425  
O   -2.0474208    0.0015256   -5.4997580  
C    0.1673584   -0.0013557   -4.5711962  
O    0.5673529   -0.0020659   -5.8915551  
C    1.0325773   -0.0023359   -3.4969890  
H    2.0953059   -0.0030542   -0.6200560  
H   -2.0989777    0.0102265   -0.2891825  
H   -2.8710930    0.0020274   -3.0295514  
H   -1.4634881    0.0006427   -6.2693593  
H    1.5290715   -0.0033076   -5.9180042  
C    1.1319247   -0.0015655    2.2709268  
C    0.7969915   -0.0034943    3.5869401  
C   -0.6453339   -0.0035710    3.6542670  
C   -1.1266833   -0.0015433    2.2596025  
N    0.0000000    0.0000000    1.4700000  
C   -2.4346130   -0.0013964    1.8976294  
C   -3.4350110   -0.0031408    2.9520183  
O   -4.6384611   -0.0030974    2.7283916  
C   -2.9478959   -0.0050506    4.4361073  
O   -3.7809380   -0.0062218    5.3323774  
C   -1.5113823   -0.0053090    4.7012123  
H    1.4821238   -0.0045407    4.4159191  
H   -2.7664565   -0.0000232    0.8686553  
H   -1.1823530   -0.0068408    5.7314848  
H    2.1104316   -0.0009391    1.8188057  
