66

C    3.3041270    0.0001178   -1.5420432  
C    2.5845372   -0.0004779   -0.3695853  
C    1.2040007   -0.0000006   -0.7283591  
C    1.1422373    0.0006039   -2.1454374  
N    2.4348636    0.0026110   -2.6077466  
C   -0.0655186    0.0008800   -2.8497915  
C   -1.2321770    0.0002326   -2.1101397  
O   -2.4392818    0.0001149   -2.7472515  
C   -1.1911209   -0.0000006   -0.6955262  
O   -2.4371522   -0.0002319   -0.1032858  
C    0.0000000    0.0000000    0.0000000  
H    3.0031535   -0.0000661    0.6222580  
H    2.7054625   -0.0071097   -3.5745263  
H   -3.1132993   -0.0000646   -2.0551781  
H   -2.3200286   -0.0004070    0.8516413  
C    5.7158603    0.0004166   -0.7739107  
C    4.7577214    0.0005130   -1.7610465  
C    5.4466892    0.0027835   -3.0100132  
C    6.8350415    0.0037182   -2.7194894  
N    6.9633980    0.0041888   -1.3526897  
C    7.8161414    0.0056329   -3.7155959  
C    7.3879064    0.0063148   -5.0289095  
O    8.3036920    0.0078228   -6.0410116  
C    6.0070628    0.0057777   -5.3388884  
O    5.7412875    0.0070016   -6.6926630  
C    5.0386300    0.0041623   -4.3567167  
H    7.8332611   -0.0056984   -0.8514698  
H    8.8758770    0.0064977   -3.5007443  
H    7.7997542    0.0083640   -6.8652154  
H    4.7870502    0.0065093   -6.8152781  
H    3.9885434    0.0039690   -4.6246664  
H    5.6080637   -0.0005987    0.2972281  
C    2.3136480   -2.1180445   -5.9171364  
C    1.6624049   -1.6181593   -7.0209774  
C    0.6419633   -0.7441445   -6.5420233  
C    0.7194921   -0.7504912   -5.1257342  
N    1.7437751   -1.5963709   -4.7793973  
C   -0.1387086    0.0017020   -4.3179679  
C   -1.0923531    0.7746131   -4.9514883  
O   -1.9557355    1.5288506   -4.2107381  
C   -1.1856790    0.7938844   -6.3634855  
O   -2.1870617    1.6126764   -6.8432319  
C   -0.3395505    0.0518701   -7.1609864  
H    1.8935970   -1.8552466   -8.0453470  
H    2.0414317   -1.7936220   -3.8410615  
H   -2.5301607    1.9837420   -4.8403213  
H   -2.1819315    1.5683236   -7.8042785  
H   -0.4351246    0.0866804   -8.2399365  
H    3.1386332   -2.8065414   -5.8513301  
C    0.8576279    0.7185626    2.2703808  
C    0.0000000    0.0000000    1.4700000  
C   -0.8668858   -0.7285659    2.3373528  
C   -0.4876752   -0.4117774    3.6669281  
N    0.5635254    0.4678311    3.5902241  
C   -1.1297612   -0.9515493    4.7854808  
C   -2.1738724   -1.8268314    4.5576857  
O   -2.8357962   -2.3827064    5.6140350  
C   -2.5667212   -2.1555554    3.2384331  
O   -3.6226318   -3.0413663    3.1773122  
C   -1.9335634   -1.6236449    2.1344818  
H    1.0363952    0.8769718    4.3757045  
H   -0.8454472   -0.7142436    5.8013813  
H   -3.5178062   -2.9546422    5.2385129  
H   -3.8247440   -3.2102924    2.2519915  
H   -2.2566033   -1.8942483    1.1360343  
H    1.6567807    1.3889844    2.0042067  
