62

C    0.9314129   -0.6141583   -9.6157891  
C    0.4092627    0.6297421   -9.3464591  
C    0.9280887    1.5213020  -10.3316196  
C    1.7678899    0.7581263  -11.1826316  
N    1.7490129   -0.5337838  -10.7187036  
C    2.4491383    1.3142195  -12.2695779  
C    2.2792814    2.6652862  -12.5018394  
O    2.9209060    3.2593317  -13.5499056  
C    1.4458482    3.4435788  -11.6637086  
O    1.3799797    4.7733002  -12.0254356  
C    0.7736877    2.8957004  -10.5910688  
H    2.2439351   -1.3050074  -11.1288832  
H    3.0907794    0.7380096  -12.9218649  
H    2.6687015    4.1917028  -13.5314245  
H    0.7973190    5.2276234  -11.4092367  
H    0.1423849    3.5169816   -9.9666135  
H    0.7864446   -1.5520555   -9.1075662  
C    0.2810593   -0.7180972   -5.1362604  
C   -0.8287665    0.0000939   -4.7555305  
C   -1.2664169    0.7286056   -5.9011017  
C   -0.3775039    0.4121683   -6.9601705  
N    0.5511371   -0.4671876   -6.4611948  
C   -0.5073505    0.9519912   -8.2433382  
C   -1.5537890    1.8269641   -8.4614345  
O   -1.7271373    2.3828731   -9.6959103  
C   -2.4509438    2.1553354   -7.4173547  
O   -3.4401352    3.0408658   -7.7924276  
C   -2.3232913    1.6233741   -6.1511600  
H    1.3035289   -0.8760574   -6.9853261  
H   -2.5031989    2.9545631   -9.6313837  
H   -4.0023410    3.2095630   -7.0301484  
H   -3.0257716    1.8937043   -5.3714667  
H    0.9022076   -1.3883664   -4.5671622  
C    1.0672569   -0.0000698   -0.8321910  
C    0.0000000    0.0000000    0.0000000  
C   -1.1601223   -0.0000736   -0.8778472  
C   -0.5938729   -0.0000768   -2.2438435  
N    0.7113367   -0.0001553   -2.2234123  
C   -1.4286985   -0.0001877   -3.4135239  
C   -2.7683113   -0.0006798   -3.2270524  
O   -3.6653902   -0.0008302   -4.2276970  
C   -3.3702024   -0.0010610   -1.8610774  
O   -4.5974910   -0.0013779   -1.7662963  
C   -2.4926825   -0.0008943   -0.6770658  
H   -4.5324245   -0.0012258   -3.7833954  
H   -2.9677772   -0.0012974    0.2947961  
H    2.1134391   -0.0000547   -0.5705119  
C    2.5128556    2.1077716    2.9199648  
C    1.9592212    1.6432552    4.0696553  
C    0.8915788    0.7479214    3.6910360  
C    0.8684491    0.7287414    2.2159470  
N    1.8754542    1.5738793    1.8102719  
C    0.0000000    0.0000000    1.4700000  
C   -0.9772830   -0.8200135    2.1664417  
O   -1.8021297   -1.5120829    1.5842315  
C   -0.9711318   -0.8147624    3.7284083  
O   -1.7894187   -1.5009653    4.3257297  
C    0.0140216    0.0115358    4.4216297  
H    2.2638494    1.8988021    5.0689105  
H    0.0117648    0.0094386    5.5031631  
H    3.3327358    2.7953732    2.7900019  
H    2.1123206    1.7707734    0.8551938  
