62

C    5.9977213   -1.9530282   -4.8696488  
C    7.0601817   -2.7851577   -4.6028041  
C    7.9211765   -2.7385391   -5.7390763  
C    7.3274020   -1.8536220   -6.6751743  
N    6.1599271   -1.3959011   -6.1165036  
C    7.9045621   -1.5665499   -7.9158446  
C    9.1031182   -2.1838103   -8.2168913  
O    9.7103249   -1.9387451   -9.4144958  
C    9.7109424   -3.0701459   -7.2961433  
O   10.9016157   -3.6050924   -7.7427679  
C    9.1419894   -3.3540230   -6.0721213  
H    7.1971743   -3.3564408   -3.7006612  
H    5.5281136   -0.7438293   -6.5449837  
H    7.4569893   -0.8931428   -8.6337615  
H   10.5221044   -2.4624190   -9.4212574  
H   11.2456738   -4.1917885   -7.0623156  
H    9.6308640   -4.0372636   -5.3875310  
C    4.5568121   -2.1244626   -2.7957928  
C    4.8215153   -1.6265710   -4.0505851  
C    3.7464019   -0.7514634   -4.3866171  
C    2.8481254   -0.7551197   -3.2888868  
N    3.3693347   -1.6005174   -2.3411202  
C    1.6707636   -0.0012343   -3.2725974  
C    1.3953391    0.7706343   -4.3845946  
O    0.2593677    1.5264369   -4.4212711  
C    2.2790783    0.7872261   -5.4898314  
O    1.8647385    1.6052773   -6.5205879  
C    3.4406177    0.0435412   -5.5067009  
H    2.9557220   -1.7960291   -1.4474307  
H    0.2607531    1.9802266   -5.2741122  
H    2.5168292    1.5590887   -7.2264549  
H    4.0980299    0.0763084   -6.3676389  
H    5.1203942   -2.8129784   -2.1897556  
C    1.0965514    0.0001358   -0.8010306  
C    0.0000000    0.0000000    0.0000000  
C   -1.1546565    0.0001470   -0.8669508  
C   -0.6372019    0.0003520   -2.2486278  
N    0.7342867    0.0007338   -2.1395012  
C   -1.4147744    0.0001354   -3.3608712  
C   -2.8576052   -0.0001047   -3.1854454  
O   -3.6427785   -0.0002490   -4.1244896  
C   -3.4275841   -0.0000727   -1.7311660  
O   -4.6406832    0.0000333   -1.5710049  
C   -2.4891868   -0.0001090   -0.6116739  
H   -1.0150456    0.0001617   -4.3654239  
H   -2.8919122   -0.0002919    0.3920871  
H    2.1388270    0.0000663   -0.5261650  
C    2.3971438    2.0127888    3.1728260  
C    1.9431056    1.6308205    1.9564670  
C    0.8496017    0.7127664    2.2356185  
C    0.7794028    0.6545384    3.7115134  
N    1.6840587    1.4146091    4.2663826  
C   -0.1885723   -0.1578550    4.3957118  
C   -1.0476298   -0.8789867    3.6398520  
O   -2.0015663   -1.6796266    4.1448486  
C   -1.0022026   -0.8410666    2.1483229  
O   -1.8147390   -1.5232959    1.5241687  
C    0.0000000    0.0000000    1.4700000  
H    2.3054237    1.9346118    0.9892483  
H   -0.2170646   -0.1815267    5.4753125  
H   -2.4487139   -2.0549881    3.3649027  
H    3.2048689    2.6911772    3.3971983  
