64

C   -1.1178032   -0.0487174   -0.8003807  
C    0.0000000    0.0000000    0.0000000  
C    1.1313866    0.0475856   -0.8673522  
C    0.6377658    0.0253564   -2.1969277  
N   -0.7315650   -0.0351970   -2.1202240  
C    1.4758554    0.0605014   -3.3154803  
C    2.8370351    0.1194616   -3.0876848  
O    3.7006302    0.1561155   -4.1440335  
C    3.3487744    0.1420901   -1.7684323  
O    4.7257669    0.2012464   -1.7073109  
C    2.5225792    0.1071713   -0.6644810  
H    1.1059018    0.0436821   -4.3313806  
H    4.5898871    0.1944773   -3.7685115  
H    4.9889141    0.2130323   -0.7819903  
H    2.9435814    0.1255624    0.3339667  
H   -2.1599672   -0.0934841   -0.5342069  
C   -1.6467605   -0.0605395   -3.2703000  
C   -2.9988600   -0.1176637   -3.2583483  
C   -3.3866698   -0.1178897   -4.6605265  
C   -2.1081509   -0.0553822   -5.4008412  
N   -1.0847501   -0.0216367   -4.5912111  
C   -2.0606665   -0.0368845   -6.8369782  
C   -3.2369342   -0.0793092   -7.5032589  
O   -3.3414552   -0.0683796   -8.8430339  
C   -4.5437085   -0.1431429   -6.7846303  
O   -5.5751889   -0.1792305   -7.4554269  
C   -4.5660126   -0.1609541   -5.3111621  
H   -3.6523510   -0.1551227   -2.4035834  
H   -4.2991948   -0.1071749   -9.0173392  
H   -5.5329378   -0.2077421   -4.8283622  
C    1.8196421   -2.0041793   -6.0420966  
C    2.5112882   -1.4628502   -7.1008960  
C    1.6020112   -0.6181608   -7.8039714  
C    0.3601776   -0.6842817   -7.1217666  
N    0.5266129   -1.5360245   -6.0580696  
C   -0.7699913    0.0259639   -7.5377688  
C   -0.6441616    0.8176123   -8.6627741  
O   -1.7162974    1.5327167   -9.1124016  
C    0.5864334    0.8963374   -9.3572203  
O    0.5511955    1.7268881  -10.4582604  
C    1.7017100    0.1957278   -8.9475493  
H    3.5438272   -1.6542023   -7.3380471  
H   -0.1815476   -1.7707463   -5.3862097  
H   -1.4167027    2.0094791   -9.8973894  
H    1.4208693    1.7235990  -10.8696733  
H    2.6307121    0.2757577   -9.4998434  
H    2.1459687   -2.6883026   -5.2776065  
C    2.5285572    2.1210227    2.9438989  
C    1.9331703    1.6216660    4.0790748  
C    0.8903039    0.7472258    3.6520102  
C    0.8972198    0.7527806    2.2336141  
N    1.9028376    1.5986179    1.8362361  
C    0.0000000    0.0000000    1.4700000  
C   -0.9207814   -0.7726952    2.1506477  
O   -1.8198395   -1.5274828    1.4542253  
C   -0.9436862   -0.7911793    3.5655508  
O   -1.9197945   -1.6098497    4.0950179  
C   -0.0590329   -0.0485852    4.3195194  
H    2.2150357    1.8593692    5.0905303  
H    2.1533708    1.7953814    0.8841339  
H   -2.3621246   -1.9821033    2.1118817  
H   -1.8668290   -1.5649508    5.0545920  
H   -0.1007624   -0.0827977    5.4019087  
H    3.3491200    2.8096064    2.8367138  
