62

C    3.0612342   -5.6312459   -8.7352145  
C    2.6480503   -4.6465875   -7.8679233  
C    2.5527207   -3.4400408   -8.6227454  
C    2.9227892   -3.7527572   -9.9558569  
N    3.2273488   -5.0909521   -9.9889447  
C    2.9434315   -2.7994820  -10.9784167  
C    2.5836509   -1.5070414  -10.6492787  
O    2.5860687   -0.5368565  -11.6093570  
C    2.2117219   -1.1753873   -9.3247073  
O    1.8806555    0.1533102   -9.1564752  
C    2.1913911   -2.1152467   -8.3153621  
H    2.4418999   -4.7811266   -6.8198802  
H    3.5135388   -5.6010061  -10.8049845  
H    3.2246592   -3.0313987  -11.9964186  
H    2.3077643    0.2791878  -11.1736005  
H    1.6419724    0.2929691   -8.2349936  
H    3.2519666   -6.6759043   -8.5583845  
C    2.3446870   -2.1385759   -5.7825610  
C    1.7992131   -1.7303702   -6.9519228  
C    0.7308353   -0.8198481   -6.5697984  
C    0.7735874   -0.7944099   -5.0919255  
N    1.7176446   -1.5654466   -4.6247547  
C   -0.1387079    0.0017019   -4.3179684  
C   -1.0519387    0.7391883   -4.9898748  
O   -1.9638772    1.5275963   -4.3958873  
C   -1.1200789    0.7349604   -6.4810151  
O   -1.9771134    1.4304198   -7.0260375  
C   -0.1732952   -0.0899944   -7.2523616  
H   -2.4685601    1.9202486   -5.1309193  
H   -0.2553887   -0.0654078   -8.3307329  
H    3.1667835   -2.8208806   -5.6356219  
C    3.3041273    0.0001178   -1.5420428  
C    2.5845373   -0.0004780   -0.3695851  
C    1.2040007   -0.0000007   -0.7283589  
C    1.1422374    0.0006038   -2.1454372  
N    2.4348641    0.0026111   -2.6077464  
C   -0.0655179    0.0008799   -2.8497918  
C   -1.2321766    0.0002325   -2.1101402  
O   -2.4392814    0.0001148   -2.7472522  
C   -1.1911209   -0.0000007   -0.6955266  
O   -2.4371528   -0.0002320   -0.1032862  
C    0.0000000    0.0000000    0.0000000  
H    3.0031533   -0.0000660    0.6222584  
H    2.7054631   -0.0071097   -3.5745261  
H   -3.1132988   -0.0000648   -2.0551787  
H   -2.3200282   -0.0004072    0.8516409  
H    4.3686625    0.0004073   -1.7024290  
C    0.0000000    0.0000000    1.4700000  
C    1.0662921    0.0000102    2.3034270  
C    0.4961870   -0.0000064    3.6418889  
C   -0.9663858    0.0000850    3.4240247  
N   -1.2632773    0.0000084    2.1528658  
C   -1.8985362    0.0000517    4.5177257  
C   -1.3925775   -0.0004564    5.7720543  
O   -2.1456383   -0.0005410    6.8851312  
C    0.0786232   -0.0009323    6.0245000  
O    0.4683759   -0.0012588    7.1921102  
C    1.0143166   -0.0008442    4.8859032  
H    2.1107198   -0.0000632    2.0421868  
H   -2.9622183    0.0003270    4.3293377  
H   -1.5042274   -0.0009692    7.6184419  
H    2.0724152   -0.0013148    5.1109744  
