60

C    1.4974551   -2.9825126   -9.3359521  
C    0.7361812   -1.9977293   -8.7501786  
C    0.9935453   -0.7912307   -9.4662267  
C    1.9276408   -1.1041040  -10.4867666  
N    2.2139045   -2.4423427  -10.3781937  
C    2.4096997   -0.1509146  -11.3888955  
C    1.9400122    1.1416012  -11.2586104  
O    2.3775070    2.1117081  -12.1133061  
C    1.0081320    1.4734119  -10.2465259  
O    0.6369814    2.8021671  -10.2466520  
C    0.5323426    0.5336369   -9.3560345  
H    0.0773434   -2.1321558   -7.9094317  
H    2.8388225   -2.9525008  -10.9758521  
H    3.1217843   -0.3829509  -12.1688293  
H    1.9320422    2.9278246  -11.8510484  
H    0.0065563    2.9419326   -9.5334671  
H    1.5871497   -4.0271824   -9.0918636  
C    0.2574168   -0.6856121   -5.1816669  
C   -0.8287665    0.0000939   -4.7555305  
C   -1.2821017    0.7456923   -5.9196050  
C   -0.3285010    0.3820836   -6.9896606  
N    0.5761659   -0.4566990   -6.5630338  
C   -0.4351970    0.9186760   -8.3184834  
C   -1.4487055    1.7790892   -8.5671271  
O   -1.6679598    2.3556225   -9.7611025  
C   -2.4274560    2.1653065   -7.5083327  
O   -3.3248656    2.9536924   -7.8055255  
C   -2.2967100    1.6013192   -6.1530661  
H   -2.4560473    2.9123843   -9.6266159  
H   -3.0259293    1.9061168   -5.4144402  
H    0.8824803   -1.3579201   -4.6157423  
C    1.0672569   -0.0000698   -0.8321910  
C    0.0000000    0.0000000    0.0000000  
C   -1.1601223   -0.0000736   -0.8778472  
C   -0.5938729   -0.0000768   -2.2438435  
N    0.7113367   -0.0001553   -2.2234123  
C   -1.4286985   -0.0001877   -3.4135239  
C   -2.7683113   -0.0006798   -3.2270524  
O   -3.6653902   -0.0008302   -4.2276970  
C   -3.3702024   -0.0010610   -1.8610774  
O   -4.5974910   -0.0013779   -1.7662963  
C   -2.4926825   -0.0008943   -0.6770658  
H   -4.5324245   -0.0012258   -3.7833954  
H   -2.9677772   -0.0012974    0.2947961  
H    2.1134391   -0.0000547   -0.5705119  
C    0.8681109    0.7263879    2.2709268  
C    0.6127770    0.5096195    3.5869401  
C   -0.4920590   -0.4175482    3.6542670  
C   -0.8620974   -0.7254003    2.2596025  
N    0.0000000    0.0000000    1.4700000  
C   -1.8641242   -1.5660088    1.8976294  
C   -2.6293522   -2.2103885    2.9520183  
O   -3.5512764   -2.9839180    2.7283916  
C   -2.2549728   -1.8987399    4.4361073  
O   -2.8923672   -2.4351063    5.3323774  
C   -1.1543735   -0.9755647    4.7012123  
H    1.1382914    0.9492124    4.4159191  
H   -2.1192137   -1.7782617    0.8686553  
H   -0.9013378   -0.7652422    5.7314848  
H    1.6172880    1.3558399    1.8188057  
