62

C    6.2453416   -0.7098593   -3.3760123  
C    7.5248245   -0.4619476   -2.9356356  
C    8.1150041    0.4480618   -3.8620110  
C    7.1397416    0.7223390   -4.8547651  
N    6.0171544    0.0017175   -4.5305414  
C    7.3767785    1.5837880   -5.9301760  
C    8.6209002    2.1794377   -6.0045988  
O    8.9054911    3.0295572   -7.0338316  
C    9.6072237    1.9180430   -5.0239585  
O   10.7947453    2.5868912   -5.2379132  
C    9.3741666    1.0681030   -3.9629153  
H    7.9775164   -0.8858125   -2.0556350  
H    6.6377287    1.7968721   -6.6901773  
H    9.8136482    3.3293129   -6.8972251  
H   11.4057235    2.3553723   -4.5317195  
H   10.1491355    0.8870874   -3.2272962  
H    5.4779516   -1.3390776   -2.9586925  
C    1.7334697    0.0049246   -3.2500361  
C    3.1090791    0.0036299   -3.2628663  
C    3.5126984    0.0054159   -4.6309628  
C    2.3299048    0.0080770   -5.4138543  
N    1.2677984    0.0057533   -4.5440601  
C    2.3483174    0.0106630   -6.8118676  
C    3.5832508    0.0108677   -7.4308333  
O    3.6589641    0.0136950   -8.7936506  
C    4.7745980    0.0078629   -6.6669612  
O    5.9240674    0.0080678   -7.4298928  
C    4.7571865    0.0050375   -5.2877531  
H    3.7435740    0.0005372   -2.3931536  
H    0.2997754    0.0173728   -4.8101016  
H    1.4503964    0.0125541   -7.4143093  
H    4.5993502    0.0130212   -9.0148716  
H    6.6822233    0.0059631   -6.8376102  
C    1.1319247    0.0015655   -0.8009267  
C    0.7969916    0.0034943   -2.1169401  
C   -0.6453337    0.0035710   -2.1842668  
C   -1.1266832    0.0015433   -0.7896026  
N    0.0000000    0.0000000    0.0000000  
C   -2.4346130    0.0013964   -0.4276294  
C   -3.4350109    0.0031408   -1.4820183  
O   -4.6384610    0.0030973   -1.2583915  
C   -2.9478956    0.0050505   -2.9661075  
O   -3.7809378    0.0062218   -3.8623775  
C   -1.5113821    0.0053090   -3.2312122  
H   -2.7664565    0.0000232    0.6013446  
H   -1.1823527    0.0068407   -4.2614846  
H    2.1104317    0.0009391   -0.3488056  
C    0.8681109    0.7263879    2.2709268  
C    0.6127770    0.5096195    3.5869401  
C   -0.4920590   -0.4175482    3.6542670  
C   -0.8620974   -0.7254003    2.2596025  
N    0.0000000    0.0000000    1.4700000  
C   -1.8641242   -1.5660088    1.8976294  
C   -2.6293522   -2.2103885    2.9520183  
O   -3.5512764   -2.9839180    2.7283916  
C   -2.2549728   -1.8987399    4.4361073  
O   -2.8923672   -2.4351063    5.3323774  
C   -1.1543735   -0.9755647    4.7012123  
H    1.1382914    0.9492124    4.4159191  
H   -2.1192137   -1.7782617    0.8686553  
H   -0.9013378   -0.7652422    5.7314848  
H    1.6172880    1.3558399    1.8188057  
