60

C    6.8116939   -2.9430575   -4.8636557  
C    7.3458591   -3.6407093   -3.8051581  
C    8.4458749   -4.3924018   -4.3145936  
C    8.5356686   -4.1106206   -5.7018441  
N    7.5275206   -3.2287139   -6.0026647  
C    9.5095085   -4.6800938   -6.5277515  
C   10.4092766   -5.5496315   -5.9425195  
O   11.3808804   -6.1335707   -6.7027951  
C   10.3356743   -5.8436236   -4.5601424  
O   11.3021541   -6.7280944   -4.1277406  
C    9.3750549   -5.2824005   -3.7448123  
H    6.9861601   -3.6122833   -2.7908594  
H    7.3481142   -2.8401953   -6.9108758  
H    9.5831947   -4.4695382   -7.5857879  
H   11.8928510   -6.6957680   -6.1069047  
H   11.1818986   -6.8726414   -3.1842106  
H    9.3433869   -5.5267236   -2.6894541  
C    5.6703524   -2.0177344   -4.9085743  
C    4.8680132   -1.6338541   -3.8885417  
C    3.9117994   -0.7160921   -4.4884317  
C    4.2939635   -0.6601083   -5.9158071  
N    5.3241007   -1.4211366   -6.1680806  
C    3.5804919    0.1513591   -6.8632060  
C    2.5326227    0.8737497   -6.4055417  
O    1.7779995    1.6737359   -7.1779450  
C    2.1221166    0.8381007   -4.9708377  
O    1.1586088    1.5213822   -4.6244278  
C    2.8699641   -0.0020530   -4.0185824  
H    4.9187306   -1.9362135   -2.8565134  
H    3.8818032    0.1733865   -7.9003344  
H    1.1149872    2.0503428   -6.5715340  
C    3.2573670   -0.0002921   -1.5109382  
C    2.5379468   -0.0001711   -0.3591962  
C    1.1435043    0.0000330   -0.7338498  
C    1.1092608   -0.0000085   -2.2088474  
N    2.4227562    0.0001906   -2.6182610  
C   -0.0265533   -0.0002525   -2.9515663  
C   -1.3003033   -0.0002641   -2.2514979  
O   -2.3786785   -0.0004132   -2.8306425  
C   -1.2877724    0.0000310   -0.6895608  
O   -2.3539956    0.0003306   -0.0892035  
C    0.0000000    0.0000000    0.0000000  
H    2.9384091   -0.0000370    0.6389240  
H   -0.0296290   -0.0004088   -4.0327231  
H    4.3270394   -0.0004767   -1.6439445  
C    2.5128556    2.1077716    2.9199648  
C    1.9592212    1.6432552    4.0696553  
C    0.8915788    0.7479214    3.6910360  
C    0.8684491    0.7287414    2.2159470  
N    1.8754542    1.5738793    1.8102719  
C    0.0000000    0.0000000    1.4700000  
C   -0.9772830   -0.8200135    2.1664417  
O   -1.8021297   -1.5120829    1.5842315  
C   -0.9711318   -0.8147624    3.7284083  
O   -1.7894187   -1.5009653    4.3257297  
C    0.0140216    0.0115358    4.4216297  
H    2.2638494    1.8988021    5.0689105  
H    0.0117648    0.0094386    5.5031631  
H    3.3327358    2.7953732    2.7900019  
H    2.1123206    1.7707734    0.8551938  
