60

C    0.2561376    0.5603400   -9.3652525  
C    1.3453788   -0.2792159   -9.3994046  
C    1.8470656   -0.2562509  -10.7344637  
C    1.0166334    0.6225562  -11.4760879  
N    0.0596969    1.0995455  -10.6150597  
C    1.2180066    0.8875274  -12.8340377  
C    2.2771705    0.2540389  -13.4545544  
O    2.5193568    0.4772560  -14.7791426  
C    3.1166852   -0.6265306  -12.7316230  
O    4.1273126   -1.1795226  -13.4906852  
C    2.9184539   -0.8886088  -11.3920169  
H    1.7302608   -0.8401426   -8.5650065  
H   -0.6639622    1.7525143  -10.8557477  
H    0.5885786    1.5561685  -13.4049523  
H    3.2922573   -0.0548386  -15.0088508  
H    4.6473841   -1.7608785  -12.9275203  
H    3.5779078   -1.5679408  -10.8646585  
C    0.2055738   -0.7043961   -5.1603473  
C   -0.8712826    0.0001710   -4.7267111  
C   -1.3726441    0.7423356   -5.8592585  
C   -0.4933180    0.4099879   -6.9964130  
N    0.4429034   -0.4710990   -6.5064485  
C   -0.6357671    0.9095500   -8.2501477  
C   -1.7278965    1.8365862   -8.4958971  
O   -1.9397489    2.3410838   -9.5908409  
C   -2.6713151    2.2028683   -7.3061057  
O   -3.5940520    2.9825344   -7.5008833  
C   -2.4172085    1.5997592   -6.0001415  
H   -3.0751239    1.8584032   -5.1816219  
H    0.8458869   -1.3742666   -4.6097458  
H    1.1831970   -0.8829508   -7.0443978  
C    1.0965514    0.0001359   -0.8010305  
C    0.0000000    0.0000000    0.0000000  
C   -1.1546563    0.0001470   -0.8669513  
C   -0.6372014    0.0003519   -2.2486282  
N    0.7342871    0.0007337   -2.1395014  
C   -1.4147739    0.0001352   -3.3608717  
C   -2.8576049   -0.0001048   -3.1854462  
O   -3.6427779   -0.0002494   -4.1244907  
C   -3.4275840   -0.0000725   -1.7311666  
O   -4.6406831    0.0000333   -1.5710060  
C   -2.4891867   -0.0001091   -0.6116744  
H   -2.8919122   -0.0002918    0.3920866  
H    2.1388272    0.0000663   -0.5261648  
H    1.3735872   -0.0006099   -2.9130262  
C    0.0000000    0.0000000    1.4700000  
C    1.0662921    0.0000102    2.3034270  
C    0.4961870   -0.0000064    3.6418889  
C   -0.9663858    0.0000850    3.4240247  
N   -1.2632773    0.0000084    2.1528658  
C   -1.8985362    0.0000517    4.5177257  
C   -1.3925775   -0.0004564    5.7720543  
O   -2.1456383   -0.0005410    6.8851312  
C    0.0786232   -0.0009323    6.0245000  
O    0.4683759   -0.0012588    7.1921102  
C    1.0143166   -0.0008442    4.8859032  
H    2.1107198   -0.0000632    2.0421868  
H   -2.9622183    0.0003270    4.3293377  
H   -1.5042274   -0.0009692    7.6184419  
H    2.0724152   -0.0013148    5.1109744  
