60

C    2.1349317   -0.0016726   -8.0806843  
C    3.1756835   -0.0021273   -7.1810723  
C    4.3828374   -0.0031191   -7.9409266  
C    4.0127260   -0.0029406   -9.3102117  
N    2.6407990   -0.0040068   -9.3595286  
C    4.9505921   -0.0034423  -10.3471292  
C    6.2864175   -0.0038297   -9.9953508  
O    7.2440191   -0.0039759  -10.9679830  
C    6.6755177   -0.0043889   -8.6346830  
O    8.0423679   -0.0051492   -8.4474277  
C    5.7508337   -0.0041677   -7.6112164  
H    3.0769578   -0.0028911   -6.1090436  
H    2.0902411    0.0064116  -10.1990275  
H    4.6749803   -0.0034537  -11.3927107  
H    8.0959151   -0.0045465  -10.5124196  
H    8.2198134   -0.0054622   -7.5018502  
H    6.0788997   -0.0047911   -6.5783319  
C   -0.2963294   -0.0005341   -4.3948471  
C    0.7278651   -0.0010065   -5.2865309  
C    0.1384644   -0.0010228   -6.6046519  
C   -1.3235472   -0.0004882   -6.4063792  
N   -1.5211839   -0.0006101   -5.0448251  
C   -2.2357329    0.0000548   -7.4111788  
C   -1.7448089   -0.0001094   -8.7792165  
O   -2.4864201    0.0002816   -9.7530304  
C   -0.2003569   -0.0009258   -9.0126110  
O    0.2247525   -0.0013772  -10.1600176  
C    0.6832435   -0.0011826   -7.8493819  
H    1.7765638   -0.0014916   -5.0481103  
H   -3.3039063    0.0005715   -7.2440972  
H   -2.4171880    0.0012263   -4.5929174  
C    3.1301143   -0.0010313   -1.7028257  
C    2.5367765   -0.0002767   -0.4864669  
C    1.1089900    0.0001027   -0.7656184  
C    1.0177864   -0.0004150   -2.2415133  
N    2.1993571   -0.0011613   -2.7963824  
C   -0.2459220   -0.0002879   -2.9257116  
C   -1.3675327   -0.0000606   -2.1698519  
O   -2.6129319    0.0000866   -2.6748482  
C   -1.3083588    0.0000910   -0.6783229  
O   -2.3693264    0.0004206   -0.0541685  
C    0.0000000    0.0000000    0.0000000  
H    3.0096014   -0.0001008    0.4807517  
H   -3.1967445    0.0002093   -1.8949025  
H    4.1849272   -0.0015113   -1.9271980  
C    0.8400945    0.7047457    2.2710304  
C    0.0000000    0.0000000    1.4700000  
C   -0.8844236   -0.7423113    2.3369512  
C   -0.4878984   -0.4098547    3.7186280  
N    0.5629682    0.4714286    3.6095011  
C   -1.0836927   -0.9095027    4.8308716  
C   -2.1891196   -1.8367527    4.6554461  
O   -2.7906899   -2.3413415    5.5944904  
C   -2.6257283   -2.2031529    3.2011665  
O   -3.5549479   -2.9829990    3.0410059  
C   -1.9068976   -1.5999348    2.0816745  
H   -0.7774656   -0.6525820    5.8354244  
H   -2.2155208   -1.8586617    1.0779135  
H    1.6384792    1.3747609    1.9961646  
H    1.0518368    0.8833920    4.3830260  
