60

C    2.0940356   -3.0807247   -8.9979515  
C    1.7615142   -1.8478837   -8.4860921  
C    1.7608428   -0.9301156   -9.5780172  
C    2.1028615   -1.6666414  -10.7409788  
N    2.3004265   -2.9685878  -10.3530068  
C    2.1973130   -1.0805176  -12.0068086  
C    1.9415474    0.2737367  -12.1003899  
O    2.0192699    0.8965836  -13.3124264  
C    1.5991602    1.0257180  -10.9514293  
O    1.3746345    2.3624368  -11.2085553  
C    1.5060610    0.4482046   -9.7022940  
H    2.5440233   -3.7260284  -10.9653186  
H    2.4576707   -1.6363218  -12.8970320  
H    1.8071641    1.8259799  -13.1559105  
H    1.1492274    2.7977235  -10.3807136  
H    1.2419133    1.0497756   -8.8404264  
H    2.2017124   -4.0308864   -8.5034245  
C    2.1451926   -2.0951771   -5.9900948  
C    1.6340471   -1.6323753   -4.8202147  
C    0.5538823   -0.7357923   -5.1581773  
C    0.4770632   -0.7140558   -6.6314107  
N    1.4686355   -1.5584201   -7.0749457  
C   -0.4180300    0.0158494   -7.3439773  
C   -1.3690899    0.8348540   -6.6110028  
O   -2.2145431    1.5279312   -7.1615954  
C   -1.3057475    0.8272853   -5.0503184  
O   -2.1011642    1.5130918   -4.4224310  
C   -0.2963293   -0.0005341   -4.3948471  
H    1.9749143   -1.8895633   -3.8331594  
H   -0.4575588    0.0175261   -8.4244138  
H    2.9593495   -2.7830349   -6.1509984  
C    3.1301146   -0.0010313   -1.7028256  
C    2.5367765   -0.0002766   -0.4864669  
C    1.1089901    0.0001027   -0.7656184  
C    1.0177865   -0.0004150   -2.2415133  
N    2.1993571   -0.0011612   -2.7963824  
C   -0.2459219   -0.0002879   -2.9257116  
C   -1.3675326   -0.0000606   -2.1698520  
O   -2.6129318    0.0000865   -2.6748483  
C   -1.3083588    0.0000910   -0.6783229  
O   -2.3693264    0.0004206   -0.0541685  
C    0.0000000    0.0000000    0.0000000  
H    3.0096016   -0.0001007    0.4807518  
H   -3.1967444    0.0002093   -1.8949026  
H    4.1849275   -0.0015114   -1.9271979  
C    2.5128556    2.1077716    2.9199648  
C    1.9592212    1.6432552    4.0696553  
C    0.8915788    0.7479214    3.6910360  
C    0.8684491    0.7287414    2.2159470  
N    1.8754542    1.5738793    1.8102719  
C    0.0000000    0.0000000    1.4700000  
C   -0.9772830   -0.8200135    2.1664417  
O   -1.8021297   -1.5120829    1.5842315  
C   -0.9711318   -0.8147624    3.7284083  
O   -1.7894187   -1.5009653    4.3257297  
C    0.0140216    0.0115358    4.4216297  
H    2.2638494    1.8988021    5.0689105  
H    0.0117648    0.0094386    5.5031631  
H    3.3327358    2.7953732    2.7900019  
H    2.1123206    1.7707734    0.8551938  
