60

C    4.4064266   -3.7114710   -6.4851423  
C    5.3491016   -4.5144841   -5.8859763  
C    5.1893269   -4.3637247   -4.4765993  
C    4.1246691   -3.4486498   -4.2739457  
N    3.6731335   -3.0706763   -5.5140544  
C    3.6899524   -3.0638269   -3.0020490  
C    4.3416774   -3.6129995   -1.9149235  
O    3.9574258   -3.2720111   -0.6503722  
C    5.4063775   -4.5274263   -2.0967302  
O    5.9534373   -4.9854780   -0.9159433  
C    5.8359440   -4.9073077   -3.3511979  
H    6.0646892   -5.1320085   -6.4013326  
H    2.8792138   -2.3667415   -2.8408748  
H    4.5339850   -3.7607022   -0.0486857  
H    6.6649684   -5.5974532   -1.1276335  
H    6.6542503   -5.6095835   -3.4591853  
H    4.2000587   -3.5440160   -7.5283728  
C    2.5632298   -2.1406387   -5.7671242  
C    2.0732861   -1.7328921   -6.9609742  
C    0.9882146   -0.8221516   -6.6298070  
C    0.9615393   -0.7960978   -5.1515671  
N    1.8825654   -1.5669908   -4.6402708  
C    0.0139741    0.0003876   -4.4216236  
C   -0.8666506    0.7376431   -5.1359692  
O   -1.8054112    1.5263499   -4.5857773  
C   -0.8647112    0.7327957   -6.6286625  
O   -1.6951612    1.4280743   -7.2136077  
C    0.1171797   -0.0925334   -7.3543666  
H    2.4070530   -2.0152026   -7.9448323  
H   -2.2750004    1.9187226   -5.3438555  
H    0.0858053   -0.0683935   -8.4354135  
C    3.2798085    0.0005853   -1.4499648  
C    2.5571144    0.0005562   -2.5996554  
C    1.1637436    0.0001546   -2.2210360  
C    1.1336965   -0.0000201   -0.7459470  
N    2.4483513   -0.0001430   -0.3402717  
C    0.0000000    0.0000000    0.0000000  
C   -1.2757367   -0.0000188   -0.6964414  
O   -2.3524597   -0.0000640   -0.1142313  
C   -1.2676494   -0.0000875   -2.2584081  
O   -2.3355762   -0.0004102   -2.8557294  
C    0.0181562    0.0001757   -2.9516296  
H    2.9547357    0.0006072   -3.5989105  
H    4.3498550    0.0008609   -1.3200021  
H    2.7563627    0.0012824    0.6148063  
C    0.8681109    0.7263879    2.2709268  
C    0.6127770    0.5096195    3.5869401  
C   -0.4920590   -0.4175482    3.6542670  
C   -0.8620974   -0.7254003    2.2596025  
N    0.0000000    0.0000000    1.4700000  
C   -1.8641242   -1.5660088    1.8976294  
C   -2.6293522   -2.2103885    2.9520183  
O   -3.5512764   -2.9839180    2.7283916  
C   -2.2549728   -1.8987399    4.4361073  
O   -2.8923672   -2.4351063    5.3323774  
C   -1.1543735   -0.9755647    4.7012123  
H    1.1382914    0.9492124    4.4159191  
H   -2.1192137   -1.7782617    0.8686553  
H   -0.9013378   -0.7652422    5.7314848  
H    1.6172880    1.3558399    1.8188057  
