62

C   -7.5133160    3.0537473    0.1267655  
C   -7.0268235    1.8305748   -0.2727868  
C   -8.0968338    0.8957341   -0.1472799  
C   -9.2209329    1.6123618    0.3372519  
N   -8.8316468    2.9193879    0.4945945  
C  -10.4570696    1.0059698    0.5802451  
C  -10.5603994   -0.3484684    0.3292503  
O  -11.7446096   -0.9906585    0.5489128  
C   -9.4500070   -1.0807680   -0.1540522  
O   -9.7121548   -2.4203846   -0.3541762  
C   -8.2301491   -0.4832542   -0.3937402  
H   -9.4214066    3.6660274    0.8150556  
H  -11.3175985    1.5465497    0.9496542  
H  -11.6008475   -1.9165457    0.3136906  
H   -8.9111392   -2.8415968   -0.6806096  
H   -7.3975297   -1.0700249   -0.7637716  
H   -7.0238148    4.0111042    0.1798274  
C   -4.5189885    2.1247804   -0.2046390  
C   -3.4217515    1.6624927   -0.8937164  
C   -3.9056844    0.7751586   -1.9002190  
C   -5.3180961    0.7354483   -1.7759556  
N   -5.6572032    1.5646455   -0.7357370  
C   -6.1291078   -0.0406019   -2.6094992  
C   -5.5029133   -0.7899851   -3.5864761  
O   -6.2471435   -1.5653363   -4.4278833  
C   -4.0948368   -0.7638645   -3.7259559  
O   -3.6222949   -1.5645228   -4.7452668  
C   -3.2941076    0.0012878   -2.9038237  
H   -2.3983557    1.9308558   -0.6946314  
H   -7.2061221   -0.0753236   -2.5198535  
H   -5.6225343   -1.9985111   -5.0241120  
H   -2.6635044   -1.4894251   -4.7714260  
H   -4.5796252    2.8086378    0.6245903  
C    0.0000000    0.0000000    0.0000000  
C    1.0541688   -0.0001723   -0.8560392  
C    0.5103136   -0.0000455   -2.1935956  
C   -0.9576373    0.0002461   -2.0455730  
N   -1.2018460   -0.0001389   -0.6915968  
C   -1.8348314    0.0008319   -3.0810607  
C   -1.2972851    0.0009739   -4.4314603  
O   -2.0050676    0.0014268   -5.4301316  
C    0.2542619    0.0004184   -4.6117572  
O    0.7184666    0.0002257   -5.7439122  
C    1.0974551    0.0000873   -3.4189129  
H    2.0940752   -0.0005484   -0.5817983  
H    2.1707276   -0.0000912   -3.5523673  
H   -2.1128194    0.0014915   -0.2706789  
C    1.0672568    0.0000697    2.3021913  
C    0.0000000    0.0000000    1.4700000  
C   -1.1601224    0.0000736    2.3478473  
C   -0.5938729    0.0000769    3.7138435  
N    0.7113367    0.0001554    3.6934124  
C   -1.4286986    0.0001879    4.8835240  
C   -2.7683114    0.0006799    4.6970523  
O   -3.6653903    0.0008304    5.6976972  
C   -3.3702025    0.0010610    3.3310774  
O   -4.5974910    0.0013779    3.2362962  
C   -2.4926826    0.0008943    2.1470656  
H   -0.9878360   -0.0000190    5.8697035  
H   -4.5324246    0.0012261    5.2533954  
H   -2.9677772    0.0012974    1.1752040  
H    2.1134392    0.0000545    2.0405121  
