64

C    2.5713801   -1.9386682   -7.6531625  
C    3.6625874   -2.7696710   -7.7588453  
C    4.0938130   -2.7198761   -9.1175818  
C    3.2203547   -1.8342718   -9.7992715  
N    2.3066596   -1.3792145   -8.8812841  
C    3.3489745   -1.5442691  -11.1609414  
C    4.3782775   -2.1592510  -11.8468778  
O    4.5496544   -1.9112827  -13.1781010  
C    5.2598415   -3.0462272  -11.1843558  
O    6.2329466   -3.5786633  -12.0046745  
C    5.1333844   -3.3329952   -9.8411138  
H    4.0939608   -3.3422607   -6.9556944  
H    1.5673643   -0.7273612   -9.0723622  
H    2.6864596   -0.8703234  -11.6863689  
H    5.3128362   -2.4337433  -13.4571251  
H    6.7853050   -4.1659886  -11.4797434  
H    5.8236802   -4.0166572   -9.3609300  
C    1.9074114   -2.1157063   -5.2171225  
C    1.7366764   -1.6153232   -6.4871355  
C    0.6103640   -0.7412452   -6.4423320  
C    0.1310751   -0.7480684   -5.1073552  
N    0.9400197   -1.5942803   -4.3903115  
C   -0.9736297    0.0040464   -4.6965763  
C   -1.6058300    0.7773678   -5.6507640  
O   -2.6892501    1.5315498   -5.3037409  
C   -1.1427631    0.7971177   -6.9879238  
O   -1.8787358    1.6162802   -7.8189843  
C   -0.0531713    0.0551809   -7.3939360  
H    0.8493711   -1.7919000   -3.4101531  
H   -2.9736278    1.9867686   -6.1069657  
H   -1.5003150    1.5722382   -8.7024219  
H    0.2783215    0.0903621   -8.4251258  
H    2.6418359   -2.8044017   -4.8359673  
C    1.1188642    0.0008222   -0.8003808  
C    0.0000000    0.0000000    0.0000000  
C   -1.1323862    0.0008899   -0.8673528  
C   -0.6382663    0.0019679   -2.1969280  
N    0.7324016    0.0038481   -2.1202242  
C   -1.4770914    0.0027318   -3.3154808  
C   -2.8395473    0.0020945   -3.0876857  
O   -3.7039201    0.0024425   -4.1440349  
C   -3.3517868    0.0013931   -1.7684331  
O   -4.7300497    0.0012366   -1.7073121  
C   -2.5248543    0.0009123   -0.6644817  
H    1.3576314   -0.0056167   -2.9057046  
H   -4.5940032    0.0021826   -3.7685128  
H   -4.9934602    0.0007259   -0.7819913  
H   -2.9462577    0.0005603    0.3339659  
H    2.1619895    0.0009355   -0.5342068  
C    0.8400945    0.7047457    2.2710304  
C    0.0000000    0.0000000    1.4700000  
C   -0.8844236   -0.7423113    2.3369512  
C   -0.4878984   -0.4098547    3.7186280  
N    0.5629682    0.4714286    3.6095011  
C   -1.0836927   -0.9095027    4.8308716  
C   -2.1891196   -1.8367527    4.6554461  
O   -2.7906899   -2.3413415    5.5944904  
C   -2.6257283   -2.2031529    3.2011665  
O   -3.5549479   -2.9829990    3.0410059  
C   -1.9068976   -1.5999348    2.0816745  
H   -0.7774656   -0.6525820    5.8354244  
H   -2.2155208   -1.8586617    1.0779135  
H    1.6384792    1.3747609    1.9961646  
H    1.0518368    0.8833920    4.3830260  
