60

C    5.8493660   -3.2373101   -7.4707467  
C    6.4660191   -2.4716435   -8.4330158  
C    6.0114962   -1.1316062   -8.2532682  
C    5.1117160   -1.1408451   -7.1568032  
N    5.0346164   -2.4353414   -6.7063011  
C    4.4691981    0.0122484   -6.6960052  
C    4.7401690    1.1962905   -7.3538783  
O    4.1402471    2.3521284   -6.9450447  
C    5.6346847    1.2257097   -8.4501417  
O    5.7996832    2.4804764   -8.9993950  
C    6.2686931    0.0884934   -8.9054422  
H    7.1574452   -2.8345303   -9.1741200  
H    4.4803551   -2.7474713   -5.9295443  
H    4.4627525    3.0492104   -7.5309889  
H    6.4183697    2.4124005   -9.7330131  
H    6.9486253    0.1419355   -9.7476497  
H    5.9251530   -4.2922817   -7.2701246  
C    4.5546440   -2.0975051   -2.8456837  
C    3.3966020   -1.6333854   -2.3093944  
C    2.8128209   -0.7373022   -3.2794820  
C    3.7322614   -0.7172951   -4.4331801  
N    4.7679905   -1.5620816   -4.1068518  
C    3.5352976    0.0116908   -5.5607836  
C    2.3379419    0.8314596   -5.6435733  
O    2.0707015    1.5238118   -6.6169859  
C    1.3504337    0.8257212   -4.4333667  
O    0.3391714    1.5121846   -4.4914818  
C    1.6707636   -0.0012343   -3.2725974  
H    2.9970334   -1.8893868   -1.3442924  
H    5.2702680   -2.7854719   -2.4255961  
H    5.5563150   -1.7607949   -4.6951584  
C    1.0965514    0.0001358   -0.8010306  
C    0.0000000    0.0000000    0.0000000  
C   -1.1546565    0.0001470   -0.8669508  
C   -0.6372019    0.0003520   -2.2486278  
N    0.7342867    0.0007338   -2.1395012  
C   -1.4147744    0.0001354   -3.3608712  
C   -2.8576052   -0.0001047   -3.1854454  
O   -3.6427785   -0.0002490   -4.1244896  
C   -3.4275841   -0.0000727   -1.7311660  
O   -4.6406832    0.0000333   -1.5710049  
C   -2.4891868   -0.0001090   -0.6116739  
H   -1.0150456    0.0001617   -4.3654239  
H   -2.8919122   -0.0002919    0.3920871  
H    2.1388270    0.0000663   -0.5261650  
C    0.0000000    0.0000000    1.4700000  
C    1.0541688    0.0001722    2.3260392  
C    0.5103138    0.0000454    3.6635956  
C   -0.9576371   -0.0002459    3.5155732  
N   -1.2018458    0.0001392    2.1615969  
C   -1.8348311   -0.0008317    4.5510609  
C   -1.2972847   -0.0009736    5.9014604  
O   -2.0050672   -0.0014265    6.9001319  
C    0.2542623   -0.0004184    6.0817573  
O    0.7184670   -0.0002256    7.2139121  
C    1.0974552   -0.0000873    4.8889129  
H    2.0940752    0.0005483    2.0517982  
H   -2.9081052   -0.0011668    4.4207061  
H    2.1707277    0.0000911    5.0223670  
H   -2.1128194   -0.0014912    1.7406791  
