62

C    1.1188647    0.0008222   -0.8003801  
C    0.0000000    0.0000000    0.0000000  
C   -1.1323860    0.0008898   -0.8673529  
C   -0.6382656    0.0019678   -2.1969277  
N    0.7324024    0.0038479   -2.1202234  
C   -1.4770905    0.0027316   -3.3154808  
C   -2.8395467    0.0020941   -3.0876861  
O   -3.7039192    0.0024422   -4.1440353  
C   -3.3517863    0.0013928   -1.7684335  
O   -4.7300488    0.0012364   -1.7073129  
C   -2.5248542    0.0009121   -0.6644819  
H    1.3576321   -0.0056169   -2.9057034  
H   -4.5940020    0.0021824   -3.7685138  
H   -4.9934596    0.0007261   -0.7819928  
H   -2.9462578    0.0005602    0.3339650  
H    2.1619895    0.0009355   -0.5342059  
C    1.8844594   -2.1024767   -5.2000013  
C    1.7579335   -1.6369217   -6.4693810  
C    0.6249294   -0.7419063   -6.4785605  
C    0.0979881   -0.7240449   -5.1005895  
N    0.9053936   -1.5695646   -4.3752742  
C   -0.9736283    0.0040460   -4.6965761  
C   -1.6535172    0.8247009   -5.6849143  
O   -2.6280796    1.5162653   -5.4198320  
C   -1.1127770    0.8208465   -7.1503115  
O   -1.6771950    1.5075990   -7.9911824  
C    0.0504558   -0.0048507   -7.4649007  
H    2.3864481   -1.8915808   -7.3040860  
H    2.6104410   -2.7902100   -4.7976788  
H    0.8008857   -1.7673174   -3.3970009  
C    0.5510331   -0.0006856   -8.8470383  
C    1.6035588   -0.6836573   -9.3543049  
C    1.6483457   -0.3134354  -10.7605161  
C    0.5196836    0.6258993  -10.9347463  
N   -0.1271754    0.8131740   -9.8164925  
C    0.2201217    1.2281336  -12.2046524  
C    1.0123260    0.9068881  -13.2527691  
O    0.8485053    1.3941121  -14.4944680  
C    2.1592166   -0.0375995  -13.1087330  
O    2.8380044   -0.2845422  -14.1054712  
C    2.4460110   -0.6422801  -11.7957072  
H    2.2676065   -1.3556140   -8.8379806  
H   -0.6110401    1.9110367  -12.3032579  
H    1.5608917    0.9842717  -15.0176208  
H    3.2857569   -1.3213410  -11.7329962  
C    0.8576279    0.7185626    2.2703808  
C    0.0000000    0.0000000    1.4700000  
C   -0.8668858   -0.7285659    2.3373528  
C   -0.4876752   -0.4117774    3.6669281  
N    0.5635254    0.4678311    3.5902241  
C   -1.1297612   -0.9515493    4.7854808  
C   -2.1738724   -1.8268314    4.5576857  
O   -2.8357962   -2.3827064    5.6140350  
C   -2.5667212   -2.1555554    3.2384331  
O   -3.6226318   -3.0413663    3.1773122  
C   -1.9335634   -1.6236449    2.1344818  
H    1.0363952    0.8769718    4.3757045  
H   -0.8454472   -0.7142436    5.8013813  
H   -3.5178062   -2.9546422    5.2385129  
H   -3.8247440   -3.2102924    2.2519915  
H   -2.2566033   -1.8942483    1.1360343  
H    1.6567807    1.3889844    2.0042067  
