66

C   -0.1917946   -0.6567247   -5.1170604  
C   -0.1066268   -0.3930724   -6.4645402  
C   -1.1576520    0.5190438   -6.7775733  
C   -1.8568545    0.7783248   -5.5710012  
N   -1.2456342    0.0471353   -4.5828770  
C   -2.9579238    1.6374101   -5.5046097  
C   -3.3602980    2.2460722   -6.6775557  
O   -4.4294252    3.0945491   -6.6693820  
C   -2.6757262    1.9997369   -7.8914329  
O   -3.1977521    2.6803530   -8.9719856  
C   -1.5895830    1.1521377   -7.9577221  
H   -3.4952059    1.8390952   -4.5881746  
H   -4.5388339    3.4046741   -7.5777417  
H   -2.6783847    2.4586133   -9.7508909  
H   -1.0853788    0.9827953   -8.9019567  
H    0.4149212   -1.2922741   -4.4950225  
C    1.1243406    0.0100250   -0.7919004  
C    0.7474071    0.0234762   -2.1148548  
C   -0.6787389    0.0234287   -2.1414703  
C   -1.1201746    0.0098259   -0.7935552  
N    0.0000000    0.0000000    0.0000000  
C   -2.4730819    0.0062979   -0.4408241  
C   -3.3971963    0.0169977   -1.4675060  
O   -4.7313518    0.0144863   -1.1793472  
C   -2.9763658    0.0302624   -2.8186326  
O   -4.0166485    0.0393927   -3.7247627  
C   -1.6418572    0.0334772   -3.1673485  
H    1.4178707    0.0311386   -2.9571211  
H   -2.8160167   -0.0041940    0.5845965  
H   -5.1938826    0.0229333   -2.0274387  
H   -3.6464685    0.0481212   -4.6127346  
H    2.1062464    0.0053440   -0.3505408  
C    1.3428395   -2.2577196   -7.3604053  
C    2.2789127   -2.4304989   -8.3535730  
C    2.4109805   -1.1782456   -9.0236622  
C    1.5233496   -0.2714047   -8.3898821  
N    0.8890585   -0.9597229   -7.3856359  
C    1.3900688    1.0613357   -8.7909150  
C    2.1672219    1.4864497   -9.8508628  
O    2.0769219    2.7779639  -10.2831241  
C    3.0584297    0.5965242  -10.4963085  
O    3.7620729    1.1705407  -11.5349305  
C    3.1902327   -0.7184621  -10.1013863  
H    2.8013847   -3.3467211   -8.5693328  
H    0.7152713    1.7574717   -8.3121196  
H    2.6945399    2.8627074  -11.0211154  
H    4.3403020    0.5028098  -11.9162309  
H    3.8810834   -1.3767113  -10.6151095  
H    0.9619257   -2.9580565   -6.6369469  
C    0.8576279    0.7185626    2.2703808  
C    0.0000000    0.0000000    1.4700000  
C   -0.8668858   -0.7285659    2.3373528  
C   -0.4876752   -0.4117774    3.6669281  
N    0.5635254    0.4678311    3.5902241  
C   -1.1297612   -0.9515493    4.7854808  
C   -2.1738724   -1.8268314    4.5576857  
O   -2.8357962   -2.3827064    5.6140350  
C   -2.5667212   -2.1555554    3.2384331  
O   -3.6226318   -3.0413663    3.1773122  
C   -1.9335634   -1.6236449    2.1344818  
H    1.0363952    0.8769718    4.3757045  
H   -0.8454472   -0.7142436    5.8013813  
H   -3.5178062   -2.9546422    5.2385129  
H   -3.8247440   -3.2102924    2.2519915  
H   -2.2566033   -1.8942483    1.1360343  
H    1.6567807    1.3889844    2.0042067  
