60

C    6.1480138   -0.7231071   -3.2645722  
C    5.9347405   -0.0064451   -4.4192921  
C    7.1332429    0.7194921   -4.6861362  
C    8.0505608    0.4031322   -3.6515491  
N    7.4197395   -0.4737001   -2.8042909  
C    9.3398937    0.9407566   -3.5934821  
C    9.7100452    1.8134092   -4.5982916  
O   10.9575891    2.3671111   -4.5903977  
C    8.8087803    2.1416649   -5.6388622  
O    9.3258821    3.0247453   -6.5641277  
C    7.5365738    1.6118725   -5.6966340  
H    7.8276324   -0.8819379   -1.9827393  
H   10.0437232    0.7037639   -2.8075681  
H   11.0081204    2.9374253   -5.3685063  
H    8.6541911    3.1935343   -7.2319191  
H    6.8683235    1.8820540   -6.5059064  
H    5.4931041   -1.3913305   -2.7320970  
C    1.6707638   -0.0012342   -3.2725973  
C    3.0286798   -0.0026497   -3.2608754  
C    3.4615715   -0.0042631   -4.6383503  
C    2.2357551   -0.0036379   -5.4594252  
N    1.1849520   -0.0021879   -4.5713376  
C    2.2192692   -0.0043573   -6.8164192  
C    3.4939025   -0.0060727   -7.5148770  
O    3.5845469   -0.0068913   -8.7355670  
C    4.8047158   -0.0070127   -6.6654228  
O    5.8837814   -0.0087640   -7.2423773  
C    4.6947481   -0.0058250   -5.2087974  
H    3.6555461   -0.0027549   -2.3870034  
H    1.3089303   -0.0037484   -7.3996804  
H    0.2146124    0.0000900   -4.8272345  
C    1.0965515    0.0001359   -0.8010305  
C    0.0000000    0.0000000    0.0000000  
C   -1.1546564    0.0001470   -0.8669509  
C   -0.6372018    0.0003521   -2.2486279  
N    0.7342868    0.0007339   -2.1395011  
C   -1.4147743    0.0001355   -3.3608714  
C   -2.8576049   -0.0001046   -3.1854455  
O   -3.6427782   -0.0002491   -4.1244898  
C   -3.4275842   -0.0000725   -1.7311664  
O   -4.6406831    0.0000334   -1.5710053  
C   -2.4891868   -0.0001091   -0.6116742  
H   -1.0150456    0.0001619   -4.3654242  
H   -2.8919123   -0.0002920    0.3920869  
H    2.1388270    0.0000663   -0.5261648  
C    2.4951002    2.0940188    2.9809380  
C    1.9440701    1.6314916    1.8291961  
C    0.8759964    0.7350050    2.2038498  
C    0.8497377    0.7130254    3.6788474  
N    1.8560616    1.5571714    4.0882609  
C   -0.0205033   -0.0168748    4.4215661  
C   -0.9962600   -0.8356168    3.7214979  
O   -1.8224391   -1.5286685    4.3006425  
C   -0.9864710   -0.8277881    2.1595606  
O   -1.8030528   -1.5133726    1.5592035  
C    0.0000000    0.0000000    1.4700000  
H    2.2509283    1.8888011    0.8310761  
H   -0.0229599   -0.0187323    5.5027230  
H    3.3143982    2.7817323    3.1139444  
H    2.0889452    1.7545833    5.0442112  
