62

C   -0.2828412    0.1912934   -8.7859942  
C    0.4662836   -0.4661925   -9.7341454  
C   -0.0412989   -0.0770651  -11.0091125  
C   -1.1085110    0.8271802  -10.7738993  
N   -1.2297234    0.9664846   -9.4135626  
C   -1.8434870    1.4150106  -11.8078502  
C   -1.4945687    1.0842155  -13.1028449  
O   -2.1790651    1.6296856  -14.1501940  
C   -0.4330308    0.1836814  -13.3577805  
O   -0.2080326   -0.0447451  -14.6996231  
C    0.2922973   -0.3968146  -12.3382469  
H    1.2779418   -1.1438574   -9.5317243  
H   -1.8969452    1.5543818   -8.9475442  
H   -2.6580781    2.1048213  -11.6352093  
H   -1.7802997    1.2707558  -14.9535745  
H    0.5241008   -0.6631420  -14.7842971  
H    1.0999595   -1.0831522  -12.5643014  
C    2.4320877   -2.0124028   -6.1859210  
C    2.0200835   -1.6305795   -4.9546444  
C    0.9177867   -0.7123207   -5.1959806  
C    0.7970282   -0.6538281   -6.6685906  
N    1.6820121   -1.4139326   -7.2542822  
C   -0.1937184    0.1588217   -7.3190578  
C   -1.0262443    0.8799458   -6.5340644  
O   -1.9968173    1.6808093   -7.0059183  
C   -0.9297035    0.8417619   -5.0449762  
O   -1.7202577    1.5239997   -4.3932124  
C    0.0950446    0.0004351   -4.4015596  
H    2.4153098   -1.9345893   -4.0004696  
H   -2.4169009    2.0561001   -6.2110347  
H    3.2315426   -2.6908679   -6.4379726  
C    3.3321173    0.0004713   -1.3379338  
C    2.6974181    0.0000116   -2.5332314  
C    1.2800438   -0.0002119   -2.2052841  
C    1.2395034    0.0000643   -0.7271299  
N    2.4394062    0.0005460   -0.2131038  
C    0.0000000    0.0000000    0.0000000  
C   -1.1468702    0.0000634   -0.7169543  
O   -2.3742203    0.0000074   -0.1695487  
C   -1.1388770    0.0001607   -2.2096355  
O   -2.2206234    0.0000905   -2.7970411  
C    0.1454522    0.0001815   -2.9324241  
H    3.1367984   -0.0000653   -3.5160950  
H   -2.9844346    0.0001026   -0.9290167  
H    4.3940038    0.0007618   -1.1498640  
C    0.8576279    0.7185626    2.2703808  
C    0.0000000    0.0000000    1.4700000  
C   -0.8668858   -0.7285659    2.3373528  
C   -0.4876752   -0.4117774    3.6669281  
N    0.5635254    0.4678311    3.5902241  
C   -1.1297612   -0.9515493    4.7854808  
C   -2.1738724   -1.8268314    4.5576857  
O   -2.8357962   -2.3827064    5.6140350  
C   -2.5667212   -2.1555554    3.2384331  
O   -3.6226318   -3.0413663    3.1773122  
C   -1.9335634   -1.6236449    2.1344818  
H    1.0363952    0.8769718    4.3757045  
H   -0.8454472   -0.7142436    5.8013813  
H   -3.5178062   -2.9546422    5.2385129  
H   -3.8247440   -3.2102924    2.2519915  
H   -2.2566033   -1.8942483    1.1360343  
H    1.6567807    1.3889844    2.0042067  
