60

C   -5.5683788   -0.7143201   -6.6417493  
C   -6.4685347    0.0035663   -5.8888707  
C   -7.2872107    0.7322724   -6.8017546  
C   -6.8361176    0.4162622   -8.1088816  
N   -5.7903337   -0.4630371   -7.9755191  
C   -7.4165943    0.9563722   -9.2604524  
C   -8.4718633    1.8311976   -9.0893824  
O   -9.0755375    2.3873735  -10.1799145  
C   -8.9360168    2.1591439   -7.7933000  
O   -9.9940035    3.0445760   -7.7892948  
C   -8.3636636    1.6268996   -6.6567899  
H   -5.2752873   -0.8716357   -8.7343044  
H   -7.0773502    0.7196591  -10.2594927  
H   -9.7771696    2.9588995   -9.8417817  
H  -10.2462161    3.2129809   -6.8762598  
H   -8.7406388    1.8969059   -5.6772673  
H   -4.7846513   -1.3846088   -6.3328111  
C   -3.2941076    0.0012874   -2.9038237  
C   -3.9928928    0.0012414   -1.7448249  
C   -5.3903273    0.0018076   -2.1493935  
C   -5.3503939    0.0022632   -3.6275641  
N   -4.1243043    0.0018803   -4.0755528  
C   -6.5485048    0.0028439   -4.4210475  
C   -7.7326801    0.0025752   -3.7675465  
O   -8.9284333    0.0030580   -4.3809106  
C   -7.8059028    0.0017434   -2.2766415  
O   -8.9180025    0.0016635   -1.7489540  
C   -6.5627961    0.0012026   -1.4850541  
H   -3.6076324    0.0007787   -0.7395140  
H   -9.5790601    0.0026680   -3.6557643  
H   -6.6586515    0.0004893   -0.4075375  
C    0.0000000    0.0000000    0.0000000  
C    1.0541688   -0.0001722   -0.8560393  
C    0.5103135   -0.0000454   -2.1935957  
C   -0.9576374    0.0002459   -2.0455730  
N   -1.2018460   -0.0001391   -0.6915968  
C   -1.8348314    0.0008317   -3.0810607  
C   -1.2972851    0.0009737   -4.4314604  
O   -2.0050676    0.0014265   -5.4301315  
C    0.2542619    0.0004184   -4.6117571  
O    0.7184666    0.0002257   -5.7439121  
C    1.0974550    0.0000874   -3.4189130  
H    2.0940752   -0.0005483   -0.5817984  
H    2.1707276   -0.0000911   -3.5523671  
H   -2.1128194    0.0014912   -0.2706789  
C    3.3321173   -0.0004715    2.8079335  
C    2.6974184   -0.0000116    4.0032312  
C    1.2800439    0.0002118    3.6752840  
C    1.2395035   -0.0000644    2.1971295  
N    2.4394063   -0.0005460    1.6831036  
C    0.0000000    0.0000000    1.4700000  
C   -1.1468701   -0.0000635    2.1869543  
O   -2.3742202   -0.0000073    1.6395491  
C   -1.1388768   -0.0001607    3.6796354  
O   -2.2206231   -0.0000905    4.2670412  
C    0.1454524   -0.0001816    4.4024240  
H    3.1367986    0.0000651    4.9860947  
H   -2.9844344   -0.0001026    2.3990168  
H    0.1083576   -0.0003682    5.4835595  
H    4.3940039   -0.0007619    2.6198634  
