62

C    9.4235546    0.7129753   -5.3002659  
C   10.7679985    0.4628405   -5.4498448  
C   11.1399250   -0.4463985   -4.4156517  
C    9.9707477   -0.7179366   -3.6598624  
N    8.9473293    0.0035055   -4.2226717  
C    9.9655596   -1.5779577   -2.5575347  
C   11.1623903   -2.1749704   -2.2120602  
O   11.2137199   -3.0237918   -1.1444088  
C   12.3396915   -1.9163082   -2.9535941  
O   13.4506658   -2.5862295   -2.4842502  
C   12.3456037   -1.0677780   -4.0410163  
H   11.4028220    0.8847675   -6.2100875  
H    9.0778709   -1.7889541   -1.9772835  
H   12.1293163   -3.3248455   -1.0787110  
H   14.2016429   -2.3565605   -3.0400283  
H   13.2629594   -0.8888540   -4.5895788  
H    8.7669572    1.3424434   -5.8761203  
C    6.4260942    0.0030632   -4.5098896  
C    7.5522593    0.0028889   -3.7593360  
C    7.0848231    0.0018026   -2.3816561  
C    5.6099767    0.0015411   -2.4884881  
N    5.2179714    0.0021962   -3.7336068  
C    4.7630507    0.0004755   -1.3275395  
C    5.3622559   -0.0006825   -0.1149858  
O    4.6953711   -0.0017512    1.0517634  
C    6.8483159   -0.0008251    0.0256771  
O    7.3251002   -0.0017839    1.1605323  
C    7.6953854    0.0003258   -1.1803064  
H    5.3903098   -0.0024422    1.7345609  
H    8.7674559    0.0000662   -1.0357542  
H    6.3446838    0.0037693   -5.5852243  
C    3.3003548    0.0005276   -1.4738982  
C    2.5232817    0.0003497   -2.6090743  
C    1.1623204   -0.0001319   -2.1820101  
C    1.1711886    0.0000583   -0.7636140  
N    2.4852302   -0.0014919   -0.3662356  
C    0.0000000    0.0000000    0.0000000  
C   -1.2020379    0.0000520   -0.6806479  
O   -2.3759249    0.0003495    0.0157742  
C   -1.2314652   -0.0005112   -2.0955511  
O   -2.5054384   -0.0008036   -2.6250184  
C   -0.0764510   -0.0007271   -2.8495195  
H    2.8919962   -0.0005619   -3.6205297  
H    2.8036267    0.0088181    0.5858667  
H   -3.0835636    0.0000348   -0.6418823  
H   -2.4360038   -0.0011526   -3.5845925  
H   -0.1304090   -0.0013420   -3.9319089  
C    0.0000000    0.0000000    1.4700000  
C    1.0662921    0.0000102    2.3034270  
C    0.4961870   -0.0000064    3.6418889  
C   -0.9663858    0.0000850    3.4240247  
N   -1.2632773    0.0000084    2.1528658  
C   -1.8985362    0.0000517    4.5177257  
C   -1.3925775   -0.0004564    5.7720543  
O   -2.1456383   -0.0005410    6.8851312  
C    0.0786232   -0.0009323    6.0245000  
O    0.4683759   -0.0012588    7.1921102  
C    1.0143166   -0.0008442    4.8859032  
H    2.1107198   -0.0000632    2.0421868  
H   -2.9622183    0.0003270    4.3293377  
H   -1.5042274   -0.0009692    7.6184419  
H    2.0724152   -0.0013148    5.1109744  
