60

C    7.3906997   -3.3810184   -6.8238315  
C    8.2303600   -3.3706672   -7.9134788  
C    8.2407968   -2.0366762   -8.4184140  
C    7.3817611   -1.2710133   -7.5891095  
N    6.8806481   -2.1182897   -6.6322265  
C    7.1515730    0.0928542   -7.7932351  
C    7.8006327    0.6948219   -8.8536760  
O    7.6118703    2.0243421   -9.0981298  
C    8.6613318   -0.0523818   -9.6925447  
O    9.2329527    0.6900958  -10.7051261  
C    8.8886741   -1.3979644   -9.4919246  
H    8.7682172   -4.2203456   -8.2978604  
H    6.4979226    0.6819870   -7.1648528  
H    8.1490378    2.2386427   -9.8719445  
H    9.7990296    0.1110124  -11.2245713  
H    9.5531746   -1.9441599  -10.1511570  
H    7.1141707   -4.1895418   -6.1690178  
C    5.9676386   -2.1403205   -4.2647281  
C    5.9574583   -1.7327294   -5.5552103  
C    4.8270664   -0.8220463   -5.6520101  
C    4.2518649   -0.7958517   -4.2900108  
N    4.9163000   -1.5666196   -3.4724335  
C    3.1006054    0.0006263   -3.9654951  
C    2.5492758    0.7377403   -4.9564710  
O    1.4731211    1.5264225   -4.7955004  
C    3.1069012    0.7327485   -6.3410972  
O    2.5539556    1.4279022   -7.1932903  
C    4.2884406   -0.0925700   -6.6488934  
H    1.3195665    1.9186833   -5.6739679  
H    4.6618643   -0.0685368   -7.6638849  
H    6.6542206   -2.8225236   -3.7891473  
C    3.2798083    0.0005857   -1.4499652  
C    2.5571142    0.0005565   -2.5996556  
C    1.1637432    0.0001548   -2.2210361  
C    1.1336964   -0.0000200   -0.7459473  
N    2.4483512   -0.0001428   -0.3402723  
C    0.0000000    0.0000000    0.0000000  
C   -1.2757368   -0.0000186   -0.6964415  
O   -2.3524598   -0.0000639   -0.1142311  
C   -1.2676497   -0.0000872   -2.2584083  
O   -2.3355766   -0.0004101   -2.8557295  
C    0.0181558    0.0001758   -2.9516296  
H    0.0150788    0.0003319   -4.0331631  
H    4.3498547    0.0008612   -1.3200026  
H    2.7563626    0.0012823    0.6148059  
C    0.0000000    0.0000000    1.4700000  
C    1.0541688    0.0001722    2.3260392  
C    0.5103138    0.0000454    3.6635956  
C   -0.9576371   -0.0002459    3.5155732  
N   -1.2018458    0.0001392    2.1615969  
C   -1.8348311   -0.0008317    4.5510609  
C   -1.2972847   -0.0009736    5.9014604  
O   -2.0050672   -0.0014265    6.9001319  
C    0.2542623   -0.0004184    6.0817573  
O    0.7184670   -0.0002256    7.2139121  
C    1.0974552   -0.0000873    4.8889129  
H    2.0940752    0.0005483    2.0517982  
H   -2.9081052   -0.0011668    4.4207061  
H    2.1707277    0.0000911    5.0223670  
H   -2.1128194   -0.0014912    1.7406791  
