62

C    3.1193097   -0.7116939   -7.5332119  
C    2.1250966    0.0057042   -8.1571890  
C    2.7404382    0.7343102   -9.2178903  
C    4.1230757    0.4187449   -9.1922517  
N    4.3193402   -0.4602042   -8.1561315  
C    5.0390401    0.9588921  -10.1000183  
C    4.5502860    1.8332985  -11.0511813  
O    5.4010250    2.3894902  -11.9621738  
C    3.1741169    2.1607971  -11.0926551  
O    2.8434257    3.0458456  -12.0979795  
C    2.2699694    1.6285160  -10.1972675  
H    5.2001905   -0.8684528   -7.9003640  
H    6.0940870    0.7225171  -10.0856822  
H    4.8626310    2.9606890  -12.5253159  
H    1.8970727    3.2139623  -12.0560665  
H    1.2218293    1.8981748  -10.2535268  
H    3.0676097   -1.3817651   -6.6922065  
C   -0.1387078    0.0017019   -4.3179684  
C    0.8847664    0.0023479   -5.2034512  
C    0.2487278    0.0030110   -6.5118679  
C   -1.2011837    0.0025365   -6.2214542  
N   -1.4344175    0.0018494   -4.9370902  
C   -2.1866324    0.0030146   -7.2673880  
C   -1.7437530    0.0043146   -8.5453518  
O   -2.5512988    0.0048871   -9.6195541  
C   -0.2869457    0.0051945   -8.8707332  
O    0.0441892    0.0062433  -10.0563003  
C    0.7042766    0.0046368   -7.7801358  
H    1.9409056    0.0024620   -4.9945358  
H   -3.2396158    0.0024440   -7.0262743  
H   -1.9471941    0.0058394  -10.3838902  
C    3.3041272    0.0001178   -1.5420428  
C    2.5845372   -0.0004779   -0.3695851  
C    1.2040007   -0.0000007   -0.7283589  
C    1.1422375    0.0006038   -2.1454371  
N    2.4348641    0.0026111   -2.6077464  
C   -0.0655179    0.0008799   -2.8497918  
C   -1.2321766    0.0002325   -2.1101402  
O   -2.4392816    0.0001148   -2.7472523  
C   -1.1911209   -0.0000007   -0.6955266  
O   -2.4371527   -0.0002320   -0.1032863  
C    0.0000000    0.0000000    0.0000000  
H    3.0031533   -0.0000660    0.6222584  
H    2.7054632   -0.0071097   -3.5745261  
H   -3.1132986   -0.0000648   -2.0551788  
H   -2.3200284   -0.0004071    0.8516409  
H    4.3686626    0.0004072   -1.7024289  
C    0.8681109    0.7263879    2.2709268  
C    0.6127770    0.5096195    3.5869401  
C   -0.4920590   -0.4175482    3.6542670  
C   -0.8620974   -0.7254003    2.2596025  
N    0.0000000    0.0000000    1.4700000  
C   -1.8641242   -1.5660088    1.8976294  
C   -2.6293522   -2.2103885    2.9520183  
O   -3.5512764   -2.9839180    2.7283916  
C   -2.2549728   -1.8987399    4.4361073  
O   -2.8923672   -2.4351063    5.3323774  
C   -1.1543735   -0.9755647    4.7012123  
H    1.1382914    0.9492124    4.4159191  
H   -2.1192137   -1.7782617    0.8686553  
H   -0.9013378   -0.7652422    5.7314848  
H    1.6172880    1.3558399    1.8188057  
