66

C    4.9318660   -0.9170400   -7.2575092  
C    5.6642564   -0.4912822   -8.3413920  
C    5.4453433    0.9126698   -8.4662754  
C    4.5633984    1.2909245   -7.4217558  
N    4.2698008    0.1557271   -6.7077917  
C    4.1290422    2.6071361   -7.2381503  
C    4.5937058    3.5588926   -8.1249573  
O    4.2014928    4.8594041   -7.9913478  
C    5.4738966    3.2009756   -9.1737541  
O    5.8467868    4.2619382   -9.9729137  
C    5.9025998    1.9026479   -9.3556484  
H    6.2796214   -1.1159816   -8.9659474  
H    3.4568221    2.9018648   -6.4441370  
H    4.6345165    5.3496027   -8.7023066  
H    6.4406657    3.9346326  -10.6553969  
H    6.5768807    1.6585645  -10.1682055  
H    4.8282381   -1.9013141   -6.8339237  
C    4.6027285   -2.0944967   -2.9150972  
C    3.4411564   -1.6373420   -2.3369733  
C    2.8377888   -0.7405118   -3.2676951  
C    3.6836209   -0.6899841   -4.4052107  
N    4.7469285   -1.5221608   -4.1572673  
C    3.3988817    0.0972715   -5.5250053  
C    2.2389990    0.8469468   -5.4960813  
O    1.9125741    1.6330032   -6.5631223  
C    1.3824833    0.8101281   -4.3700960  
O    0.2670645    1.6125638   -4.4937163  
C    1.6628945    0.0339172   -3.2649299  
H    3.0744455   -1.9151389   -1.3636568  
H    5.5062373   -1.6979116   -4.7901521  
H    1.0776869    2.0643814   -6.3392001  
H   -0.2575672    1.5298017   -3.6915217  
H    5.3404961   -2.7824366   -2.5390700  
C    1.1243410    0.0100105   -0.7919003  
C    0.7474072    0.0234665   -2.1148542  
C   -0.6787384    0.0234379   -2.1414698  
C   -1.1201748    0.0098411   -0.7935547  
N    0.0000000    0.0000000    0.0000000  
C   -2.4730818    0.0063307   -0.4408240  
C   -3.3971962    0.0170429   -1.4675058  
O   -4.7313520    0.0145490   -1.1793468  
C   -2.9763654    0.0303020   -2.8186325  
O   -4.0166484    0.0394464   -3.7247625  
C   -1.6418567    0.0334992   -3.1673480  
H   -2.8160166   -0.0041569    0.5845966  
H   -5.1938823    0.0230023   -2.0274386  
H   -3.6464680    0.0481700   -4.6127343  
H   -1.3497475    0.0435647   -4.2109234  
H    2.1062466    0.0053162   -0.3505405  
C    0.8676693    0.7151171    2.2619005  
C    0.5875920    0.4624972    3.5848544  
C   -0.5048400   -0.4542819    3.6114698  
C   -0.8517165   -0.7276451    2.2635546  
N    0.0000000    0.0000000    1.4700000  
C   -1.8902865   -1.5946756    1.9108239  
C   -2.5912627   -2.1969500    2.9375057  
O   -3.6148162   -3.0527051    2.6493466  
C   -2.2603868   -1.9365747    4.2886322  
O   -3.0513550   -2.6123276    5.1947621  
C   -1.2361111   -1.0811317    4.6373480  
H    1.1060808    0.8876438    4.4271209  
H   -2.1597133   -1.8070987    0.8854031  
H   -3.9636755   -3.3565188    3.4974381  
H   -2.7621927   -2.3810384    6.0827341  
H   -1.0058879   -0.9010589    5.6809233  
H    1.6167816    1.3499334    1.8205408  
