60

C    3.3419779   -5.6137738   -8.7045941  
C    3.5570285   -5.1796392   -9.9921297  
C    3.2546833   -3.7858884  -10.0175406  
C    2.8573918   -3.4221924   -8.7053628  
N    2.9198173   -4.5559477   -7.9337934  
C    2.4862156   -2.1188251   -8.3614868  
C    2.5169489   -1.1651709   -9.3603745  
O    2.1646351    0.1231898   -9.0792777  
C    2.9101568   -1.5086653  -10.6757524  
O    2.8884593   -0.4476794  -11.5573304  
C    3.2762004   -2.7943265  -11.0157715  
H    3.8897127   -5.7923892  -10.8124049  
H    2.7045609   -4.6039578   -6.9543339  
H    2.2546210    0.6171388   -9.9046143  
H    3.1671055   -0.7648222  -12.4218416  
H    3.5726239   -3.0275170  -12.0317599  
H    3.4549533   -6.5945971   -8.2754320  
C    2.6001987   -2.1411819   -5.8266045  
C    2.0730546   -1.7332818   -7.0044479  
C    0.9991587   -0.8222833   -6.6393046  
C    1.0189898   -0.7962636   -5.1609560  
N    1.9554493   -1.5673975   -4.6788913  
C    0.0950446    0.0004351   -4.4015596  
C   -0.8074268    0.7379269   -5.0878437  
O   -1.7282260    1.5268491   -4.5083866  
C   -0.8524306    0.7331198   -6.5798599  
O   -1.7006933    1.4286187   -7.1383864  
C    0.1059495   -0.0924311   -7.3360990  
H   -2.2213257    1.9193582   -5.2513147  
H    0.0406004   -0.0682535   -8.4156246  
H    3.4197067   -2.8236756   -5.6666595  
C    3.3321173    0.0004713   -1.3379338  
C    2.6974181    0.0000116   -2.5332314  
C    1.2800438   -0.0002119   -2.2052841  
C    1.2395034    0.0000643   -0.7271299  
N    2.4394062    0.0005460   -0.2131038  
C    0.0000000    0.0000000    0.0000000  
C   -1.1468702    0.0000634   -0.7169543  
O   -2.3742203    0.0000074   -0.1695487  
C   -1.1388770    0.0001607   -2.2096355  
O   -2.2206234    0.0000905   -2.7970411  
C    0.1454522    0.0001815   -2.9324241  
H    3.1367984   -0.0000653   -3.5160950  
H   -2.9844346    0.0001026   -0.9290167  
H    4.3940038    0.0007618   -1.1498640  
C    0.8400945    0.7047457    2.2710304  
C    0.0000000    0.0000000    1.4700000  
C   -0.8844236   -0.7423113    2.3369512  
C   -0.4878984   -0.4098547    3.7186280  
N    0.5629682    0.4714286    3.6095011  
C   -1.0836927   -0.9095027    4.8308716  
C   -2.1891196   -1.8367527    4.6554461  
O   -2.7906899   -2.3413415    5.5944904  
C   -2.6257283   -2.2031529    3.2011665  
O   -3.5549479   -2.9829990    3.0410059  
C   -1.9068976   -1.5999348    2.0816745  
H   -0.7774656   -0.6525820    5.8354244  
H   -2.2155208   -1.8586617    1.0779135  
H    1.6384792    1.3747609    1.9961646  
H    1.0518368    0.8833920    4.3830260  
