62

C   -0.2867263   -2.9263360   -9.5589325  
C   -0.1119171   -2.4582463  -10.8406500  
C   -0.4125648   -1.0640591  -10.8193711  
C   -0.7673948   -0.7351046   -9.4860248  
N   -0.6824249   -1.8890589   -8.7472505  
C   -1.1252706    0.5589541   -9.0959918  
C   -1.1246476    1.5388467  -10.0696389  
O   -1.4656880    2.8195599   -9.7433279  
C   -0.7739663    1.2301752  -11.4055133  
O   -0.8218433    2.3142809  -12.2574318  
C   -0.4210687   -0.0462820  -11.7910605  
H    0.1935307   -3.0492128  -11.6870865  
H   -0.8665665   -1.9629561   -7.7630700  
H   -1.4011094    3.3352388  -10.5576797  
H   -0.5713117    2.0200403  -13.1384875  
H   -0.1574342   -0.2525812  -12.8217963  
H   -0.1618417   -3.9183358   -9.1598103  
C    0.5157023   -0.7055389   -5.2240925  
C   -0.2963293   -0.0005341   -4.3948471  
C   -1.2098550    0.7417636   -5.2310892  
C   -0.8609894    0.4090166   -6.6254931  
N    0.1928751   -0.4724048   -6.5523137  
C   -1.4945017    0.9085670   -7.7167385  
C   -2.5931304    1.8360108   -7.5036702  
O   -3.2264753    2.3405317   -8.4216212  
C   -2.9795613    2.2027195   -6.0353376  
O   -3.9026313    2.9827310   -5.8435417  
C   -2.2228516    1.5995820   -4.9410487  
H   -2.4968364    1.8585230   -3.9273399  
H    1.3229472   -1.3756269   -4.9766502  
H    0.6548727   -0.8845706   -7.3420756  
C    3.1301146   -0.0010313   -1.7028256  
C    2.5367765   -0.0002766   -0.4864669  
C    1.1089901    0.0001027   -0.7656184  
C    1.0177865   -0.0004150   -2.2415133  
N    2.1993571   -0.0011612   -2.7963824  
C   -0.2459219   -0.0002879   -2.9257116  
C   -1.3675326   -0.0000606   -2.1698520  
O   -2.6129318    0.0000865   -2.6748483  
C   -1.3083588    0.0000910   -0.6783229  
O   -2.3693264    0.0004206   -0.0541685  
C    0.0000000    0.0000000    0.0000000  
H    3.0096016   -0.0001007    0.4807518  
H   -3.1967444    0.0002093   -1.8949026  
H    4.1849275   -0.0015114   -1.9271979  
C    0.8576279    0.7185626    2.2703808  
C    0.0000000    0.0000000    1.4700000  
C   -0.8668858   -0.7285659    2.3373528  
C   -0.4876752   -0.4117774    3.6669281  
N    0.5635254    0.4678311    3.5902241  
C   -1.1297612   -0.9515493    4.7854808  
C   -2.1738724   -1.8268314    4.5576857  
O   -2.8357962   -2.3827064    5.6140350  
C   -2.5667212   -2.1555554    3.2384331  
O   -3.6226318   -3.0413663    3.1773122  
C   -1.9335634   -1.6236449    2.1344818  
H    1.0363952    0.8769718    4.3757045  
H   -0.8454472   -0.7142436    5.8013813  
H   -3.5178062   -2.9546422    5.2385129  
H   -3.8247440   -3.2102924    2.2519915  
H   -2.2566033   -1.8942483    1.1360343  
H    1.6567807    1.3889844    2.0042067  
