64

C    7.6701185   -1.0955475   -4.3075020  
C    8.9694717   -0.7220865   -4.5618154  
C    8.9564817    0.6805749   -4.8206048  
C    7.6098835    1.1119762   -4.7088297  
N    6.8548572    0.0082878   -4.3983054  
C    7.2234095    2.4418892   -4.9005544  
C    8.2144137    3.3529564   -5.2104675  
O    7.8924358    4.6646248   -5.4076190  
C    9.5635673    2.9417610   -5.3267364  
O   10.4319710    3.9667729   -5.6406928  
C    9.9455195    1.6298860   -5.1379957  
H    9.8216641   -1.3799339   -4.5619914  
H    6.1987737    2.7770469   -4.8169329  
H    8.7192865    5.1212602   -5.6102729  
H   11.3212280    3.6044681   -5.7003770  
H   10.9866368    1.3446451   -5.2338512  
H    7.2601924   -2.0622326   -4.0699332  
C    4.3488999   -2.1006741   -1.4732764  
C    3.1285972   -1.6364581   -1.8466928  
C    3.3412600   -0.7405811   -2.9589043  
C    4.7959155   -0.7207998   -3.2046231  
N    5.3494459   -1.5655069   -2.2702982  
C    5.4017639    0.0079521   -4.1759997  
C    4.5653395    0.8276895   -5.0367899  
O    5.0159503    1.5198388   -5.9402171  
C    3.0222821    0.8221878   -4.7944081  
O    2.3079746    1.5086269   -5.5126189  
C    2.4861704   -0.0045255   -3.7159919  
H    2.1869565   -1.8922662   -1.3944886  
H    4.6014745   -2.7885460   -0.6827525  
H    6.3291323   -1.7643315   -2.1823793  
C    0.0000000    0.0000000    0.0000000  
C    1.0521669   -0.0011848   -0.8862341  
C    0.4917221   -0.0011931   -2.1979130  
C   -0.9187427    0.0003100   -2.0478683  
N   -1.1833170   -0.0009472   -0.7007915  
C   -1.7951698    0.0010259   -3.1372090  
C   -1.2375835    0.0005161   -4.4010425  
O   -2.0474208    0.0015256   -5.4997580  
C    0.1673584   -0.0013557   -4.5711962  
O    0.5673529   -0.0020659   -5.8915551  
C    1.0325773   -0.0023359   -3.4969890  
H    2.0953059   -0.0030542   -0.6200560  
H   -2.0989777    0.0102265   -0.2891825  
H   -2.8710930    0.0020274   -3.0295514  
H   -1.4634881    0.0006427   -6.2693593  
H    1.5290715   -0.0033076   -5.9180042  
C    1.1188642   -0.0008217    2.2703808  
C    0.0000000    0.0000000    1.4700000  
C   -1.1323862   -0.0008904    2.3373528  
C   -0.6382662   -0.0019682    3.6669281  
N    0.7324016   -0.0038477    3.5902241  
C   -1.4770914   -0.0027325    4.7854808  
C   -2.8395474   -0.0020958    4.5576857  
O   -3.7039201   -0.0024443    5.6140350  
C   -3.3517868   -0.0013946    3.2384331  
O   -4.7300496   -0.0012389    3.1773122  
C   -2.5248543   -0.0009135    2.1344818  
H    1.3576314    0.0056174    4.3757045  
H   -1.1067570   -0.0036993    5.8013813  
H   -4.5940033   -0.0021850    5.2385129  
H   -4.9934601   -0.0007286    2.2519915  
H   -2.9462578   -0.0005617    1.1360343  
H    2.1619896   -0.0009344    2.0042067  
