62

C    0.8398284   -0.7093995   -5.2158384  
C    0.5541676   -0.4590037   -6.5380216  
C   -0.5449406    0.4498433   -6.5616409  
C   -0.8899496    0.7208841   -5.2127778  
N   -0.0307359   -0.0004648   -4.4215606  
C   -1.9337585    1.5804288   -4.8572000  
C   -2.6419924    2.1774670   -5.8819570  
O   -3.6708869    3.0258355   -5.5909922  
C   -2.3130868    1.9192974   -7.2339879  
O   -3.1114985    2.5891789   -8.1379466  
C   -1.2836442    1.0712374   -7.5855111  
H    1.0733205   -0.8805096   -7.3817075  
H   -2.2017960    1.7910445   -3.8310431  
H   -4.0243475    3.3269946   -6.4381244  
H   -2.8231978    2.3598597   -9.0267095  
H   -1.0550942    0.8926846   -8.6297159  
H    1.5947670   -1.3387152   -4.7765343  
C    3.2573667   -0.0002920   -1.5109386  
C    2.5379466   -0.0001709   -0.3591965  
C    1.1435040    0.0000332   -0.7338503  
C    1.1092604   -0.0000083   -2.2088478  
N    2.4227557    0.0001908   -2.6182616  
C   -0.0265538   -0.0002523   -2.9515663  
C   -1.3003040   -0.0002641   -2.2514979  
O   -2.3786787   -0.0004133   -2.8306426  
C   -1.2877728    0.0000312   -0.6895607  
O   -2.3539959    0.0003306   -0.0892033  
C    0.0000000    0.0000000    0.0000000  
H    2.9384091   -0.0000368    0.6389234  
H    2.7280486   -0.0013408   -3.5742120  
C    5.6506104    0.0006725   -0.6678807  
C    6.9152385    0.0024389   -1.1626410  
C    6.8040785    0.0027747   -2.6022517  
C    5.3606763    0.0010760   -2.9078309  
N    4.7161330   -0.0005435   -1.6923266  
C    4.8400797    0.0012364   -4.1611002  
C    5.7629691    0.0029880   -5.2839568  
O    5.3925540    0.0032086   -6.4506161  
C    7.2958234    0.0045524   -4.9836906  
O    8.0824528    0.0057265   -5.9209599  
C    7.7361581    0.0044960   -3.5908673  
H    7.8224236    0.0032149   -0.5850348  
H    3.7780218    0.0001015   -4.3634395  
H    8.7991583    0.0057897   -3.3914806  
H    5.3226857   -0.0000600    0.3589368  
C    2.5285572    2.1210227    2.9438989  
C    1.9331703    1.6216660    4.0790748  
C    0.8903039    0.7472258    3.6520102  
C    0.8972198    0.7527806    2.2336141  
N    1.9028376    1.5986179    1.8362361  
C    0.0000000    0.0000000    1.4700000  
C   -0.9207814   -0.7726952    2.1506477  
O   -1.8198395   -1.5274828    1.4542253  
C   -0.9436862   -0.7911793    3.5655508  
O   -1.9197945   -1.6098497    4.0950179  
C   -0.0590329   -0.0485852    4.3195194  
H    2.2150357    1.8593692    5.0905303  
H    2.1533708    1.7953814    0.8841339  
H   -2.3621246   -1.9821033    2.1118817  
H   -1.8668290   -1.5649508    5.0545920  
H   -0.1007624   -0.0827977    5.4019087  
H    3.3491200    2.8096064    2.8367138  
