64

C    5.6155833   -4.5962756   -2.0039524  
C    4.9822260   -3.4871663   -2.5150320  
C    5.9423581   -2.4325244   -2.5368795  
C    7.1538706   -2.9619086   -2.0231535  
N    6.9200853   -4.2773230   -1.7074843  
C    8.3196120   -2.2000386   -1.8990929  
C    8.2613581   -0.8797879   -2.3012407  
O    9.3708029   -0.0909103   -2.2021487  
C    7.0617148   -0.3332860   -2.8160287  
O    7.1643189    0.9955150   -3.1725447  
C    5.9112267   -1.0842300   -2.9384486  
H    3.9543046   -3.4433091   -2.8319669  
H    7.5996608   -4.9135472   -1.3314853  
H    9.2461060   -2.5975510   -1.5082036  
H    9.1162416    0.7808781   -2.5314648  
H    6.3117026    1.2865634   -3.5100952  
H    5.2396138   -5.5892398   -1.8261096  
C    3.4023864   -0.7104236   -3.0044223  
C    2.4861704   -0.0045255   -3.7159919  
C    3.2127702    0.7364520   -4.7199046  
C    4.6376135    0.4019566   -4.5335600  
N    4.6849732   -0.4791134   -3.4779264  
C    5.6494131    0.8999190   -5.2885433  
C    5.3126161    1.8273768   -6.3557478  
O    6.1522959    2.3305378   -7.0906404  
C    3.8100585    2.1959219   -6.5709210  
O    3.5143913    2.9759619   -7.4661196  
C    2.8092696    1.5944060   -5.6931667  
H    6.6879996    0.6415170   -5.1353248  
H    1.7711116    1.8546130   -5.8488735  
H    3.2485511   -1.3799907   -2.1738176  
C    0.0000000    0.0000000    0.0000000  
C    1.0521669   -0.0011848   -0.8862341  
C    0.4917221   -0.0011931   -2.1979130  
C   -0.9187427    0.0003100   -2.0478683  
N   -1.1833170   -0.0009472   -0.7007915  
C   -1.7951698    0.0010259   -3.1372090  
C   -1.2375835    0.0005161   -4.4010425  
O   -2.0474208    0.0015256   -5.4997580  
C    0.1673584   -0.0013557   -4.5711962  
O    0.5673529   -0.0020659   -5.8915551  
C    1.0325773   -0.0023359   -3.4969890  
H    2.0953059   -0.0030542   -0.6200560  
H   -2.0989777    0.0102265   -0.2891825  
H   -2.8710930    0.0020274   -3.0295514  
H   -1.4634881    0.0006427   -6.2693593  
H    1.5290715   -0.0033076   -5.9180042  
C    1.1188642   -0.0008217    2.2703808  
C    0.0000000    0.0000000    1.4700000  
C   -1.1323862   -0.0008904    2.3373528  
C   -0.6382662   -0.0019682    3.6669281  
N    0.7324016   -0.0038477    3.5902241  
C   -1.4770914   -0.0027325    4.7854808  
C   -2.8395474   -0.0020958    4.5576857  
O   -3.7039201   -0.0024443    5.6140350  
C   -3.3517868   -0.0013946    3.2384331  
O   -4.7300496   -0.0012389    3.1773122  
C   -2.5248543   -0.0009135    2.1344818  
H    1.3576314    0.0056174    4.3757045  
H   -1.1067570   -0.0036993    5.8013813  
H   -4.5940033   -0.0021850    5.2385129  
H   -4.9934601   -0.0007286    2.2519915  
H   -2.9462578   -0.0005617    1.1360343  
H    2.1619896   -0.0009344    2.0042067  
