64

C    2.3028659   -2.1229295   -5.9144804  
C    1.6515867   -1.6243323   -7.0188822  
C    0.6310826   -0.7498526   -6.5409108  
C    0.7086122   -0.7546012   -5.1246156  
N    1.7329559   -1.6000178   -4.7773286  
C   -0.1496426   -0.0015617   -4.3176960  
C   -1.1033424    0.7705682   -4.9520852  
O   -1.9667793    1.5255763   -4.2121832  
C   -1.1966698    0.7882450   -6.3641032  
O   -2.1981108    1.6064249   -6.8447691  
C   -0.3504881    0.0453951   -7.1607690  
H    1.8827960   -1.8625549   -8.0429840  
H    2.0306265   -1.7961922   -3.8387715  
H   -2.5412366    1.9797182   -4.8422768  
H   -2.1929774    1.5609919   -7.8057654  
H   -0.4460651    0.0789854   -8.2397568  
H    3.1279002   -2.8112923   -5.8478996  
C    3.3003539    0.0005272   -1.4738994  
C    2.5232807    0.0003493   -2.6090753  
C    1.1623195   -0.0001323   -2.1820106  
C    1.1711880    0.0000582   -0.7636143  
N    2.4852298   -0.0014922   -0.3662365  
C    0.0000000    0.0000000    0.0000000  
C   -1.2020387    0.0000519   -0.6806475  
O   -2.3759248    0.0003494    0.0157747  
C   -1.2314661   -0.0005114   -2.0955507  
O   -2.5054400   -0.0008040   -2.6250174  
C   -0.0764524   -0.0007276   -2.8495195  
H    2.8919944   -0.0005625   -3.6205309  
H    2.8036264    0.0088180    0.5858657  
H   -3.0835644    0.0000351   -0.6418811  
H   -2.4360058   -0.0011530   -3.5845915  
C    4.7630501    0.0004753   -1.3275413  
C    5.7197922    0.0015946   -2.2912414  
C    6.9965546    0.0009163   -1.6169176  
C    6.7031139   -0.0007307   -0.1709991  
N    5.3315510   -0.0005242   -0.0628099  
C    7.6461197   -0.0021663    0.8049320  
C    9.0433297   -0.0018575    0.4045069  
O    9.9665690   -0.0030019    1.2082027  
C    9.3772069    0.0001298   -1.1213787  
O   10.5499546    0.0007130   -1.4705555  
C    8.2742405    0.0012847   -2.0791448  
H    5.5504499    0.0029445   -3.3532844  
H    7.4095543   -0.0034918    1.8598938  
H    8.5138912    0.0024534   -3.1337968  
H    4.8220250   -0.0029843    0.8017274  
C    0.8576279    0.7185626    2.2703808  
C    0.0000000    0.0000000    1.4700000  
C   -0.8668858   -0.7285659    2.3373528  
C   -0.4876752   -0.4117774    3.6669281  
N    0.5635254    0.4678311    3.5902241  
C   -1.1297612   -0.9515493    4.7854808  
C   -2.1738724   -1.8268314    4.5576857  
O   -2.8357962   -2.3827064    5.6140350  
C   -2.5667212   -2.1555554    3.2384331  
O   -3.6226318   -3.0413663    3.1773122  
C   -1.9335634   -1.6236449    2.1344818  
H    1.0363952    0.8769718    4.3757045  
H   -0.8454472   -0.7142436    5.8013813  
H   -3.5178062   -2.9546422    5.2385129  
H   -3.8247440   -3.2102924    2.2519915  
H   -2.2566033   -1.8942483    1.1360343  
H    1.6567807    1.3889844    2.0042067  
