64

C    6.1017520   -0.7097767    3.1726186  
C    6.0136551   -0.4600953    4.5225689  
C    7.0636836    0.4491015    4.8472245  
C    7.7653245    0.7210819    3.6448713  
N    7.1564525   -0.0000676    2.6479581  
C    8.8662142    1.5811898    3.5896802  
C    9.2658972    2.1778362    4.7696988  
O   10.3347262    3.0267234    4.7725454  
C    8.5788669    1.9187301    5.9795212  
O    9.0983699    2.5883230    7.0681469  
C    7.4929000    1.0701141    6.0347603  
H    5.2831945   -0.8822894    5.1912785  
H    9.4053467    1.7925229    2.6765119  
H   10.4421109    3.3274814    5.6842901  
H    8.5774479    2.3583645    7.8436238  
H    6.9867743    0.8908464    6.9761305  
H    5.4965796   -1.3390737    2.5427694  
C    4.7795901    0.0008674   -1.0815733  
C    5.8357360    0.0020821   -1.9630614  
C    7.0295755    0.0025551   -1.1824546  
C    6.6358520    0.0012913    0.1802289  
N    5.2632773    0.0022383    0.2058247  
C    7.5556548    0.0010429    1.2332016  
C    8.8973612    0.0017825    0.9045662  
O    9.8380075    0.0012297    1.8936044  
C    9.3099220    0.0034215   -0.4491724  
O   10.6798046    0.0044076   -0.6127731  
C    8.4030669    0.0039404   -1.4884692  
H    5.7555553    0.0036728   -3.0366358  
H    4.6982915   -0.0088645    1.0356738  
H   10.6976506    0.0022045    1.4528345  
H   10.8735673    0.0054653   -1.5551419  
H    8.7489369    0.0053853   -2.5155283  
C    3.3321168    0.0004716   -1.3379341  
C    2.6974177    0.0000118   -2.5332316  
C    1.2800432   -0.0002116   -2.2052842  
C    1.2395033    0.0000644   -0.7271298  
N    2.4394059    0.0005460   -0.2131041  
C    0.0000000    0.0000000    0.0000000  
C   -1.1468704    0.0000635   -0.7169542  
O   -2.3742206    0.0000074   -0.1695488  
C   -1.1388774    0.0001608   -2.2096352  
O   -2.2206238    0.0000906   -2.7970409  
C    0.1454514    0.0001818   -2.9324241  
H    3.1367978   -0.0000649   -3.5160956  
H   -2.9844350    0.0001027   -0.9290164  
H    0.1083567    0.0003684   -4.0135594  
C    2.5285572    2.1210227    2.9438989  
C    1.9331703    1.6216660    4.0790748  
C    0.8903039    0.7472258    3.6520102  
C    0.8972198    0.7527806    2.2336141  
N    1.9028376    1.5986179    1.8362361  
C    0.0000000    0.0000000    1.4700000  
C   -0.9207814   -0.7726952    2.1506477  
O   -1.8198395   -1.5274828    1.4542253  
C   -0.9436862   -0.7911793    3.5655508  
O   -1.9197945   -1.6098497    4.0950179  
C   -0.0590329   -0.0485852    4.3195194  
H    2.2150357    1.8593692    5.0905303  
H    2.1533708    1.7953814    0.8841339  
H   -2.3621246   -1.9821033    2.1118817  
H   -1.8668290   -1.5649508    5.0545920  
H   -0.1007624   -0.0827977    5.4019087  
H    3.3491200    2.8096064    2.8367138  
