62

C   -1.1180411   -0.0429312   -0.8003805  
C    0.0000000    0.0000000    0.0000000  
C    1.1316170    0.0417291   -0.8673531  
C    0.6378871    0.0220551   -2.1969284  
N   -0.7317388   -0.0314100   -2.1202240  
C    1.4761466    0.0528618   -3.3154815  
C    2.8376136    0.1047761   -3.0876864  
O    3.7013860    0.1369597   -4.1440357  
C    3.3494642    0.1247556   -1.7684337  
O    4.7267435    0.1767841   -1.7073139  
C    2.5230994    0.0941136   -0.6644825  
H    1.1061107    0.0379576   -4.3313814  
H    4.5908292    0.1707182   -3.7685144  
H    4.9899496    0.1872078   -0.7819923  
H    2.9441917    0.1103253    0.3339650  
H   -2.1604229   -0.0823032   -0.5342061  
C   -1.6470538   -0.0520153   -3.2702993  
C   -3.0040410   -0.1018584   -3.2835855  
C   -3.4117972   -0.1011211   -4.6687097  
C   -2.1722425   -0.0463995   -5.4670208  
N   -1.1383075   -0.0182290   -4.5597859  
C   -2.1313506   -0.0298657   -6.8233976  
C   -3.3923450   -0.0683215   -7.5451653  
O   -3.4609496   -0.0572483   -8.7672424  
C   -4.7173462   -0.1262466   -6.7200458  
O   -5.7851350   -0.1586639   -7.3167344  
C   -4.6336719   -0.1396030   -5.2617341  
H   -3.6461039   -0.1351401   -2.4214594  
H   -5.5556642   -0.1800002   -4.6977991  
H   -0.1641243    0.0188939   -4.7977701  
C    1.6744477   -2.0401896   -6.1436953  
C    2.4217672   -1.5932239   -7.1797038  
C    1.5402523   -0.7059004   -7.9227305  
C    0.2651983   -0.7349113   -7.1744129  
N    0.3378506   -1.5152981   -6.1305225  
C   -0.8803795    0.0247885   -7.5934526  
C   -0.7576340    0.7794778   -8.7091193  
O   -1.7450985    1.5381515   -9.2144587  
C    0.5160657    0.8299765   -9.4858429  
O    0.5562011    1.5384083  -10.4916926  
C    1.6769860    0.0416283   -9.0356254  
H    3.4448909   -1.8356405   -7.4110643  
H   -1.3580935    1.9537998  -10.0060496  
H    2.5813260    0.1055147   -9.6258104  
H    1.9657751   -2.7209980   -5.3597299  
C    2.5311839    2.1237619    3.0120429  
C    1.9795631    1.6616747    1.8395852  
C    0.9223175    0.7739173    2.1983588  
C    0.8753926    0.7337535    3.6154372  
N    1.8668922    1.5631002    4.0777464  
C   -0.0496243   -0.0427881    4.3197917  
C   -0.9437528   -0.7922060    3.5801400  
O   -1.8685244   -1.5680278    4.2172520  
C   -0.9124520   -0.7656372    2.1655264  
O   -1.8671164   -1.5663939    1.5732860  
C    0.0000000    0.0000000    1.4700000  
H    2.3005065    1.9304404    0.8477417  
H    2.0679347    1.7444845    5.0445261  
H   -0.0904770   -0.0778569    5.3997470  
H   -2.3849669   -2.0011402    3.5251786  
H   -1.7775064   -1.4909735    0.6183591  
H    3.3468514    2.8078103    3.1724291  
