62

C   -1.1241246    0.0242023   -0.7919003  
C   -0.7477745   -0.0007158   -2.1148544  
C    0.6777119   -0.0440780   -2.1414697  
C    1.1193568   -0.0439182   -0.7935545  
N    0.0000000    0.0000000    0.0000000  
C    2.4717445   -0.0815720   -0.4408242  
C    3.3951054   -0.1203957   -1.4675057  
O    4.7287186   -0.1584950   -1.1793466  
C    2.9740661   -0.1208452   -2.8186319  
O    4.0135891   -0.1616361   -3.7247616  
C    1.6400780   -0.0834380   -3.1673480  
H    2.8148392   -0.0815231    0.5845968  
H    5.1907782   -0.1810170   -2.0274369  
H    3.6433148   -0.1590929   -4.6127335  
H    1.3477978   -0.0846114   -4.2109228  
H   -2.1054329    0.0587694   -0.3505408  
C   -1.6631559    0.0166921   -3.2649301  
C   -3.0204256    0.0581527   -3.2781787  
C   -3.4281187    0.0577944   -4.6633219  
C   -2.1882213    0.0123718   -5.4616841  
N   -1.1541403   -0.0104937   -4.5544664  
C   -2.1472035   -0.0018726   -6.8180830  
C   -3.4083987    0.0298619   -7.5398273  
O   -3.4769071    0.0203204   -8.7619222  
C   -4.7337456    0.0784006   -6.7146574  
O   -5.8016849    0.1057179   -7.3113317  
C   -4.6502000    0.0895224   -5.2563204  
H   -3.6627025    0.0860106   -2.4160198  
H   -1.2268911   -0.0354669   -7.3844805  
H   -0.1798273   -0.0440274   -4.7924527  
C   -5.8270159    2.2549918   -1.5926778  
C   -5.1463791    1.7614135   -2.6590686  
C   -6.0502044    0.8854314   -3.3665920  
C   -7.3223250    0.9093229   -2.6196459  
N   -7.1208871    1.7577471   -1.5554613  
C   -8.4317537    0.2096687   -2.9680091  
C   -8.3686299   -0.6226024   -4.1579146  
O   -9.3144734   -1.2908383   -4.5543255  
C   -7.0313950   -0.6631980   -4.9641157  
O   -6.9662240   -1.3605528   -5.9674649  
C   -5.9036945    0.1350198   -4.4897819  
H   -4.1273877    1.9852713   -2.9201399  
H   -9.3550128    0.2412940   -2.4063128  
H   -5.4921868    2.9399884   -0.8307332  
H   -7.8085706    1.9828029   -0.8601278  
C    2.5285572    2.1210227    2.9438989  
C    1.9331703    1.6216660    4.0790748  
C    0.8903039    0.7472258    3.6520102  
C    0.8972198    0.7527806    2.2336141  
N    1.9028376    1.5986179    1.8362361  
C    0.0000000    0.0000000    1.4700000  
C   -0.9207814   -0.7726952    2.1506477  
O   -1.8198395   -1.5274828    1.4542253  
C   -0.9436862   -0.7911793    3.5655508  
O   -1.9197945   -1.6098497    4.0950179  
C   -0.0590329   -0.0485852    4.3195194  
H    2.2150357    1.8593692    5.0905303  
H    2.1533708    1.7953814    0.8841339  
H   -2.3621246   -1.9821033    2.1118817  
H   -1.8668290   -1.5649508    5.0545920  
H   -0.1007624   -0.0827977    5.4019087  
H    3.3491200    2.8096064    2.8367138  
