62

C    0.8861231   -2.7784257   -9.6975578  
C    0.2033106   -1.8594579   -8.9348424  
C    0.3190510   -0.6010839   -9.5964316  
C    1.0898491   -0.8159376  -10.7675995  
N    1.4194654   -2.1482589  -10.7974596  
C    1.4042375    0.2093119  -11.6647127  
C    0.9316484    1.4744438  -11.3744047  
O    1.2090230    2.5120111  -12.2167421  
C    0.1612978    1.7088080  -10.2105960  
O   -0.2350723    3.0218164  -10.0614579  
C   -0.1490087    0.6979010   -9.3249882  
H   -0.3135750   -2.0699476   -8.0142370  
H    1.9551192   -2.5975797  -11.5179923  
H    1.9913879    0.0521079  -12.5589963  
H    0.7915679    3.2942182  -11.8331423  
H   -0.7498885    3.0940288   -9.2519195  
H    1.0361011   -3.8332520   -9.5432627  
C    0.1164994   -0.7216406   -5.1523579  
C    0.3272679   -0.5036909   -6.4760462  
C   -0.6879586    0.4235561   -6.9169128  
C   -1.5133668    0.7301676   -5.7330712  
N   -0.9736297    0.0040464   -4.6965763  
C   -2.5790078    1.5704696   -5.7354641  
C   -2.9370241    2.2158055   -6.9876225  
O   -3.8800054    2.9891510   -7.0926174  
C   -2.0769088    1.9054770   -8.2539971  
O   -2.3689453    2.4426558   -9.3139097  
C   -0.9518091    0.9825201   -8.1269043  
H    1.1050448   -0.9425518   -7.0752767  
H   -3.1711460    1.7818070   -4.8559078  
H    0.6657025   -1.3515097   -4.4715271  
C    1.1188642    0.0008222   -0.8003808  
C    0.0000000    0.0000000    0.0000000  
C   -1.1323862    0.0008899   -0.8673528  
C   -0.6382663    0.0019679   -2.1969280  
N    0.7324016    0.0038481   -2.1202242  
C   -1.4770914    0.0027318   -3.3154808  
C   -2.8395473    0.0020945   -3.0876857  
O   -3.7039201    0.0024425   -4.1440349  
C   -3.3517868    0.0013931   -1.7684331  
O   -4.7300497    0.0012366   -1.7073121  
C   -2.5248543    0.0009123   -0.6644817  
H    1.3576314   -0.0056167   -2.9057046  
H   -4.5940032    0.0021826   -3.7685128  
H   -4.9934602    0.0007259   -0.7819913  
H   -2.9462577    0.0005603    0.3339659  
H    2.1619895    0.0009355   -0.5342068  
C    0.8681109    0.7263879    2.2709268  
C    0.6127770    0.5096195    3.5869401  
C   -0.4920590   -0.4175482    3.6542670  
C   -0.8620974   -0.7254003    2.2596025  
N    0.0000000    0.0000000    1.4700000  
C   -1.8641242   -1.5660088    1.8976294  
C   -2.6293522   -2.2103885    2.9520183  
O   -3.5512764   -2.9839180    2.7283916  
C   -2.2549728   -1.8987399    4.4361073  
O   -2.8923672   -2.4351063    5.3323774  
C   -1.1543735   -0.9755647    4.7012123  
H    1.1382914    0.9492124    4.4159191  
H   -2.1192137   -1.7782617    0.8686553  
H   -0.9013378   -0.7652422    5.7314848  
H    1.6172880    1.3558399    1.8188057  
