64

C    4.0887587   -0.6249767   -9.0264988  
C    4.7877596   -0.5551397  -10.2092865  
C    4.7200523    0.7985875  -10.6536275  
C    3.9605211    1.5144274   -9.6931009  
N    3.5911235    0.6198066   -8.7195422  
C    3.6906958    2.8814258   -9.8084251  
C    4.1970897    3.5378070  -10.9133707  
O    3.9638193    4.8728714  -11.0752362  
C    4.9568745    2.8408321  -11.8827895  
O    5.3906356    3.6342741  -12.9247313  
C    5.2232257    1.4921971  -11.7698016  
H    5.2843328   -1.3788325  -10.6929590  
H    3.1123556    3.4327500   -9.0798876  
H    4.3990807    5.1281942  -11.8990213  
H    5.8953600    3.0869782  -13.5340966  
H    5.8080237    0.9852292  -12.5284019  
H    3.9045862   -1.4645305   -8.3782789  
C    3.9300173   -0.7219419   -4.5190963  
C    2.8699641   -0.0020530   -4.0185824  
C    2.3084605    0.7252949   -5.1095817  
C    3.0739999    0.4064308   -6.2603208  
N    4.0515279   -0.4731890   -5.8662070  
C    2.8029518    0.9445738   -7.5219559  
C    1.7395393    1.8203310   -7.6238414  
O    1.4306791    2.3746745   -8.8322797  
C    0.9641553    2.1511166   -6.4871016  
O   -0.0597851    3.0371494   -6.7513654  
C    1.2311452    1.6208135   -5.2421029  
H    4.7407071   -0.8835861   -6.4700173  
H    0.6670861    2.9472664   -8.6828506  
H   -0.5337231    3.2075123   -5.9316320  
H    0.6198238    1.8929802   -4.3896419  
H    4.6099247   -1.3920547   -4.0214685  
C    3.2573670   -0.0002921   -1.5109382  
C    2.5379468   -0.0001711   -0.3591962  
C    1.1435043    0.0000330   -0.7338498  
C    1.1092608   -0.0000085   -2.2088474  
N    2.4227562    0.0001906   -2.6182610  
C   -0.0265533   -0.0002525   -2.9515663  
C   -1.3003033   -0.0002641   -2.2514979  
O   -2.3786785   -0.0004132   -2.8306425  
C   -1.2877724    0.0000310   -0.6895608  
O   -2.3539956    0.0003306   -0.0892035  
C    0.0000000    0.0000000    0.0000000  
H    2.9384091   -0.0000370    0.6389240  
H   -0.0296290   -0.0004088   -4.0327231  
H    4.3270394   -0.0004767   -1.6439445  
C    2.5285572    2.1210227    2.9438989  
C    1.9331703    1.6216660    4.0790748  
C    0.8903039    0.7472258    3.6520102  
C    0.8972198    0.7527806    2.2336141  
N    1.9028376    1.5986179    1.8362361  
C    0.0000000    0.0000000    1.4700000  
C   -0.9207814   -0.7726952    2.1506477  
O   -1.8198395   -1.5274828    1.4542253  
C   -0.9436862   -0.7911793    3.5655508  
O   -1.9197945   -1.6098497    4.0950179  
C   -0.0590329   -0.0485852    4.3195194  
H    2.2150357    1.8593692    5.0905303  
H    2.1533708    1.7953814    0.8841339  
H   -2.3621246   -1.9821033    2.1118817  
H   -1.8668290   -1.5649508    5.0545920  
H   -0.1007624   -0.0827977    5.4019087  
H    3.3491200    2.8096064    2.8367138  
