62

C    3.2061689   -4.2329780   -1.4180860  
C    4.2988758   -4.8952430   -1.9278543  
C    4.4145222   -4.5148676   -3.2977228  
C    3.3558729   -3.6107897   -3.5694401  
N    2.6402305   -3.4631648   -2.4072519  
C    3.1607235   -3.0305526   -4.8264327  
C    4.0506633   -3.3689102   -5.8272815  
O    3.9066038   -2.8310400   -7.0734581  
C    5.1130474   -4.2694095   -5.5757695  
O    5.9131692   -4.5058809   -6.6745090  
C    5.3060115   -4.8424166   -4.3360308  
H    4.9337836   -5.5703967   -1.3800825  
H    1.8359791   -2.8733777   -2.2918737  
H    4.6216031   -3.1943814   -7.6119966  
H    6.6051914   -5.1236844   -6.4194990  
H    6.1286434   -5.5289279   -4.1733750  
H    2.7848653   -4.2499406   -0.4275439  
C    2.0663726   -2.0930015   -5.1167679  
C    1.0931320   -1.6308350   -4.2901598  
C    0.2706806   -0.7345477   -5.0680275  
C    0.8486728   -0.7122919   -6.4253121  
N    1.9347259   -1.5561040   -6.3884400  
C    0.3570939    0.0175295   -7.4584690  
C   -0.8196668    0.8358896   -7.2175208  
O   -1.3377664    1.5288425   -8.0833667  
C   -1.4481804    0.8277638   -5.7875872  
O   -2.4388906    1.5130257   -5.5727150  
C   -0.8287665    0.0000939   -4.7555305  
H    0.9660025   -1.8882581   -3.2537310  
H    0.7960886    0.0195937   -8.4464917  
H    2.5375329   -1.7532734   -7.1661261  
C    1.0672569   -0.0000698   -0.8321910  
C    0.0000000    0.0000000    0.0000000  
C   -1.1601223   -0.0000736   -0.8778472  
C   -0.5938729   -0.0000768   -2.2438435  
N    0.7113367   -0.0001553   -2.2234123  
C   -1.4286985   -0.0001877   -3.4135239  
C   -2.7683113   -0.0006798   -3.2270524  
O   -3.6653902   -0.0008302   -4.2276970  
C   -3.3702024   -0.0010610   -1.8610774  
O   -4.5974910   -0.0013779   -1.7662963  
C   -2.4926825   -0.0008943   -0.6770658  
H   -4.5324245   -0.0012258   -3.7833954  
H   -2.9677772   -0.0012974    0.2947961  
H    2.1134391   -0.0000547   -0.5705119  
C    2.5285572    2.1210227    2.9438989  
C    1.9331703    1.6216660    4.0790748  
C    0.8903039    0.7472258    3.6520102  
C    0.8972198    0.7527806    2.2336141  
N    1.9028376    1.5986179    1.8362361  
C    0.0000000    0.0000000    1.4700000  
C   -0.9207814   -0.7726952    2.1506477  
O   -1.8198395   -1.5274828    1.4542253  
C   -0.9436862   -0.7911793    3.5655508  
O   -1.9197945   -1.6098497    4.0950179  
C   -0.0590329   -0.0485852    4.3195194  
H    2.2150357    1.8593692    5.0905303  
H    2.1533708    1.7953814    0.8841339  
H   -2.3621246   -1.9821033    2.1118817  
H   -1.8668290   -1.5649508    5.0545920  
H   -0.1007624   -0.0827977    5.4019087  
H    3.3491200    2.8096064    2.8367138  
