62

C   -0.4435916   -0.6137467   -9.5284854  
C   -0.1836574   -0.5416406  -10.8774493  
C   -0.3969199    0.8127726  -11.2707478  
C   -0.7886263    1.5266731  -10.1093530  
N   -0.8087169    0.6302883   -9.0697818  
C   -1.0814205    2.8937223  -10.1247704  
C   -0.9765908    3.5521495  -11.3345895  
O   -1.2506380    4.8873588  -11.4061922  
C   -0.5876382    2.8571287  -12.5044099  
O   -0.5299754    3.6524779  -13.6302146  
C   -0.2989005    1.5084448  -12.4899923  
H    0.1209988   -1.3642992  -11.5014766  
H   -1.3806417    3.4435743   -9.2431070  
H   -1.1181491    5.1442360  -12.3279984  
H   -0.2599447    3.1064240  -14.3748715  
H   -0.0037174    1.0030011  -13.4020622  
H   -0.3988132   -1.4544439   -8.8575301  
C    0.9246157   -0.7181117   -5.2309988  
C    0.0950446    0.0004351   -4.4015596  
C   -0.8009655    0.7292742   -5.2385542  
C   -0.4676172    0.4126609   -6.5804038  
N    0.5854649   -0.4671107   -6.5399388  
C   -1.1476017    0.9527173   -7.6761905  
C   -2.1831574    1.8281088   -7.4125793  
O   -2.8808328    2.3842604   -8.4455167  
C   -2.5304882    2.1566613   -6.0805765  
O   -3.5835506    3.0426121   -5.9831350  
C   -1.8599262    1.6244700   -4.9990749  
H    1.0310611   -0.8761833   -7.3412410  
H   -3.5494798    2.9562284   -8.0467324  
H   -3.7537890    3.2114073   -5.0513996  
H   -2.1484983    1.8949472   -3.9900921  
H    1.7323265   -1.3886932   -4.9924974  
C    3.3321173    0.0004713   -1.3379338  
C    2.6974181    0.0000116   -2.5332314  
C    1.2800438   -0.0002119   -2.2052841  
C    1.2395034    0.0000643   -0.7271299  
N    2.4394062    0.0005460   -0.2131038  
C    0.0000000    0.0000000    0.0000000  
C   -1.1468702    0.0000634   -0.7169543  
O   -2.3742203    0.0000074   -0.1695487  
C   -1.1388770    0.0001607   -2.2096355  
O   -2.2206234    0.0000905   -2.7970411  
C    0.1454522    0.0001815   -2.9324241  
H    3.1367984   -0.0000653   -3.5160950  
H   -2.9844346    0.0001026   -0.9290167  
H    4.3940038    0.0007618   -1.1498640  
C    0.8400945    0.7047457    2.2710304  
C    0.0000000    0.0000000    1.4700000  
C   -0.8844236   -0.7423113    2.3369512  
C   -0.4878984   -0.4098547    3.7186280  
N    0.5629682    0.4714286    3.6095011  
C   -1.0836927   -0.9095027    4.8308716  
C   -2.1891196   -1.8367527    4.6554461  
O   -2.7906899   -2.3413415    5.5944904  
C   -2.6257283   -2.2031529    3.2011665  
O   -3.5549479   -2.9829990    3.0410059  
C   -1.9068976   -1.5999348    2.0816745  
H   -0.7774656   -0.6525820    5.8354244  
H   -2.2155208   -1.8586617    1.0779135  
H    1.6384792    1.3747609    1.9961646  
H    1.0518368    0.8833920    4.3830260  
