62

C    3.2853312   -4.2576902   -1.9061039  
C    2.5149469   -3.4450659   -2.7052392  
C    3.0334848   -3.5512081   -4.0297966  
C    4.1289879   -4.4506616   -3.9770597  
N    4.2557308   -4.8594165   -2.6726543  
C    4.8813050   -4.7931176   -5.1046827  
C    4.5209657   -4.2173207   -6.3075088  
O    5.2214750   -4.5171720   -7.4399355  
C    3.4312340   -3.3173173   -6.3802809  
O    3.1979530   -2.8283316   -7.6490666  
C    2.6887807   -2.9788121   -5.2682094  
H    1.6824216   -2.8482507   -2.3740201  
H    4.9416306   -5.5085974   -2.3319427  
H    5.7174719   -5.4778797   -5.0710992  
H    4.8108506   -4.0152099   -8.1559570  
H    2.4465387   -2.2287509   -7.6105478  
H    3.2202754   -4.4545751   -0.8497123  
C    1.5640650   -2.0395931   -5.3856081  
C    0.7230581   -1.5862621   -4.4205824  
C   -0.2043668   -0.6833976   -5.0605465  
C    0.1679199   -0.6476535   -6.4877525  
N    1.2472254   -1.4907308   -6.6189379  
C   -0.4698111    0.0915042   -7.4304336  
C   -1.5980276    0.9063962   -7.0113711  
O   -2.2374227    1.6070674   -7.7850208  
C   -2.0096059    0.8840406   -5.5047495  
O   -2.9576827    1.5662686   -5.1400902  
C   -1.2456329    0.0471727   -4.5828766  
H    0.7494882   -1.8536710   -3.3792337  
H   -0.1807621    0.1034055   -8.4721727  
H    1.7291266   -1.6799002   -7.4786088  
C    1.1243410    0.0099923   -0.7919003  
C    0.7474076    0.0234544   -2.1148543  
C   -0.6787381    0.0234490   -2.1414700  
C   -1.1201745    0.0098592   -0.7935546  
N    0.0000000    0.0000000    0.0000000  
C   -2.4730816    0.0063709   -0.4408240  
C   -3.3971958    0.0170982   -1.4675058  
O   -4.7313517    0.0146259   -1.1793471  
C   -2.9763648    0.0303504   -2.8186324  
O   -4.0166480    0.0395118   -3.7247624  
C   -1.6418562    0.0335260   -3.1673481  
H    1.4178717    0.0310972   -2.9571209  
H   -2.8160166   -0.0041111    0.5845966  
H   -5.1938818    0.0230867   -2.0274384  
H   -3.6464675    0.0482293   -4.6127343  
H    2.1062467    0.0052819   -0.3505407  
C    0.0000000    0.0000000    1.4700000  
C    1.0662921    0.0000102    2.3034270  
C    0.4961870   -0.0000064    3.6418889  
C   -0.9663858    0.0000850    3.4240247  
N   -1.2632773    0.0000084    2.1528658  
C   -1.8985362    0.0000517    4.5177257  
C   -1.3925775   -0.0004564    5.7720543  
O   -2.1456383   -0.0005410    6.8851312  
C    0.0786232   -0.0009323    6.0245000  
O    0.4683759   -0.0012588    7.1921102  
C    1.0143166   -0.0008442    4.8859032  
H    2.1107198   -0.0000632    2.0421868  
H   -2.9622183    0.0003270    4.3293377  
H   -1.5042274   -0.0009692    7.6184419  
H    2.0724152   -0.0013148    5.1109744  
