64

C    2.8381504   -3.0666529   -4.4611576  
C    3.9010999   -3.7438329   -5.0125482  
C    4.4934820   -4.5115679   -3.9664768  
C    3.7425774   -4.2606606   -2.7895683  
N    2.7462676   -3.3776627   -3.1246770  
C    4.0439646   -4.8530392   -1.5595101  
C    5.1228569   -5.7146332   -1.5168238  
O    5.4609621   -6.3205865   -0.3414430  
C    5.8844860   -5.9773707   -2.6803130  
O    6.9272900   -6.8570348   -2.4751410  
C    5.5878993   -5.3931191   -3.8940732  
H    4.2120226   -3.6901198   -6.0418372  
H    2.0486201   -3.0237304   -2.4953907  
H    3.4756648   -4.6658340   -0.6588479  
H    6.2313647   -6.8720295   -0.5302706  
H    7.3901668   -6.9799383   -3.3095529  
H    6.1895176   -5.6134266   -4.7681432  
C    1.8836765   -2.1362878   -5.0810771  
C    1.8358577   -1.7275852   -6.3703619  
C    0.7030357   -0.8169581   -6.4333933  
C    0.1677631   -0.7920094   -5.0551901  
N    0.8558147   -1.5634002   -4.2579886  
C   -0.9736297    0.0040464   -4.6965763  
C   -1.5536731    0.7419470   -5.6704281  
O   -2.6247580    1.5303580   -5.4774857  
C   -1.0366304    0.7382185   -7.0707186  
O   -1.6142412    1.4340391   -7.9058358  
C    0.1355193   -0.0866884   -7.4135273  
H    2.4887432   -2.0091995   -7.1787617  
H   -2.8038829    1.9233573   -6.3507659  
H    0.4792065   -0.0617341   -8.4389471  
C    1.1188642    0.0008222   -0.8003808  
C    0.0000000    0.0000000    0.0000000  
C   -1.1323862    0.0008899   -0.8673528  
C   -0.6382663    0.0019679   -2.1969280  
N    0.7324016    0.0038481   -2.1202242  
C   -1.4770914    0.0027318   -3.3154808  
C   -2.8395473    0.0020945   -3.0876857  
O   -3.7039201    0.0024425   -4.1440349  
C   -3.3517868    0.0013931   -1.7684331  
O   -4.7300497    0.0012366   -1.7073121  
C   -2.5248543    0.0009123   -0.6644817  
H    1.3576314   -0.0056167   -2.9057046  
H   -4.5940032    0.0021826   -3.7685128  
H   -4.9934602    0.0007259   -0.7819913  
H   -2.9462577    0.0005603    0.3339659  
H    2.1619895    0.0009355   -0.5342068  
C    0.8576279    0.7185626    2.2703808  
C    0.0000000    0.0000000    1.4700000  
C   -0.8668858   -0.7285659    2.3373528  
C   -0.4876752   -0.4117774    3.6669281  
N    0.5635254    0.4678311    3.5902241  
C   -1.1297612   -0.9515493    4.7854808  
C   -2.1738724   -1.8268314    4.5576857  
O   -2.8357962   -2.3827064    5.6140350  
C   -2.5667212   -2.1555554    3.2384331  
O   -3.6226318   -3.0413663    3.1773122  
C   -1.9335634   -1.6236449    2.1344818  
H    1.0363952    0.8769718    4.3757045  
H   -0.8454472   -0.7142436    5.8013813  
H   -3.5178062   -2.9546422    5.2385129  
H   -3.8247440   -3.2102924    2.2519915  
H   -2.2566033   -1.8942483    1.1360343  
H    1.6567807    1.3889844    2.0042067  
