60

C    6.8261722   -3.2541445   -7.3601426  
C    6.3382017   -2.0009474   -7.0705740  
C    6.7722938   -1.1332691   -8.1161832  
C    7.5275476   -1.9199243   -9.0232066  
N    7.5421059   -3.2022313   -8.5332121  
C    8.1121437   -1.3909721  -10.1778696  
C    7.9307597   -0.0434089  -10.4214905  
O    8.4796191    0.5245785  -11.5346653  
C    7.1807890    0.7580544   -9.5281719  
O    7.0912310    2.0808725   -9.9095838  
C    6.6040140    0.2369578   -8.3887356  
H    7.9933432   -3.9854166   -8.9702330  
H    8.6890445   -1.9851636  -10.8730822  
H    8.2360311    1.4591621  -11.5126970  
H    6.5690601    2.5520111   -9.2531011  
H    6.0352021    0.8755771   -7.7230811  
H    6.7213748   -4.1806149   -6.8219709  
C    5.7035978   -2.1123453   -4.6323633  
C    5.5262381   -1.6495157   -5.8966447  
C    4.3945376   -0.7534731   -5.8620423  
C    3.9237596   -0.7320391   -4.4639367  
N    4.7591257   -1.5766814   -3.7699387  
C    2.8699641   -0.0020530   -4.0185824  
C    2.1513544    0.8170175   -4.9804865  
O    1.1888859    1.5100765   -4.6777909  
C    2.6323972    0.8093817   -6.4665363  
O    2.0350150    1.4947732   -7.2854586  
C    3.7812680   -0.0180953   -6.8260217  
H    4.1081467   -0.0176483   -7.8569791  
H    6.4446785   -2.7998489   -4.2581604  
H    4.6940932   -1.7721469   -2.7877926  
C    3.2573670   -0.0002921   -1.5109382  
C    2.5379468   -0.0001711   -0.3591962  
C    1.1435043    0.0000330   -0.7338498  
C    1.1092608   -0.0000085   -2.2088474  
N    2.4227562    0.0001906   -2.6182610  
C   -0.0265533   -0.0002525   -2.9515663  
C   -1.3003033   -0.0002641   -2.2514979  
O   -2.3786785   -0.0004132   -2.8306425  
C   -1.2877724    0.0000310   -0.6895608  
O   -2.3539956    0.0003306   -0.0892035  
C    0.0000000    0.0000000    0.0000000  
H    2.9384091   -0.0000370    0.6389240  
H   -0.0296290   -0.0004088   -4.0327231  
H    4.3270394   -0.0004767   -1.6439445  
C    2.5128556    2.1077716    2.9199648  
C    1.9592212    1.6432552    4.0696553  
C    0.8915788    0.7479214    3.6910360  
C    0.8684491    0.7287414    2.2159470  
N    1.8754542    1.5738793    1.8102719  
C    0.0000000    0.0000000    1.4700000  
C   -0.9772830   -0.8200135    2.1664417  
O   -1.8021297   -1.5120829    1.5842315  
C   -0.9711318   -0.8147624    3.7284083  
O   -1.7894187   -1.5009653    4.3257297  
C    0.0140216    0.0115358    4.4216297  
H    2.2638494    1.8988021    5.0689105  
H    0.0117648    0.0094386    5.5031631  
H    3.3327358    2.7953732    2.7900019  
H    2.1123206    1.7707734    0.8551938  
