62

C    8.4731382   -3.2723105   -4.0258326  
C    7.2947247   -2.5644368   -3.9736453  
C    7.6123893   -1.2049220   -4.2658934  
C    9.0116408   -1.1433672   -4.4900185  
N    9.5036476   -2.4155226   -4.3345614  
C    9.6755293    0.0461483   -4.8048080  
C    8.9129467    1.1943894   -4.8952866  
O    9.5103238    2.3831652   -5.2001906  
C    7.5156312    1.1532891   -4.6747500  
O    6.8966978    2.3798194   -4.8008026  
C    6.8600629   -0.0197958   -4.3638982  
H    6.3255609   -2.9769783   -3.7511053  
H   10.4651556   -2.6832178   -4.4432973  
H   10.7417392    0.0997471   -4.9766433  
H    8.8080677    3.0464570   -5.2122840  
H    5.9558459    2.2640391   -4.6365000  
H    8.6603079   -4.3203246   -3.8658519  
C    4.2912319   -2.1143350   -1.4466315  
C    5.3462901   -1.6515578   -2.1654949  
C    4.8141498   -0.7557117   -3.1650556  
C    3.3521069   -0.7343358   -2.9681712  
N    3.0997459   -1.5788207   -1.9117393  
C    2.4861704   -0.0045255   -3.7159919  
C    3.0304433    0.8144035   -4.7863458  
O    2.3328586    1.5073002   -5.5154346  
C    4.5758853    0.8068262   -5.0129662  
O    5.0456355    1.4921000   -5.9112952  
C    5.4069285   -0.0204567   -4.1418622  
H    6.3794019   -1.9085783   -2.0130682  
H    4.2838594   -2.8017033   -0.6163541  
H    2.1903280   -1.7742810   -1.5351739  
C    0.0000000    0.0000000    0.0000000  
C    1.0521669   -0.0011848   -0.8862341  
C    0.4917221   -0.0011931   -2.1979130  
C   -0.9187427    0.0003100   -2.0478683  
N   -1.1833170   -0.0009472   -0.7007915  
C   -1.7951698    0.0010259   -3.1372090  
C   -1.2375835    0.0005161   -4.4010425  
O   -2.0474208    0.0015256   -5.4997580  
C    0.1673584   -0.0013557   -4.5711962  
O    0.5673529   -0.0020659   -5.8915551  
C    1.0325773   -0.0023359   -3.4969890  
H    2.0953059   -0.0030542   -0.6200560  
H   -2.0989777    0.0102265   -0.2891825  
H   -2.8710930    0.0020274   -3.0295514  
H   -1.4634881    0.0006427   -6.2693593  
H    1.5290715   -0.0033076   -5.9180042  
C    0.0000000    0.0000000    1.4700000  
C    1.0541688    0.0001722    2.3260392  
C    0.5103138    0.0000454    3.6635956  
C   -0.9576371   -0.0002459    3.5155732  
N   -1.2018458    0.0001392    2.1615969  
C   -1.8348311   -0.0008317    4.5510609  
C   -1.2972847   -0.0009736    5.9014604  
O   -2.0050672   -0.0014265    6.9001319  
C    0.2542623   -0.0004184    6.0817573  
O    0.7184670   -0.0002256    7.2139121  
C    1.0974552   -0.0000873    4.8889129  
H    2.0940752    0.0005483    2.0517982  
H   -2.9081052   -0.0011668    4.4207061  
H    2.1707277    0.0000911    5.0223670  
H   -2.1128194   -0.0014912    1.7406791  
