60

C    5.9583683   -3.2215264   -7.5080330  
C    5.1157571   -2.5160370   -6.6805315  
C    5.1574024   -1.1552449   -7.1061023  
C    6.0497904   -1.0904891   -8.2067284  
N    6.5197877   -2.3620535   -8.4231638  
C    6.3341922    0.1010205   -8.8806785  
C    5.7060624    1.2480021   -8.4356348  
O    5.9475332    2.4386218   -9.0578328  
C    4.8127236    1.2037128   -7.3389124  
O    4.2678299    2.4293407   -7.0160025  
C    4.5318911    0.0286585   -6.6733988  
H    4.5425434   -2.9309490   -5.8691951  
H    7.1631820   -2.6276521   -9.1466830  
H    7.0134747    0.1570610   -9.7201038  
H    5.4165909    3.1005912   -8.5961381  
H    3.6768612    2.3113772   -6.2660396  
H    6.2044086   -4.2695454   -7.5169676  
C    4.6190967   -2.0899187   -2.8279649  
C    3.4606683   -1.6280057   -2.2906061  
C    2.8761401   -0.7301694   -3.2586205  
C    3.7955634   -0.7067285   -4.4122676  
N    4.8319965   -1.5514033   -4.0878914  
C    3.5979916    0.0246978   -5.5381832  
C    2.3999527    0.8436571   -5.6190796  
O    2.1321349    1.5380348   -6.5908895  
C    1.4124499    0.8342975   -4.4088912  
O    0.4006155    1.5200500   -4.4654210  
C    1.7334695    0.0049281   -3.2500363  
H    3.0613134   -1.8865707   -1.3260992  
H    5.3352943   -2.7782579   -2.4094676  
H    5.6204864   -1.7480985   -4.6766544  
C    1.1319246    0.0015678   -0.8009268  
C    0.7969914    0.0034958   -2.1169401  
C   -0.6453340    0.0035696   -2.1842669  
C   -1.1266832    0.0015410   -0.7896025  
N    0.0000000    0.0000000    0.0000000  
C   -2.4346129    0.0013913   -0.4276292  
C   -3.4350111    0.0031335   -1.4820181  
O   -4.6384614    0.0030875   -1.2583914  
C   -2.9478961    0.0050442   -2.9661074  
O   -3.7809382    0.0062135   -3.8623773  
C   -1.5113825    0.0053055   -3.2312122  
H   -2.7664565    0.0000174    0.6013448  
H   -1.1823533    0.0068381   -4.2614848  
H    2.1104316    0.0009435   -0.3488059  
C    2.3971438    2.0127888    3.1728260  
C    1.9431056    1.6308205    1.9564670  
C    0.8496017    0.7127664    2.2356185  
C    0.7794028    0.6545384    3.7115134  
N    1.6840587    1.4146091    4.2663826  
C   -0.1885723   -0.1578550    4.3957118  
C   -1.0476298   -0.8789867    3.6398520  
O   -2.0015663   -1.6796266    4.1448486  
C   -1.0022026   -0.8410666    2.1483229  
O   -1.8147390   -1.5232959    1.5241687  
C    0.0000000    0.0000000    1.4700000  
H    2.3054237    1.9346118    0.9892483  
H   -0.2170646   -0.1815267    5.4753125  
H   -2.4487139   -2.0549881    3.3649027  
H    3.2048689    2.6911772    3.3971983  
