64

C    1.1188647    0.0008220   -0.8003810  
C    0.0000000    0.0000000    0.0000000  
C   -1.1323857    0.0008906   -0.8673531  
C   -0.6382656    0.0019688   -2.1969283  
N    0.7324022    0.0038483   -2.1202241  
C   -1.4770910    0.0027330   -3.3154815  
C   -2.8395466    0.0020966   -3.0876864  
O   -3.7039193    0.0024451   -4.1440354  
C   -3.3517866    0.0013950   -1.7684337  
O   -4.7300490    0.0012388   -1.7073133  
C   -2.5248538    0.0009137   -0.6644825  
H   -1.1067557    0.0037002   -4.3313812  
H   -4.5940023    0.0021860   -3.7685143  
H   -4.9934602    0.0007284   -0.7819922  
H   -2.9462578    0.0005614    0.3339651  
H    2.1619898    0.0009347   -0.5342068  
C    4.5154620   -2.1146769   -2.8156723  
C    4.7985775   -1.6646945   -4.0652469  
C    3.7280659   -0.7729181   -4.4441602  
C    2.7913710   -0.7399863   -3.3047267  
N    3.3260543   -1.5745778   -2.3505461  
C    1.6478443   -0.0100099   -3.2703000  
C    1.3174733    0.7969146   -4.4331686  
O    0.3100037    1.4889664   -4.4992699  
C    2.2949966    0.7769793   -5.6513050  
O    2.0272083    1.4520889   -6.6360777  
C    3.4969333   -0.0492780   -5.5706859  
H    5.6590342   -1.9276282   -4.6543936  
H    4.1686932   -0.0573917   -6.4182684  
H    2.9164729   -1.7608871   -1.4535629  
C    6.4674154   -3.6456815   -2.3132878  
C    5.2792734   -3.0432592   -1.9699613  
C    4.9474854   -3.4944818   -0.6581248  
C    5.9790251   -4.3776734   -0.2484598  
N    6.8847952   -4.4485156   -1.2776236  
C    5.9805546   -5.0127189    0.9971338  
C    4.9216123   -4.7511916    1.8447318  
O    4.8733873   -5.3444269    3.0730478  
C    3.8827337   -3.8732529    1.4538698  
O    2.8992373   -3.7160233    2.4085203  
C    3.8804358   -3.2466269    0.2251061  
H    7.7294704   -4.9911581   -1.2710080  
H    6.7636790   -5.6870369    1.3152733  
H    4.0637129   -5.0304866    3.4962897  
H    2.2367887   -3.1084681    2.0655301  
H    3.0708022   -2.5794164   -0.0465598  
H    7.0494282   -3.5673148   -3.2155514  
C    2.5285572    2.1210227    2.9438989  
C    1.9331703    1.6216660    4.0790748  
C    0.8903039    0.7472258    3.6520102  
C    0.8972198    0.7527806    2.2336141  
N    1.9028376    1.5986179    1.8362361  
C    0.0000000    0.0000000    1.4700000  
C   -0.9207814   -0.7726952    2.1506477  
O   -1.8198395   -1.5274828    1.4542253  
C   -0.9436862   -0.7911793    3.5655508  
O   -1.9197945   -1.6098497    4.0950179  
C   -0.0590329   -0.0485852    4.3195194  
H    2.2150357    1.8593692    5.0905303  
H    2.1533708    1.7953814    0.8841339  
H   -2.3621246   -1.9821033    2.1118817  
H   -1.8668290   -1.5649508    5.0545920  
H   -0.1007624   -0.0827977    5.4019087  
H    3.3491200    2.8096064    2.8367138  
