60

C    0.9857760   -0.0077417   -8.7876914  
C    2.0830274   -0.6819687   -9.2713511  
C    2.2227651   -0.3195270  -10.6438335  
C    1.1734519    0.5864426  -10.9439787  
N    0.4399582    0.7523939   -9.7954743  
C    1.0016810    1.1517407  -12.2111495  
C    1.9058330    0.7962227  -13.1931349  
O    1.7847450    1.3190338  -14.4481329  
C    2.9592243   -0.1064426  -12.9131732  
O    3.7756915   -0.3608626  -13.9957614  
C    3.1291275   -0.6647188  -11.6633796  
H    2.7054241   -1.3533821   -8.7049413  
H   -0.3629047    1.3476925   -9.7005423  
H    0.2039260    1.8427311  -12.4463562  
H    2.5063945    0.9452689  -14.9704223  
H    4.4602198   -0.9789215  -13.7218488  
H    3.9453711   -1.3533142  -11.4788234  
C    2.0577022   -2.1067621   -5.0538573  
C    2.0213370   -1.6421659   -6.3293585  
C    0.8918566   -0.7471757   -6.4193649  
C    0.2687258   -0.7282841   -5.0821507  
N    1.0227496   -1.5732442   -4.3008819  
C   -0.8287665    0.0000939   -4.7555305  
C   -1.4369815    0.8199926   -5.7901200  
O   -2.4278330    1.5117412   -5.5951879  
C   -0.7938991    0.8150424   -7.2135759  
O   -1.2973732    1.5011518   -8.0927957  
C    0.3886479   -0.0108729   -7.4444391  
H    2.7073333   -1.8974440   -7.1173025  
H    2.7533683   -2.7941806   -4.6006523  
H    0.8492696   -1.7702611   -3.3323078  
C    1.0672569   -0.0000698   -0.8321910  
C    0.0000000    0.0000000    0.0000000  
C   -1.1601223   -0.0000736   -0.8778472  
C   -0.5938729   -0.0000768   -2.2438435  
N    0.7113367   -0.0001553   -2.2234123  
C   -1.4286985   -0.0001877   -3.4135239  
C   -2.7683113   -0.0006798   -3.2270524  
O   -3.6653902   -0.0008302   -4.2276970  
C   -3.3702024   -0.0010610   -1.8610774  
O   -4.5974910   -0.0013779   -1.7662963  
C   -2.4926825   -0.0008943   -0.6770658  
H   -4.5324245   -0.0012258   -3.7833954  
H   -2.9677772   -0.0012974    0.2947961  
H    2.1134391   -0.0000547   -0.5705119  
C    2.4951002    2.0940188    2.9809380  
C    1.9440701    1.6314916    1.8291961  
C    0.8759964    0.7350050    2.2038498  
C    0.8497377    0.7130254    3.6788474  
N    1.8560616    1.5571714    4.0882609  
C   -0.0205033   -0.0168748    4.4215661  
C   -0.9962600   -0.8356168    3.7214979  
O   -1.8224391   -1.5286685    4.3006425  
C   -0.9864710   -0.8277881    2.1595606  
O   -1.8030528   -1.5133726    1.5592035  
C    0.0000000    0.0000000    1.4700000  
H    2.2509283    1.8888011    0.8310761  
H   -0.0229599   -0.0187323    5.5027230  
H    3.3143982    2.7817323    3.1139444  
H    2.0889452    1.7545833    5.0442112  
