62

C   -6.8711881    1.9442658    0.1875488  
C   -7.1639207    2.7753258    1.2440123  
C   -8.5768800    2.7264563    1.4331019  
C   -9.0973876    1.8413316    0.4545560  
N   -8.0351822    1.3856578   -0.2861854  
C  -10.4609282    1.5522607    0.3450831  
C  -11.3145360    2.1676985    1.2399386  
O  -12.6554767    1.9206406    1.1778601  
C  -10.8143113    3.0542082    2.2231442  
O  -11.7905768    3.5871931    3.0393410  
C   -9.4692965    3.3400570    2.3315512  
H   -6.4473483    3.3473588    1.8081892  
H   -8.0956137    0.7339460   -1.0475006  
H  -10.8639737    0.8786846   -0.3985918  
H  -13.0622542    2.4432818    1.8811695  
H  -11.3689780    4.1741508    3.6744305  
H   -9.1156189    4.0233801    3.0947424  
C   -4.3568011    2.1196432   -0.0439434  
C   -5.5783087    1.6201330   -0.4323715  
C   -5.3394752    0.7460401   -1.5339702  
C   -3.9416100    0.7519547   -1.7745206  
N   -3.3751248    1.5976636   -0.8533860  
C   -3.3460097   -0.0004262   -2.7913647  
C   -4.1766438   -0.7730847   -3.5795419  
O   -3.6475259   -1.5274892   -4.5864790  
C   -5.5738549   -0.7919241   -3.3553482  
O   -6.2652647   -1.6105065   -4.2243823  
C   -6.1621470   -0.0497242   -2.3525630  
H   -2.3939627    1.7946126   -0.7726814  
H   -4.3895802   -1.9821535   -5.0058840  
H   -7.2009061   -1.5658643   -4.0048709  
H   -7.2352196   -0.0842033   -2.2048984  
H   -4.1083018    2.8080669    0.7455379  
C    0.0000000    0.0000000    0.0000000  
C    1.0662919   -0.0000103   -0.8334272  
C    0.4961868    0.0000066   -2.1718889  
C   -0.9663860   -0.0000849   -1.9540248  
N   -1.2632775   -0.0000084   -0.6828659  
C   -1.8985364   -0.0000515   -3.0477258  
C   -1.3925778    0.0004567   -4.3020543  
O   -2.1456385    0.0005412   -5.4151314  
C    0.0786229    0.0009326   -4.5544999  
O    0.4683756    0.0012594   -5.7221104  
C    1.0143162    0.0008443   -3.4159034  
H    2.1107195    0.0000631   -0.5721869  
H   -1.5042277    0.0009692   -6.1484420  
H    2.0724151    0.0013151   -3.6409746  
C    3.1301144    0.0010313    3.1728260  
C    2.5367765    0.0002768    1.9564670  
C    1.1089900   -0.0001027    2.2356185  
C    1.0177864    0.0004150    3.7115134  
N    2.1993570    0.0011613    4.2663826  
C   -0.2459220    0.0002880    4.3957118  
C   -1.3675327    0.0000606    3.6398520  
O   -2.6129319   -0.0000866    4.1448486  
C   -1.3083589   -0.0000910    2.1483229  
O   -2.3693264   -0.0004206    1.5241687  
C    0.0000000    0.0000000    1.4700000  
H    3.0096015    0.0001008    0.9892483  
H   -0.2829642    0.0004689    5.4753125  
H   -3.1967446   -0.0002093    3.3649027  
H    4.1849273    0.0015113    3.3971983  
