60

C    5.1845524   -3.2392512   -9.4702427  
C    5.3986119   -2.4737930  -10.5930599  
C    5.0438227   -1.1336682  -10.2572183  
C    4.6170314   -1.1426414   -8.9045564  
N    4.7131146   -2.4370704   -8.4575224  
C    4.1924027    0.0106017   -8.2378397  
C    4.1990216    1.1945229   -8.9495030  
O    3.7945766    2.3504978   -8.3468763  
C    4.6210036    1.2236771  -10.3000209  
O    4.5697232    2.4783516  -10.8714274  
C    5.0397833    0.0863133  -10.9584696  
H    5.7643236   -2.8368711  -11.5382696  
H    4.4879211   -2.7490237   -7.5301851  
H    3.8757655    3.0474602   -9.0108907  
H    4.8707395    2.4100956  -11.7826545  
H    5.3572163    0.1395529  -11.9933015  
H    5.3295022   -4.2942086   -9.3120890  
C    5.7052416   -2.0986835   -4.6958674  
C    4.8302129   -1.6343311   -3.7670098  
C    3.9272652   -0.7382853   -4.4501079  
C    4.3509923   -0.7185539   -5.8632095  
N    5.4336789   -1.5634481   -5.9458739  
C    3.7483772    0.0103194   -6.8365046  
C    2.6063701    0.8302494   -6.4676276  
O    1.9959442    1.5225184   -7.2716460  
C    2.1405133    0.8248035   -4.9767380  
O    1.1803934    1.5114044   -4.6542327  
C    2.8699641   -0.0020530   -4.0185824  
H    4.8187250   -1.8901547   -2.7224829  
H    6.5257690   -2.7867004   -4.5723455  
H    5.9462312   -1.7623475   -6.7853834  
C    3.2573670   -0.0002921   -1.5109382  
C    2.5379468   -0.0001711   -0.3591962  
C    1.1435043    0.0000330   -0.7338498  
C    1.1092608   -0.0000085   -2.2088474  
N    2.4227562    0.0001906   -2.6182610  
C   -0.0265533   -0.0002525   -2.9515663  
C   -1.3003033   -0.0002641   -2.2514979  
O   -2.3786785   -0.0004132   -2.8306425  
C   -1.2877724    0.0000310   -0.6895608  
O   -2.3539956    0.0003306   -0.0892035  
C    0.0000000    0.0000000    0.0000000  
H    2.9384091   -0.0000370    0.6389240  
H   -0.0296290   -0.0004088   -4.0327231  
H    4.3270394   -0.0004767   -1.6439445  
C    0.0000000    0.0000000    1.4700000  
C    1.0541688    0.0001722    2.3260392  
C    0.5103138    0.0000454    3.6635956  
C   -0.9576371   -0.0002459    3.5155732  
N   -1.2018458    0.0001392    2.1615969  
C   -1.8348311   -0.0008317    4.5510609  
C   -1.2972847   -0.0009736    5.9014604  
O   -2.0050672   -0.0014265    6.9001319  
C    0.2542623   -0.0004184    6.0817573  
O    0.7184670   -0.0002256    7.2139121  
C    1.0974552   -0.0000873    4.8889129  
H    2.0940752    0.0005483    2.0517982  
H   -2.9081052   -0.0011668    4.4207061  
H    2.1707277    0.0000911    5.0223670  
H   -2.1128194   -0.0014912    1.7406791  
