62

C    2.1483143   -4.2790344    1.5519072  
C    2.5053582   -3.4737056    0.4952935  
C    3.9183841   -3.5920262    0.3405085  
C    4.3726450   -4.4910479    1.3391735  
N    3.2726792   -4.8878405    2.0583736  
C    5.7177720   -4.8438864    1.4838399  
C    6.6207336   -4.2791088    0.6041442  
O    7.9464243   -4.5893839    0.7005109  
C    6.1869018   -3.3797212   -0.3987063  
O    7.2065366   -2.9023659   -1.1960901  
C    4.8600945   -3.0309768   -0.5418343  
H    1.8305425   -2.8738118   -0.0910034  
H    3.2838387   -5.5339274    2.8267652  
H    6.0704190   -5.5283803    2.2429911  
H    8.3942403   -4.0939722    0.0024469  
H    6.8286527   -2.3023958   -1.8463546  
H    1.1807726   -4.4662233    1.9852460  
C    4.4498807   -2.0927813   -1.5965448  
C    3.2085348   -1.6305556   -1.8956814  
C    3.3524544   -0.7335188   -3.0179324  
C    4.7897028   -0.7108877   -3.3504919  
N    5.3998261   -1.5552201   -2.4517473  
C    5.3348516    0.0196508   -4.3558921  
C    4.4468029    0.8384418   -5.1642765  
O    4.8411373    1.5320447   -6.0925628  
C    2.9210854    0.8299296   -4.8297317  
O    2.1637298    1.5155489   -5.5032294  
C    2.4521483    0.0014840   -3.7217481  
H    2.2961919   -1.8884108   -1.3879859  
H    6.3918374    0.0219799   -4.5832377  
H    6.3833796   -1.7523003   -2.4229412  
C    0.0000000    0.0000000    0.0000000  
C    1.0662923   -0.0000101   -0.8334270  
C    0.4961873    0.0000065   -2.1718887  
C   -0.9663854   -0.0000848   -1.9540250  
N   -1.2632773   -0.0000083   -0.6828660  
C   -1.8985359   -0.0000514   -3.0477261  
C   -1.3925770    0.0004566   -4.3020547  
O   -2.1456378    0.0005414   -5.4151314  
C    0.0786240    0.0009326   -4.5545000  
O    0.4683767    0.0012591   -5.7221100  
C    1.0143171    0.0008444   -3.4159031  
H    2.1107200    0.0000633   -0.5721865  
H   -2.9622181   -0.0003268   -2.8593381  
H   -1.5042265    0.0009697   -6.1484419  
C    1.1188642   -0.0008217    2.2703808  
C    0.0000000    0.0000000    1.4700000  
C   -1.1323862   -0.0008904    2.3373528  
C   -0.6382662   -0.0019682    3.6669281  
N    0.7324016   -0.0038477    3.5902241  
C   -1.4770914   -0.0027325    4.7854808  
C   -2.8395474   -0.0020958    4.5576857  
O   -3.7039201   -0.0024443    5.6140350  
C   -3.3517868   -0.0013946    3.2384331  
O   -4.7300496   -0.0012389    3.1773122  
C   -2.5248543   -0.0009135    2.1344818  
H    1.3576314    0.0056174    4.3757045  
H   -1.1067570   -0.0036993    5.8013813  
H   -4.5940033   -0.0021850    5.2385129  
H   -4.9934601   -0.0007286    2.2519915  
H   -2.9462578   -0.0005617    1.1360343  
H    2.1619896   -0.0009344    2.0042067  
