60

C   -4.7980986    3.7132324    1.7101895  
C   -4.0868115    4.5157913    2.5718366  
C   -2.7079918    4.3644234    2.2393551  
C   -2.6386921    3.4494626    1.1577031  
N   -3.9252190    3.0721390    0.8625877  
C   -1.4303389    3.0641468    0.5693129  
C   -0.2708428    3.6127000    1.0819884  
O    0.9364689    3.2712123    0.5445899  
C   -0.3194500    4.5270032    2.1611098  
O    0.9200336    4.9844135    2.5583502  
C   -1.5111452    4.9073707    2.7422378  
H   -4.5096380    5.1334110    3.3456310  
H   -1.3707664    2.3671452   -0.2552123  
H    1.6049322    3.7595188    1.0425654  
H    0.7980493    5.5963472    3.2906483  
H   -1.5170012    5.6095374    3.5677112  
H   -5.8589003    3.5462905    1.6341034  
C   -4.3137501    2.1424312   -0.2077332  
C   -5.5591253    1.7353211   -0.5466753  
C   -5.3648110    0.8246403   -1.6644421  
C   -3.9011721    0.7979210   -1.8733217  
N   -3.2797693    1.5684038   -1.0223199  
C   -3.2941076    0.0012878   -2.9038237  
C   -4.1120064   -0.7354732   -3.6896735  
O   -3.6822294   -1.5242481   -4.6892573  
C   -5.5930505   -0.7299489   -3.5035602  
O   -6.2763269   -1.4248017   -4.2555802  
C   -6.1916589    0.0955191   -2.4395140  
H   -6.4941462    2.0180132   -0.0940194  
H   -4.4926441   -1.9161859   -5.0617693  
H   -7.2683271    0.0718760   -2.3372581  
C    0.0000000    0.0000000    0.0000000  
C    1.0541688   -0.0001723   -0.8560392  
C    0.5103136   -0.0000455   -2.1935956  
C   -0.9576373    0.0002461   -2.0455730  
N   -1.2018460   -0.0001389   -0.6915968  
C   -1.8348314    0.0008319   -3.0810607  
C   -1.2972851    0.0009739   -4.4314603  
O   -2.0050676    0.0014268   -5.4301316  
C    0.2542619    0.0004184   -4.6117572  
O    0.7184666    0.0002257   -5.7439122  
C    1.0974551    0.0000873   -3.4189129  
H    2.0940752   -0.0005484   -0.5817983  
H    2.1707276   -0.0000912   -3.5523673  
H   -2.1128194    0.0014915   -0.2706789  
C    1.0965515   -0.0001358    2.2710304  
C    0.0000000    0.0000000    1.4700000  
C   -1.1546562   -0.0001469    2.3369512  
C   -0.6372014   -0.0003519    3.7186280  
N    0.7342871   -0.0007337    3.6095011  
C   -1.4147739   -0.0001353    4.8308716  
C   -2.8576048    0.0001048    4.6554461  
O   -3.6427778    0.0002493    5.5944904  
C   -3.4275839    0.0000726    3.2011665  
O   -4.6406829   -0.0000333    3.0410059  
C   -2.4891866    0.0001091    2.0816745  
H   -1.0150448   -0.0001615    5.8354244  
H   -2.8919121    0.0002919    1.0779135  
H    2.1388271   -0.0000662    1.9961646  
H    1.3735872    0.0006099    4.3830260  
