60

C    8.6213016   -0.0025477   -0.2574580  
C    7.9169766   -0.0022394    0.9242333  
C    8.8757084   -0.0028155    1.9803739  
C   10.1594655   -0.0031815    1.3771374  
N    9.9687681   -0.0049577    0.0176345  
C   11.3440513   -0.0034765    2.1197984  
C   11.2306261   -0.0030936    3.4965016  
O   12.3553536   -0.0030062    4.2698065  
C    9.9586658   -0.0031008    4.1169334  
O   10.0126520   -0.0031178    5.4954943  
C    8.7896226   -0.0030831    3.3849070  
H    6.8441586   -0.0027744    1.0139775  
H   10.6993894    0.0049624   -0.6708966  
H   12.3255438   -0.0039001    1.6660662  
H   12.0553378   -0.0030254    5.1880961  
H    9.1125104   -0.0030945    5.8351247  
H    7.8297793   -0.0032710    3.8880759  
C    4.5679461   -0.0016854   -2.0086701  
C    5.6245801   -0.0018694   -1.1556757  
C    6.8197132   -0.0025282   -1.9659181  
C    6.3695112   -0.0026850   -3.3709478  
N    4.9943549   -0.0025530   -3.3281074  
C    7.1998322   -0.0028671   -4.4443873  
C    8.6325205   -0.0031379   -4.1995651  
O    9.4620790   -0.0033773   -5.0996404  
C    9.1316833   -0.0032302   -2.7194835  
O   10.3356446   -0.0037642   -2.5009907  
C    8.1403754   -0.0027352   -1.6465621  
H    5.5727011   -0.0017595   -0.0814681  
H    6.8490268   -0.0028498   -5.4670534  
H    4.3931139   -0.0010543   -4.1315712  
C    3.1301149   -0.0010311   -1.7028252  
C    2.5367768   -0.0002767   -0.4864665  
C    1.1089904    0.0001028   -0.7656183  
C    1.0177872   -0.0004148   -2.2415132  
N    2.1993578   -0.0011611   -2.7963820  
C   -0.2459209   -0.0002877   -2.9257118  
C   -1.3675319   -0.0000605   -2.1698524  
O   -2.6129313    0.0000867   -2.6748490  
C   -1.3083584    0.0000910   -0.6783232  
O   -2.3693261    0.0004206   -0.0541692  
C    0.0000000    0.0000000    0.0000000  
H    3.0096017   -0.0001007    0.4807525  
H   -0.2829630   -0.0004687   -4.0053125  
H   -3.1967441    0.0002094   -1.8949034  
C    0.8175213    0.6860729    2.3021913  
C    0.0000000    0.0000000    1.4700000  
C   -0.8887526   -0.7456559    2.3478473  
C   -0.4549825   -0.3816753    3.7138435  
N    0.5448156    0.4573574    3.6934124  
C   -1.0945674   -0.9182058    4.8835240  
C   -2.1210866   -1.7789155    4.6970523  
O   -2.8083856   -2.3554314    5.6976972  
C   -2.5824069   -2.1655116    3.3310774  
O   -3.5227682   -2.9541547    3.2362962  
C   -1.9100805   -1.6015804    2.1470656  
H   -0.7567140   -0.6349833    5.8697035  
H   -3.4728268   -2.9124471    5.2533954  
H   -2.2742832   -1.9066565    1.1752040  
H    1.6189533    1.3585343    2.0405121  
