62

C   -3.5733089    0.0040245   -7.0541789  
C   -4.2679603    0.0044005   -5.8667759  
C   -5.6557709    0.0049560   -6.1962947  
C   -5.7474669    0.0046045   -7.6117514  
N   -4.4648990    0.0059918   -8.1012760  
C   -6.9698381    0.0046816   -8.2904257  
C   -8.1206055    0.0048146   -7.5262829  
O   -9.3409045    0.0045437   -8.1377431  
C   -8.0496633    0.0055404   -6.1128536  
O   -9.2829002    0.0060071   -5.4944129  
C   -6.8441100    0.0057380   -5.4426544  
H   -3.8284768    0.0053934   -4.8840013  
H   -4.2147940   -0.0044545   -9.0735509  
H   -7.0464863    0.0045593   -9.3690021  
H  -10.0001456    0.0049962   -7.4315801  
H   -9.1456222    0.0064584   -4.5421745  
H   -6.8212070    0.0064802   -4.3591636  
C   -0.1387078    0.0017019   -4.3179684  
C    0.8715321    0.0021967   -5.2254322  
C    0.2617556    0.0029743   -6.5342509  
C   -1.1970048    0.0029205   -6.3133239  
N   -1.3734972    0.0017348   -4.9488690  
C   -2.1246669    0.0039286   -7.3038527  
C   -1.6550225    0.0049218   -8.6793414  
O   -2.4116501    0.0058066   -9.6415332  
C   -0.1143765    0.0047446   -8.9366640  
O    0.2928835    0.0052679  -10.0905275  
C    0.7871615    0.0038972   -7.7872816  
H    1.9238030    0.0018531   -5.0033075  
H    1.8524583    0.0039851   -7.9740077  
H   -2.2623839    0.0029669   -4.4831157  
C    3.3041272    0.0001178   -1.5420428  
C    2.5845372   -0.0004779   -0.3695851  
C    1.2040007   -0.0000007   -0.7283589  
C    1.1422375    0.0006038   -2.1454371  
N    2.4348641    0.0026111   -2.6077464  
C   -0.0655179    0.0008799   -2.8497918  
C   -1.2321766    0.0002325   -2.1101402  
O   -2.4392816    0.0001148   -2.7472523  
C   -1.1911209   -0.0000007   -0.6955266  
O   -2.4371527   -0.0002320   -0.1032863  
C    0.0000000    0.0000000    0.0000000  
H    3.0031533   -0.0000660    0.6222584  
H    2.7054632   -0.0071097   -3.5745261  
H   -3.1132986   -0.0000648   -2.0551788  
H   -2.3200284   -0.0004071    0.8516409  
H    4.3686626    0.0004072   -1.7024289  
C    0.8400945    0.7047457    2.2710304  
C    0.0000000    0.0000000    1.4700000  
C   -0.8844236   -0.7423113    2.3369512  
C   -0.4878984   -0.4098547    3.7186280  
N    0.5629682    0.4714286    3.6095011  
C   -1.0836927   -0.9095027    4.8308716  
C   -2.1891196   -1.8367527    4.6554461  
O   -2.7906899   -2.3413415    5.5944904  
C   -2.6257283   -2.2031529    3.2011665  
O   -3.5549479   -2.9829990    3.0410059  
C   -1.9068976   -1.5999348    2.0816745  
H   -0.7774656   -0.6525820    5.8354244  
H   -2.2155208   -1.8586617    1.0779135  
H    1.6384792    1.3747609    1.9961646  
H    1.0518368    0.8833920    4.3830260  
