64

C    5.0663001   -0.9734446   -7.1801866  
C    5.8178555   -0.5573729   -8.2546714  
C    5.6016344    0.8454608   -8.3957586  
C    4.7015014    1.2330488   -7.3703493  
N    4.3949756    0.1042336   -6.6517153  
C    4.2643945    2.5508990   -7.2060407  
C    4.7449534    3.4947293   -8.0928476  
O    4.3508607    4.7964328   -7.9776419  
C    5.6434137    3.1274412   -9.1227426  
O    6.0307010    4.1812606   -9.9245017  
C    6.0748444    1.8274901   -9.2855980  
H    6.4439530   -1.1876521   -8.8627359  
H    3.5783517    2.8527225   -6.4266499  
H    4.7965295    5.2802778   -8.6851292  
H    6.6364342    3.8478573  -10.5934803  
H    6.7632905    1.5761462  -10.0839370  
H    4.9548909   -1.9539318   -6.7498477  
C    4.6212872   -2.1169896   -2.7781366  
C    4.8855751   -1.6159779   -4.0317739  
C    3.8097322   -0.7409924   -4.3657838  
C    2.9114591   -0.7479356   -3.2680660  
N    3.4333735   -1.5950871   -2.3222560  
C    1.7334695    0.0049281   -3.2500363  
C    1.4574012    0.7791354   -4.3602465  
O    0.3208001    1.5340732   -4.3951776  
C    2.3411259    0.7990193   -5.4654406  
O    1.9261037    1.6191054   -6.4943035  
C    3.5032851    0.0563442   -5.4840273  
H    5.7471774   -1.8529553   -4.6321715  
H    3.0199241   -1.7930092   -1.4290216  
H    0.3218063    1.9898346   -5.2469672  
H    2.5782324    1.5750928   -7.2002745  
H    5.1854433   -2.8064341   -2.1736918  
C    1.1319246    0.0015678   -0.8009268  
C    0.7969914    0.0034958   -2.1169401  
C   -0.6453340    0.0035696   -2.1842669  
C   -1.1266832    0.0015410   -0.7896025  
N    0.0000000    0.0000000    0.0000000  
C   -2.4346129    0.0013913   -0.4276292  
C   -3.4350111    0.0031335   -1.4820181  
O   -4.6384614    0.0030875   -1.2583914  
C   -2.9478961    0.0050442   -2.9661074  
O   -3.7809382    0.0062135   -3.8623773  
C   -1.5113825    0.0053055   -3.2312122  
H   -2.7664565    0.0000174    0.6013448  
H   -1.1823533    0.0068381   -4.2614848  
H    2.1104316    0.0009435   -0.3488059  
C    0.8676693    0.7151171    2.2619005  
C    0.5875920    0.4624972    3.5848544  
C   -0.5048400   -0.4542819    3.6114698  
C   -0.8517165   -0.7276451    2.2635546  
N    0.0000000    0.0000000    1.4700000  
C   -1.8902865   -1.5946756    1.9108239  
C   -2.5912627   -2.1969500    2.9375057  
O   -3.6148162   -3.0527051    2.6493466  
C   -2.2603868   -1.9365747    4.2886322  
O   -3.0513550   -2.6123276    5.1947621  
C   -1.2361111   -1.0811317    4.6373480  
H    1.1060808    0.8876438    4.4271209  
H   -2.1597133   -1.8070987    0.8854031  
H   -3.9636755   -3.3565188    3.4974381  
H   -2.7621927   -2.3810384    6.0827341  
H   -1.0058879   -0.9010589    5.6809233  
H    1.6167816    1.3499334    1.8205408  
