62

C    7.4177185   -3.5725528   -3.5291946  
C    8.5192225   -4.3464581   -3.8124385  
C    8.7976506   -4.1818269   -5.2016738  
C    7.8246631   -3.2882376   -5.7181247  
N    7.0012384   -2.9390989   -4.6766398  
C    7.7937713   -2.8969748   -7.0600439  
C    8.7629399   -3.4170254   -7.8957696  
O    8.7793128   -3.0679845   -9.2152077  
C    9.7419364   -4.3102722   -7.3992889  
O   10.6377345   -4.7409183   -8.3560711  
C    9.7728531   -4.6969095   -6.0756268  
H    9.0553582   -4.9556709   -3.1050411  
H    7.0547747   -2.2163866   -7.4599001  
H    9.5252702   -3.5361399   -9.6122503  
H   11.2642232   -5.3398671   -7.9384861  
H   10.5348516   -5.3827766   -5.7243108  
H    6.8953377   -3.4234188   -2.5997668  
C    5.8620742   -2.0144359   -4.7672089  
C    5.0189108   -1.6315682   -3.7802605  
C    4.0871662   -0.7140654   -4.4178657  
C    4.5266955   -0.6571076   -5.8285938  
N    5.5666613   -1.4173876   -6.0393882  
C    3.8516110    0.1544275   -6.8036620  
C    2.7856471    0.8759519   -6.3883810  
O    2.0623763    1.6758896   -7.1902661  
C    2.3174901    0.8393081   -4.9714660  
O    1.3403412    1.5218320   -4.6639569  
C    3.0267438   -0.0008951   -3.9901699  
H    5.0280462   -1.9344358   -2.7471761  
H    4.1945960    0.1771766   -7.8277483  
H    1.3751545    2.0517830   -6.6109711  
C    3.3003547    0.0005277   -1.4738986  
C    2.5232816    0.0003497   -2.6090746  
C    1.1623203   -0.0001319   -2.1820102  
C    1.1711884    0.0000584   -0.7636141  
N    2.4852301   -0.0014919   -0.3662359  
C    0.0000000    0.0000000    0.0000000  
C   -1.2020383    0.0000520   -0.6806479  
O   -2.3759248    0.0003493    0.0157745  
C   -1.2314655   -0.0005115   -2.0955511  
O   -2.5054388   -0.0008040   -2.6250184  
C   -0.0764513   -0.0007274   -2.8495195  
H    2.8036266    0.0088183    0.5858662  
H   -3.0835639    0.0000346   -0.6418822  
H   -2.4360043   -0.0011529   -3.5845924  
H   -0.1304091   -0.0013423   -3.9319089  
H    4.3715553    0.0004897   -1.3667133  
C    0.0000000    0.0000000    1.4700000  
C    1.0541688    0.0001722    2.3260392  
C    0.5103138    0.0000454    3.6635956  
C   -0.9576371   -0.0002459    3.5155732  
N   -1.2018458    0.0001392    2.1615969  
C   -1.8348311   -0.0008317    4.5510609  
C   -1.2972847   -0.0009736    5.9014604  
O   -2.0050672   -0.0014265    6.9001319  
C    0.2542623   -0.0004184    6.0817573  
O    0.7184670   -0.0002256    7.2139121  
C    1.0974552   -0.0000873    4.8889129  
H    2.0940752    0.0005483    2.0517982  
H   -2.9081052   -0.0011668    4.4207061  
H    2.1707277    0.0000911    5.0223670  
H   -2.1128194   -0.0014912    1.7406791  
