62

C    1.1188646    0.0008220   -0.8003801  
C    0.0000000    0.0000000    0.0000000  
C   -1.1323860    0.0008894   -0.8673528  
C   -0.6382654    0.0019673   -2.1969280  
N    0.7324025    0.0038478   -2.1202232  
C   -1.4770902    0.0027309   -3.3154810  
C   -2.8395464    0.0020933   -3.0876864  
O   -3.7039182    0.0024410   -4.1440360  
C   -3.3517863    0.0013920   -1.7684340  
O   -4.7300483    0.0012355   -1.7073139  
C   -2.5248541    0.0009116   -0.6644824  
H    1.3576325   -0.0056173   -2.9057035  
H   -4.5940018    0.0021812   -3.7685149  
H   -4.9934594    0.0007251   -0.7819934  
H   -2.9462581    0.0005599    0.3339650  
H    2.1619894    0.0009355   -0.5342064  
C    1.8844602   -2.1024773   -5.2000011  
C    1.7579345   -1.6369225   -6.4693809  
C    0.6249300   -0.7419070   -6.4785604  
C    0.0979886   -0.7240456   -5.1005896  
N    0.9053945   -1.5695653   -4.3752745  
C   -0.9736279    0.0040452   -4.6965763  
C   -1.6535170    0.8246999   -5.6849145  
O   -2.6280792    1.5162643   -5.4198329  
C   -1.1127762    0.8208452   -7.1503123  
O   -1.6771942    1.5075977   -7.9911833  
C    0.0504567   -0.0048517   -7.4649010  
H    0.4187513   -0.0017873   -8.4817950  
H    2.6104418   -2.7902104   -4.7976784  
H    0.8008863   -1.7673178   -3.3970009  
C    3.5894445   -5.4378029   -7.7714208  
C    2.8966497   -4.4815047   -7.1008968  
C    3.0773927   -3.2452591   -7.8246806  
C    3.9384276   -3.5619976   -8.9801410  
N    4.2140039   -4.9069098   -8.8898213  
C    4.3410272   -2.6587308   -9.9095098  
C    3.8968343   -1.2827195   -9.7617941  
O    4.2054970   -0.3952764  -10.5463148  
C    2.9845993   -0.9247133   -8.5454619  
O    2.6046422    0.2305702   -8.4105066  
C    2.6170240   -1.9850051   -7.6103029  
H    2.3244631   -4.6256279   -6.2017610  
H    4.9726604   -2.9118483  -10.7496779  
H    3.6964635   -6.4856763   -7.5425138  
H    4.7798351   -5.4236530   -9.5377870  
C    0.8576279    0.7185626    2.2703808  
C    0.0000000    0.0000000    1.4700000  
C   -0.8668858   -0.7285659    2.3373528  
C   -0.4876752   -0.4117774    3.6669281  
N    0.5635254    0.4678311    3.5902241  
C   -1.1297612   -0.9515493    4.7854808  
C   -2.1738724   -1.8268314    4.5576857  
O   -2.8357962   -2.3827064    5.6140350  
C   -2.5667212   -2.1555554    3.2384331  
O   -3.6226318   -3.0413663    3.1773122  
C   -1.9335634   -1.6236449    2.1344818  
H    1.0363952    0.8769718    4.3757045  
H   -0.8454472   -0.7142436    5.8013813  
H   -3.5178062   -2.9546422    5.2385129  
H   -3.8247440   -3.2102924    2.2519915  
H   -2.2566033   -1.8942483    1.1360343  
H    1.6567807    1.3889844    2.0042067  
