60

C    7.5403661   -2.9212471   -4.6138614  
C    8.8326737   -2.4524361   -4.6651000  
C    8.7585287   -1.0581915   -4.9569632  
C    7.3835552   -0.7299471   -5.0737166  
N    6.6715503   -1.8843607   -4.8615964  
C    6.9363822    0.5639631   -5.3576557  
C    7.8946834    1.5444346   -5.5265139  
O    7.5131991    2.8250334   -5.8049928  
C    9.2714117    1.2364759   -5.4142796  
O   10.1013347    2.3210993   -5.6096308  
C    9.7132898   -0.0398344   -5.1344543  
H    9.7197288   -3.0429704   -4.5121449  
H    5.6703778   -1.9588001   -4.8713043  
H    8.3260536    3.3411817   -5.8832506  
H   11.0127406    2.0273242   -5.5166884  
H   10.7743192   -0.2455821   -5.0546840  
H    7.1696809   -3.9135137   -4.4216180  
C    3.4106844   -0.7032174   -3.0670123  
C    2.4521483    0.0014840   -3.7217481  
C    3.1158562    0.7444933   -4.7668629  
C    4.5499140    0.4124939   -4.6666318  
N    4.6621248   -0.4692177   -3.6164497  
C    5.5136830    0.9128418   -5.4805768  
C    5.1117788    1.8404161   -6.5249017  
O    5.9049350    2.3456315   -7.3084583  
C    3.5983555    2.2063420   -6.6492183  
O    3.2480952    2.9864551   -7.5244335  
C    2.6531316    1.6023760   -5.7134677  
H    1.6070344    1.8607780   -5.8063812  
H    3.3081788   -1.3736416   -2.2292093  
H    5.5205794   -0.8810217   -3.2994003  
C    0.0000000    0.0000000    0.0000000  
C    1.0662923   -0.0000101   -0.8334270  
C    0.4961873    0.0000065   -2.1718887  
C   -0.9663854   -0.0000848   -1.9540250  
N   -1.2632773   -0.0000083   -0.6828660  
C   -1.8985359   -0.0000514   -3.0477261  
C   -1.3925770    0.0004566   -4.3020547  
O   -2.1456378    0.0005414   -5.4151314  
C    0.0786240    0.0009326   -4.5545000  
O    0.4683767    0.0012591   -5.7221100  
C    1.0143171    0.0008444   -3.4159031  
H    2.1107200    0.0000633   -0.5721865  
H   -2.9622181   -0.0003268   -2.8593381  
H   -1.5042265    0.0009697   -6.1484419  
C    1.0672568    0.0000697    2.3021913  
C    0.0000000    0.0000000    1.4700000  
C   -1.1601224    0.0000736    2.3478473  
C   -0.5938729    0.0000769    3.7138435  
N    0.7113367    0.0001554    3.6934124  
C   -1.4286986    0.0001879    4.8835240  
C   -2.7683114    0.0006799    4.6970523  
O   -3.6653903    0.0008304    5.6976972  
C   -3.3702025    0.0010610    3.3310774  
O   -4.5974910    0.0013779    3.2362962  
C   -2.4926826    0.0008943    2.1470656  
H   -0.9878360   -0.0000190    5.8697035  
H   -4.5324246    0.0012261    5.2533954  
H   -2.9677772    0.0012974    1.1752040  
H    2.1134392    0.0000545    2.0405121  
