62

C    4.1522280   -3.7089720   -6.5869792  
C    5.1220370   -4.5121637   -6.0330655  
C    5.0285969   -4.3620015   -4.6176786  
C    3.9745769   -3.4470901   -4.3648827  
N    3.4652985   -3.0686353   -5.5822669  
C    3.6000307   -3.0628278   -3.0738187  
C    4.3021050   -3.6124033   -2.0187186  
O    3.9776258   -3.2719687   -0.7373795  
C    5.3571460   -4.5266751   -2.2506923  
O    5.9590626   -4.9851765   -1.0970821  
C    5.7273656   -4.9060036   -3.5241026  
H    5.8126748   -5.1294207   -6.5817069  
H    2.7977146   -2.3658700   -2.8744686  
H    4.5818237   -3.7608667   -0.1636289  
H    6.6599045   -5.5970107   -1.3421994  
H    6.5397384   -5.6081736   -3.6706821  
H    3.8971015   -3.5410992   -7.6193003  
C    2.3446867   -2.1385756   -5.7825620  
C    1.7992126   -1.7303697   -6.9519228  
C    0.7308350   -0.8198476   -6.5697989  
C    0.7735872   -0.7944097   -5.0919259  
N    1.7176442   -1.5654463   -4.6247557  
C   -0.1387079    0.0017019   -4.3179684  
C   -1.0519387    0.7391884   -4.9898748  
O   -1.9638775    1.5275967   -4.3958873  
C   -1.1200794    0.7349610   -6.4810151  
O   -1.9771136    1.4304206   -7.0260370  
C   -0.1732958   -0.0899934   -7.2523615  
H    2.0864373   -2.0122467   -7.9504840  
H   -2.4685602    1.9202492   -5.1309193  
H   -0.2553893   -0.0654070   -8.3307328  
C    3.3041273    0.0001178   -1.5420428  
C    2.5845373   -0.0004780   -0.3695851  
C    1.2040007   -0.0000007   -0.7283589  
C    1.1422374    0.0006038   -2.1454372  
N    2.4348641    0.0026111   -2.6077464  
C   -0.0655179    0.0008799   -2.8497918  
C   -1.2321766    0.0002325   -2.1101402  
O   -2.4392814    0.0001148   -2.7472522  
C   -1.1911209   -0.0000007   -0.6955266  
O   -2.4371528   -0.0002320   -0.1032862  
C    0.0000000    0.0000000    0.0000000  
H    3.0031533   -0.0000660    0.6222584  
H    2.7054631   -0.0071097   -3.5745261  
H   -3.1132988   -0.0000648   -2.0551787  
H   -2.3200282   -0.0004072    0.8516409  
H    4.3686625    0.0004073   -1.7024290  
C    0.0000000    0.0000000    1.4700000  
C    1.0662921    0.0000102    2.3034270  
C    0.4961870   -0.0000064    3.6418889  
C   -0.9663858    0.0000850    3.4240247  
N   -1.2632773    0.0000084    2.1528658  
C   -1.8985362    0.0000517    4.5177257  
C   -1.3925775   -0.0004564    5.7720543  
O   -2.1456383   -0.0005410    6.8851312  
C    0.0786232   -0.0009323    6.0245000  
O    0.4683759   -0.0012588    7.1921102  
C    1.0143166   -0.0008442    4.8859032  
H    2.1107198   -0.0000632    2.0421868  
H   -2.9622183    0.0003270    4.3293377  
H   -1.5042274   -0.0009692    7.6184419  
H    2.0724152   -0.0013148    5.1109744  
