62

C    0.5515794   -0.9659924   -9.5330997  
C    0.1392288    0.1085667   -8.7796035  
C    0.1716784    1.2517776   -9.6320211  
C    0.6152469    0.8095664  -10.9046652  
N    0.8387698   -0.5415680  -10.8093191  
C    0.7665707    1.6721414  -11.9945523  
C    0.4643231    3.0053606  -11.7961804  
O    0.5941191    3.8909522  -12.8266627  
C    0.0206674    3.4658098  -10.5336544  
O   -0.2393877    4.8201698  -10.4959155  
C   -0.1285892    2.6154704   -9.4579346  
H    1.1501556   -1.1326055  -11.5587813  
H    1.1043526    1.3413800  -12.9670237  
H    0.3362431    4.7544793  -12.4786905  
H   -0.5336409    5.0487725   -9.6089215  
H   -0.4701512    2.9971739   -8.5028880  
H    0.6649222   -2.0013404   -9.2607645  
C    1.7926684   -2.1130094   -5.2695613  
C    1.5709109   -1.6116993   -6.5312979  
C    0.4476588   -0.7372601   -6.4404054  
C    0.0227367   -0.7448287   -5.0871465  
N    0.8596940   -1.5918116   -4.4039633  
C   -1.0641734    0.0073898   -4.6315339  
C   -1.7341473    0.7815828   -5.5588619  
O   -2.8023666    1.5359045   -5.1678131  
C   -1.3255169    0.8020851   -6.9136385  
O   -2.0941824    1.6220710   -7.7137133  
C   -0.2535111    0.0600469   -7.3638698  
H    2.1470956   -1.8481325   -7.4094229  
H    0.8086761   -1.7900692   -3.4210735  
H   -3.1188183    1.9917711   -5.9585775  
H   -1.7518077    1.5785013   -8.6117590  
H    2.5416451   -2.8022204   -4.9188739  
C    1.1319248    0.0015675   -0.8009270  
C    0.7969916    0.0034959   -2.1169404  
C   -0.6453336    0.0035703   -2.1842672  
C   -1.1266831    0.0015415   -0.7896027  
N    0.0000000    0.0000000    0.0000000  
C   -2.4346129    0.0013924   -0.4276297  
C   -3.4350110    0.0031352   -1.4820184  
O   -4.6384610    0.0030897   -1.2583919  
C   -2.9478958    0.0050460   -2.9661075  
O   -3.7809377    0.0062160   -3.8623775  
C   -1.5113821    0.0053068   -3.2312125  
H    1.4821240    0.0045436   -2.9459192  
H   -2.7664565    0.0000185    0.6013447  
H    2.1104318    0.0009428   -0.3488058  
C    0.8175213    0.6860729    2.3021913  
C    0.0000000    0.0000000    1.4700000  
C   -0.8887526   -0.7456559    2.3478473  
C   -0.4549825   -0.3816753    3.7138435  
N    0.5448156    0.4573574    3.6934124  
C   -1.0945674   -0.9182058    4.8835240  
C   -2.1210866   -1.7789155    4.6970523  
O   -2.8083856   -2.3554314    5.6976972  
C   -2.5824069   -2.1655116    3.3310774  
O   -3.5227682   -2.9541547    3.2362962  
C   -1.9100805   -1.6015804    2.1470656  
H   -0.7567140   -0.6349833    5.8697035  
H   -3.4728268   -2.9124471    5.2533954  
H   -2.2742832   -1.9066565    1.1752040  
H    1.6189533    1.3585343    2.0405121  
