60

C   -7.0178248    1.8482348   -0.2376619  
C   -7.4205631    2.6675315    0.7914261  
C   -8.8428524    2.5829179    0.8587533  
C   -9.2554295    1.6891158   -0.1624342  
N   -8.1226825    1.2628765   -0.8103699  
C  -10.5969447    1.3668013   -0.3887953  
C  -11.5391058    1.9573012    0.4308502  
O  -12.8632170    1.6773556    0.2537239  
C  -11.1471641    2.8519666    1.4549463  
O  -12.2027031    3.3573179    2.1855644  
C   -9.8239295    3.1706057    1.6786534  
H   -6.7694199    3.2548644    1.4159625  
H   -8.1014390    0.6129359   -1.5752928  
H  -10.9179129    0.6864458   -1.1655180  
H  -13.3416184    2.1869264    0.9206084  
H  -11.8517984    3.9519786    2.8555260  
H   -9.5540456    3.8594035    2.4706119  
C   -4.4924717    2.0950384   -0.2442175  
C   -3.4157280    1.6323169   -0.9302108  
C   -3.9167331    0.7362616   -1.9455503  
C   -5.3841436    0.7147472   -1.7937833  
N   -5.6689491    1.5587229   -0.7452221  
C   -6.2266195   -0.0146657   -2.5683130  
C   -5.6495861   -0.8333369   -3.6215675  
O   -6.3243554   -1.5259649   -4.3720696  
C   -4.0978604   -0.8259953   -3.8001698  
O   -3.6005729   -1.5115249   -4.6833547  
C   -3.2941076    0.0012878   -2.9038237  
H   -2.3878030    1.8892262   -0.7458681  
H   -7.3001859   -0.0161872   -2.4403978  
H   -4.5254892    2.7825512    0.5853158  
C    0.0000000    0.0000000    0.0000000  
C    1.0541688   -0.0001723   -0.8560392  
C    0.5103136   -0.0000455   -2.1935956  
C   -0.9576373    0.0002461   -2.0455730  
N   -1.2018460   -0.0001389   -0.6915968  
C   -1.8348314    0.0008319   -3.0810607  
C   -1.2972851    0.0009739   -4.4314603  
O   -2.0050676    0.0014268   -5.4301316  
C    0.2542619    0.0004184   -4.6117572  
O    0.7184666    0.0002257   -5.7439122  
C    1.0974551    0.0000873   -3.4189129  
H    2.0940752   -0.0005484   -0.5817983  
H    2.1707276   -0.0000912   -3.5523673  
H   -2.1128194    0.0014915   -0.2706789  
C    0.0000000    0.0000000    1.4700000  
C    1.0662921    0.0000102    2.3034270  
C    0.4961870   -0.0000064    3.6418889  
C   -0.9663858    0.0000850    3.4240247  
N   -1.2632773    0.0000084    2.1528658  
C   -1.8985362    0.0000517    4.5177257  
C   -1.3925775   -0.0004564    5.7720543  
O   -2.1456383   -0.0005410    6.8851312  
C    0.0786232   -0.0009323    6.0245000  
O    0.4683759   -0.0012588    7.1921102  
C    1.0143166   -0.0008442    4.8859032  
H    2.1107198   -0.0000632    2.0421868  
H   -2.9622183    0.0003270    4.3293377  
H   -1.5042274   -0.0009692    7.6184419  
H    2.0724152   -0.0013148    5.1109744  
