62

C    3.3041272    0.0001180   -1.5420435  
C    2.5845371   -0.0004778   -0.3695860  
C    1.2040005   -0.0000007   -0.7283587  
C    1.1422371    0.0006040   -2.1454370  
N    2.4348638    0.0026115   -2.6077467  
C   -0.0655185    0.0008801   -2.8497917  
C   -1.2321772    0.0002327   -2.1101398  
O   -2.4392820    0.0001151   -2.7472514  
C   -1.1911210   -0.0000007   -0.6955257  
O   -2.4371525   -0.0002319   -0.1032854  
C    0.0000000    0.0000000    0.0000000  
H    3.0031538   -0.0000661    0.6222579  
H    2.7054625   -0.0071092   -3.5745262  
H   -3.1132992   -0.0000646   -2.0551777  
H   -2.3200277   -0.0004073    0.8516414  
H    4.3686618    0.0004075   -1.7024297  
C    0.6611976   -0.7016920   -5.1602638  
C   -0.1387089    0.0017023   -4.3179682  
C   -1.0659762    0.7435471   -5.1393555  
C   -0.7383884    0.4122900   -6.5392641  
N    0.3175295   -0.4679243   -6.4831335  
C   -1.3893436    0.9119192   -7.6201584  
C   -2.4856342    1.8378819   -7.3893454  
O   -3.1337400    2.3423487   -8.2969644  
C   -2.8496765    2.2029992   -5.9149069  
O   -3.7705849    2.9817564   -5.7082032  
C   -2.0753682    1.5999281   -4.8329627  
H   -1.1332438    0.6558895   -8.6388690  
H   -2.3339027    1.8577617   -3.8149226  
H    1.4729774   -1.3710020   -4.9258994  
C    0.9769738   -1.0699838   -7.6508479  
C    2.0164973   -1.9428071   -7.6914216  
C    2.2783719   -2.2211754   -9.0838182  
C    1.2992014   -1.4333094   -9.8566590  
N    0.5396789   -0.7581171   -8.9292267  
C    1.2185509   -1.4225201  -11.2113118  
C    2.1587462   -2.2417120  -11.9579649  
O    2.1668556   -2.2998487  -13.1806076  
C    3.2042161   -3.0844005  -11.1600461  
O    4.0006793   -3.7781410  -11.7778102  
C    3.1932938   -3.0137078   -9.7010274  
H    2.5399738   -2.3458004   -6.8427863  
H    0.4927934   -0.8373244  -11.7587896  
H    3.9205413   -3.6000521   -9.1560178  
H   -0.2146554   -0.1333060   -9.1474875  
C    2.5311839    2.1237619    3.0120429  
C    1.9795631    1.6616747    1.8395852  
C    0.9223175    0.7739173    2.1983588  
C    0.8753926    0.7337535    3.6154372  
N    1.8668922    1.5631002    4.0777464  
C   -0.0496243   -0.0427881    4.3197917  
C   -0.9437528   -0.7922060    3.5801400  
O   -1.8685244   -1.5680278    4.2172520  
C   -0.9124520   -0.7656372    2.1655264  
O   -1.8671164   -1.5663939    1.5732860  
C    0.0000000    0.0000000    1.4700000  
H    2.3005065    1.9304404    0.8477417  
H    2.0679347    1.7444845    5.0445261  
H   -0.0904770   -0.0778569    5.3997470  
H   -2.3849669   -2.0011402    3.5251786  
H   -1.7775064   -1.4909735    0.6183591  
H    3.3468514    2.8078103    3.1724291  
