60

C    4.0094708   -3.6140118   -5.2167624  
C    4.9672556   -4.4200714   -5.7871863  
C    4.7978163   -4.3316753   -7.2007193  
C    3.7123320   -3.4493111   -7.4354181  
N    3.2554991   -3.0332430   -6.2095279  
C    3.2638665   -3.1269197   -8.7198375  
C    3.9233971   -3.7055785   -9.7867738  
O    3.5268479   -3.4249998  -11.0623259  
C    5.0083519   -4.5887275   -9.5729087  
O    5.5603840   -5.0830729  -10.7366221  
C    5.4511392   -4.9074374   -8.3060666  
H    5.6974405   -5.0012426   -5.2504696  
H    2.4370518   -2.4552497   -8.9054112  
H    4.1113787   -3.9255386  -11.6463217  
H    6.2858711   -5.6703971  -10.5035508  
H    6.2846415   -5.5872600   -8.1734254  
H    3.8035825   -3.4085304   -4.1802556  
C    2.1451924   -2.0951770   -5.9900948  
C    1.6340467   -1.6323750   -4.8202142  
C    0.5538821   -0.7357921   -5.1581773  
C    0.4770628   -0.7140554   -6.6314112  
N    1.4686352   -1.5584198   -7.0749457  
C   -0.4180301    0.0158497   -7.3439768  
C   -1.3690899    0.8348541   -6.6110023  
O   -2.2145433    1.5279317   -7.1615950  
C   -1.3057475    0.8272853   -5.0503179  
O   -2.1011642    1.5130918   -4.4224305  
C   -0.2963293   -0.0005341   -4.3948471  
H    1.9749144   -1.8895632   -3.8331597  
H   -0.4575591    0.0175268   -8.4244137  
H    1.6685731   -1.7560263   -8.0382859  
C    3.1301146   -0.0010313   -1.7028256  
C    2.5367765   -0.0002766   -0.4864669  
C    1.1089901    0.0001027   -0.7656184  
C    1.0177865   -0.0004150   -2.2415133  
N    2.1993571   -0.0011612   -2.7963824  
C   -0.2459219   -0.0002879   -2.9257116  
C   -1.3675326   -0.0000606   -2.1698520  
O   -2.6129318    0.0000865   -2.6748483  
C   -1.3083588    0.0000910   -0.6783229  
O   -2.3693264    0.0004206   -0.0541685  
C    0.0000000    0.0000000    0.0000000  
H    3.0096016   -0.0001007    0.4807518  
H   -3.1967444    0.0002093   -1.8949026  
H    4.1849275   -0.0015114   -1.9271979  
C    0.0000000    0.0000000    1.4700000  
C    1.0541688    0.0001722    2.3260392  
C    0.5103138    0.0000454    3.6635956  
C   -0.9576371   -0.0002459    3.5155732  
N   -1.2018458    0.0001392    2.1615969  
C   -1.8348311   -0.0008317    4.5510609  
C   -1.2972847   -0.0009736    5.9014604  
O   -2.0050672   -0.0014265    6.9001319  
C    0.2542623   -0.0004184    6.0817573  
O    0.7184670   -0.0002256    7.2139121  
C    1.0974552   -0.0000873    4.8889129  
H    2.0940752    0.0005483    2.0517982  
H   -2.9081052   -0.0011668    4.4207061  
H    2.1707277    0.0000911    5.0223670  
H   -2.1128194   -0.0014912    1.7406791  
