60

C    1.6148026   -3.0265212  -10.1458287  
C    1.8735873   -2.2366158  -11.2419804  
C    1.4934337   -0.9061821  -10.8955270  
C    1.0057863   -0.9459895   -9.5641595  
N    1.0916257   -2.2486660   -9.1395611  
C    0.5423183    0.1903025   -8.8942131  
C    0.5719458    1.3886622   -9.5806778  
O    0.1315263    2.5291458   -8.9737664  
C    1.0545340    1.4485686  -10.9097143  
O    1.0194047    2.7143733  -11.4572968  
C    1.5116594    0.3279413  -11.5713463  
H    2.2846469   -2.5775943  -12.1767299  
H    0.8270361   -2.5812204   -8.2299559  
H    0.2372987    3.2401949   -9.6191231  
H    1.3619850    2.6669998  -12.3550708  
H    1.8752958    0.4046965  -12.5893611  
H    1.7606888   -4.0834884  -10.0026697  
C    1.9859501   -2.0121222   -5.4225061  
C    1.1142987   -1.6302693   -4.4602217  
C    0.2013163   -0.7124158   -5.1239292  
C    0.6817517   -0.6541653   -6.5212026  
N    1.7275938   -1.4140509   -6.7022478  
C    0.0351778    0.1580614   -7.5148406  
C   -1.0426002    0.8790118   -7.1301863  
O   -1.7423831    1.6794832   -7.9521292  
C   -1.5518362    0.8410640   -5.7275458  
O   -2.5376879    1.5231241   -5.4480627  
C   -0.8712826    0.0001710   -4.7267111  
H    1.0933980   -1.9340156   -3.4275665  
H   -2.4462795    2.0547411   -7.3927865  
H    2.8195224   -2.6903521   -5.3323141  
C    1.0965514    0.0001359   -0.8010305  
C    0.0000000    0.0000000    0.0000000  
C   -1.1546563    0.0001470   -0.8669513  
C   -0.6372014    0.0003519   -2.2486282  
N    0.7342871    0.0007337   -2.1395014  
C   -1.4147739    0.0001352   -3.3608717  
C   -2.8576049   -0.0001048   -3.1854462  
O   -3.6427779   -0.0002494   -4.1244907  
C   -3.4275840   -0.0000725   -1.7311666  
O   -4.6406831    0.0000333   -1.5710060  
C   -2.4891867   -0.0001091   -0.6116744  
H   -2.8919122   -0.0002918    0.3920866  
H    2.1388272    0.0000663   -0.5261648  
H    1.3735872   -0.0006099   -2.9130262  
C    2.5128556    2.1077716    2.9199648  
C    1.9592212    1.6432552    4.0696553  
C    0.8915788    0.7479214    3.6910360  
C    0.8684491    0.7287414    2.2159470  
N    1.8754542    1.5738793    1.8102719  
C    0.0000000    0.0000000    1.4700000  
C   -0.9772830   -0.8200135    2.1664417  
O   -1.8021297   -1.5120829    1.5842315  
C   -0.9711318   -0.8147624    3.7284083  
O   -1.7894187   -1.5009653    4.3257297  
C    0.0140216    0.0115358    4.4216297  
H    2.2638494    1.8988021    5.0689105  
H    0.0117648    0.0094386    5.5031631  
H    3.3327358    2.7953732    2.7900019  
H    2.1123206    1.7707734    0.8551938  
