62

C   -8.0462497   -0.6259733   -3.0755415  
C   -8.3954935    0.2047221   -2.0360989  
C   -9.8164671    0.1545834   -1.9224255  
C  -10.2834062   -0.7309051   -2.9273156  
N   -9.1829041   -1.1855647   -3.6105400  
C  -11.6389372   -1.0211721   -3.1091670  
C  -12.5394769   -0.4065789   -2.2609437  
O  -13.8749975   -0.6548179   -2.3942634  
C  -12.0930385    0.4802752   -1.2524801  
O  -13.1118041    1.0123149   -0.4893320  
C  -10.7559489    0.7673048   -1.0726781  
H   -7.7104501    0.7773335   -1.4345806  
H   -9.2021816   -1.8372544   -4.3740259  
H  -12.0012629   -1.6950311   -3.8732596  
H  -14.3190683   -0.1326070   -1.7135564  
H  -12.7251016    1.5995829    0.1673117  
H  -10.4439676    1.4508645   -0.2917221  
C   -3.9849991    0.7198454   -1.9557674  
C   -3.2941076    0.0012878   -2.9038237  
C   -4.2599028   -0.7267533   -3.6599955  
C   -5.5339487   -0.4096642   -3.1231642  
N   -5.3307597    0.4696102   -2.0886556  
C   -6.7219426   -0.9488996   -3.6258411  
C   -6.6219976   -1.8239441   -4.6900239  
O   -7.7506393   -2.3792964   -5.2198982  
C   -5.3598476   -2.1529613   -5.2391524  
O   -5.4267872   -3.0384795   -6.2949560  
C   -4.1874276   -1.6215800   -4.7435804  
H   -6.0533560    0.8788550   -1.5244261  
H   -7.4602825   -2.9511470   -5.9423552  
H   -4.5326434   -3.2076329   -6.6072023  
H   -3.2353056   -1.8923978   -5.1847149  
H   -3.6241832    1.3899488   -1.1943654  
C    0.0000000    0.0000000    0.0000000  
C    1.0541688   -0.0001723   -0.8560392  
C    0.5103136   -0.0000455   -2.1935956  
C   -0.9576373    0.0002461   -2.0455730  
N   -1.2018460   -0.0001389   -0.6915968  
C   -1.8348314    0.0008319   -3.0810607  
C   -1.2972851    0.0009739   -4.4314603  
O   -2.0050676    0.0014268   -5.4301316  
C    0.2542619    0.0004184   -4.6117572  
O    0.7184666    0.0002257   -5.7439122  
C    1.0974551    0.0000873   -3.4189129  
H    2.0940752   -0.0005484   -0.5817983  
H    2.1707276   -0.0000912   -3.5523673  
H   -2.1128194    0.0014915   -0.2706789  
C    1.1319247   -0.0015655    2.2709268  
C    0.7969915   -0.0034943    3.5869401  
C   -0.6453339   -0.0035710    3.6542670  
C   -1.1266833   -0.0015433    2.2596025  
N    0.0000000    0.0000000    1.4700000  
C   -2.4346130   -0.0013964    1.8976294  
C   -3.4350110   -0.0031408    2.9520183  
O   -4.6384611   -0.0030974    2.7283916  
C   -2.9478959   -0.0050506    4.4361073  
O   -3.7809380   -0.0062218    5.3323774  
C   -1.5113823   -0.0053090    4.7012123  
H    1.4821238   -0.0045407    4.4159191  
H   -2.7664565   -0.0000232    0.8686553  
H   -1.1823530   -0.0068408    5.7314848  
H    2.1104316   -0.0009391    1.8188057  
