62

C    5.8992832    0.0461452   -4.6496045  
C    6.2226739    0.0333387   -3.3125473  
C    7.6465941    0.0319726   -3.2285777  
C    8.1419138    0.0446627   -4.5576461  
N    7.0545807    0.0510852   -5.3956684  
C    9.5079196    0.0473254   -4.8556563  
C   10.3899714    0.0372963   -3.7926121  
O   11.7346416    0.0397149   -4.0268505  
C    9.9151103    0.0241938   -2.4595137  
O   10.9180865    0.0149041   -1.5122576  
C    8.5676498    0.0212864   -2.1647791  
H    5.5188597    0.0247917   -2.4979522  
H    7.0949804    0.0708504   -6.3986438  
H    9.8918410    0.0568316   -5.8664571  
H   12.1626689    0.0312064   -3.1608346  
H   10.5124732    0.0063557   -0.6398987  
H    8.2337826    0.0109719   -1.1338066  
C    1.6628972    0.0337774   -3.2649299  
C    3.0162025    0.0329607   -3.2529402  
C    3.4037232    0.0459987   -4.6551376  
C    2.1237308    0.0535434   -5.3955064  
N    1.0997901    0.0465116   -4.5858853  
C    2.0755560    0.0671417   -6.8316752  
C    3.2525887    0.0733281   -7.4979267  
O    3.3565999    0.0859909   -8.8377253  
C    4.5608689    0.0663576   -6.7792364  
O    5.5929755    0.0724795   -7.4500116  
C    4.5838551    0.0523656   -5.3057374  
H    3.6706629    0.0246397   -2.3981374  
H    1.1260108    0.0722085   -7.3466974  
H    4.3151302    0.0875710   -9.0119996  
C    1.1243417    0.0099160   -0.7919004  
C    0.7474091    0.0234036   -2.1148543  
C   -0.6787366    0.0234950   -2.1414699  
C   -1.1201739    0.0099353   -0.7935547  
N    0.0000000    0.0000000    0.0000000  
C   -2.4730814    0.0065387   -0.4408241  
C   -3.3971947    0.0173286   -1.4675058  
O   -4.7313509    0.0149470   -1.1793468  
C   -2.9763629    0.0305525   -2.8186324  
O   -4.0166449    0.0397843   -3.7247623  
C   -1.6418539    0.0336374   -3.1673480  
H   -2.8160170   -0.0039200    0.5845965  
H   -5.1938800    0.0234391   -2.0274383  
H   -3.6464639    0.0484767   -4.6127342  
H   -1.3497441    0.0436783   -4.2109235  
H    2.1062470    0.0051389   -0.3505406  
C    0.8175213    0.6860729    2.3021913  
C    0.0000000    0.0000000    1.4700000  
C   -0.8887526   -0.7456559    2.3478473  
C   -0.4549825   -0.3816753    3.7138435  
N    0.5448156    0.4573574    3.6934124  
C   -1.0945674   -0.9182058    4.8835240  
C   -2.1210866   -1.7789155    4.6970523  
O   -2.8083856   -2.3554314    5.6976972  
C   -2.5824069   -2.1655116    3.3310774  
O   -3.5227682   -2.9541547    3.2362962  
C   -1.9100805   -1.6015804    2.1470656  
H   -0.7567140   -0.6349833    5.8697035  
H   -3.4728268   -2.9124471    5.2533954  
H   -2.2742832   -1.9066565    1.1752040  
H    1.6189533    1.3585343    2.0405121  
