62

C    6.0555920   -2.4076551   -2.6713504  
C    7.3619157   -2.6163756   -2.2939643  
C    8.0548170   -1.3857502   -2.4940865  
C    7.1116987   -0.4544506   -2.9991960  
N    5.9083931   -1.1080617   -3.0964844  
C    7.4463138    0.8664601   -3.3122728  
C    8.7568050    1.2543799   -3.1115057  
O    9.1376459    2.5328621   -3.4003934  
C    9.7124263    0.3396133   -2.6087063  
O   10.9746804    0.8774881   -2.4646576  
C    9.3830889   -0.9637263   -2.2998878  
H    7.7659941   -3.5420793   -1.9214223  
H    6.7322145    1.5810959   -3.6977077  
H   10.0789078    2.5913078   -3.1909295  
H   11.5587371    0.1948103   -2.1205169  
H   10.1366972   -1.6416501   -1.9165183  
H    5.2175342   -3.0833896   -2.6722512  
C    3.4164202   -0.7248682   -3.0395956  
C    4.6504341   -0.5074352   -3.5630530  
C    4.4860923    0.4201599   -4.6573081  
C    3.0448509    0.7275385   -4.7289413  
N    2.4521483    0.0014840   -3.7217481  
C    2.4820245    1.5683503   -5.6333562  
C    3.3539019    2.2134650   -6.6009271  
O    2.9430837    2.9872291   -7.4558060  
C    4.8835155    1.9023268   -6.5436549  
O    5.6273691    2.4393134   -7.3533394  
C    5.3721315    0.9788706   -5.5227069  
H    1.4224202    1.7802478   -5.6686835  
H    6.4325777    0.7689052   -5.4896580  
H    3.1302861   -1.3547866   -2.2130247  
C    0.0000000    0.0000000    0.0000000  
C    1.0662923   -0.0000101   -0.8334270  
C    0.4961873    0.0000065   -2.1718887  
C   -0.9663854   -0.0000848   -1.9540250  
N   -1.2632773   -0.0000083   -0.6828660  
C   -1.8985359   -0.0000514   -3.0477261  
C   -1.3925770    0.0004566   -4.3020547  
O   -2.1456378    0.0005414   -5.4151314  
C    0.0786240    0.0009326   -4.5545000  
O    0.4683767    0.0012591   -5.7221100  
C    1.0143171    0.0008444   -3.4159031  
H    2.1107200    0.0000633   -0.5721865  
H   -2.9622181   -0.0003268   -2.8593381  
H   -1.5042265    0.0009697   -6.1484419  
C    3.3003543   -0.0005276    2.9438989  
C    2.5232812   -0.0003497    4.0790748  
C    1.1623199    0.0001319    3.6520102  
C    1.1711883   -0.0000583    2.2336141  
N    2.4852299    0.0014920    1.8362361  
C    0.0000000    0.0000000    1.4700000  
C   -1.2020384   -0.0000520    2.1506477  
O   -2.3759250   -0.0003494    1.4542253  
C   -1.2314658    0.0005113    3.5655508  
O   -2.5054393    0.0008037    4.0950179  
C   -0.0764518    0.0007272    4.3195194  
H    2.8919952    0.0005619    5.0905303  
H    2.8036267   -0.0088181    0.8841339  
H   -3.0835639   -0.0000348    2.1118817  
H   -2.4360050    0.0011527    5.0545920  
H   -0.1304098    0.0013421    5.4019087  
H    4.3715549   -0.0004895    2.8367138  
