62

C    9.2349329    0.0129753   -3.1676193  
C   10.0144145    0.0153605   -4.3011404  
C   11.3743687    0.0323612   -3.8712176  
C   11.3624358    0.0395088   -2.4528618  
N   10.0475945    0.0293515   -2.0582673  
C   12.5319054    0.0558580   -1.6867924  
C   13.7353486    0.0648542   -2.3648959  
O   14.9076643    0.0805238   -1.6660095  
C   13.7678261    0.0583134   -3.7797174  
O   15.0428684    0.0692008   -4.3064926  
C   12.6145066    0.0424588   -4.5361087  
H    9.6478987    0.0071038   -5.3133620  
H    9.7272650    0.0206890   -1.1067972  
H   12.5295680    0.0615228   -0.6055130  
H   15.6166819    0.0848188   -2.3221659  
H   14.9755099    0.0637940   -5.2661995  
H   12.6707955    0.0379692   -5.6183699  
C    6.8742265    0.0004675   -4.0661423  
C    5.5942427    0.0008994   -3.5620503  
C    5.7067592    0.0008102   -2.1401013  
C    7.0913509    0.0006005   -1.8321530  
N    7.7720040   -0.0015552   -3.0243458  
C    7.5742853    0.0007691   -0.5200693  
C    6.6425085    0.0014636    0.4997193  
O    7.0593435    0.0020078    1.7994356  
C    5.2567325    0.0013070    0.2125911  
O    4.4562658    0.0016419    1.3362448  
C    4.7795901    0.0008674   -1.0815733  
H    4.6906033    0.0001318   -4.1472242  
H    8.6283021    0.0004667   -0.2787183  
H    6.2603308    0.0021431    2.3424298  
H    3.5363984    0.0015350    1.0543800  
H    7.2178043   -0.0000035   -5.0863941  
C    3.3321168    0.0004716   -1.3379341  
C    2.6974177    0.0000118   -2.5332316  
C    1.2800432   -0.0002116   -2.2052842  
C    1.2395033    0.0000644   -0.7271298  
N    2.4394059    0.0005460   -0.2131041  
C    0.0000000    0.0000000    0.0000000  
C   -1.1468704    0.0000635   -0.7169542  
O   -2.3742206    0.0000074   -0.1695488  
C   -1.1388774    0.0001608   -2.2096352  
O   -2.2206238    0.0000906   -2.7970409  
C    0.1454514    0.0001818   -2.9324241  
H    3.1367978   -0.0000649   -3.5160956  
H   -2.9844350    0.0001027   -0.9290164  
H    0.1083567    0.0003684   -4.0135594  
C    0.8681109    0.7263879    2.2709268  
C    0.6127770    0.5096195    3.5869401  
C   -0.4920590   -0.4175482    3.6542670  
C   -0.8620974   -0.7254003    2.2596025  
N    0.0000000    0.0000000    1.4700000  
C   -1.8641242   -1.5660088    1.8976294  
C   -2.6293522   -2.2103885    2.9520183  
O   -3.5512764   -2.9839180    2.7283916  
C   -2.2549728   -1.8987399    4.4361073  
O   -2.8923672   -2.4351063    5.3323774  
C   -1.1543735   -0.9755647    4.7012123  
H    1.1382914    0.9492124    4.4159191  
H   -2.1192137   -1.7782617    0.8686553  
H   -0.9013378   -0.7652422    5.7314848  
H    1.6172880    1.3558399    1.8188057  
