62

C    2.2241544   -0.0033746   -8.0408025  
C    3.2787354   -0.0031532   -7.1574420  
C    4.4739576   -0.0040631   -7.9359293  
C    4.0826510   -0.0045337   -9.2993087  
N    2.7101247   -0.0060485   -9.3273384  
C    5.0043202   -0.0051456  -10.3506489  
C    6.3454415   -0.0049780  -10.0196336  
O    7.2878409   -0.0052032  -11.0070027  
C    6.7556012   -0.0048855   -8.6651651  
O    8.1251922   -0.0051450   -8.4991341  
C    5.8469040   -0.0045551   -7.6274784  
H    3.1966507   -0.0035305   -6.0840106  
H    2.1466079    0.0038706  -10.1582001  
H    4.7125230   -0.0056505  -11.3918295  
H    8.1467016   -0.0053298  -10.5647083  
H    8.3172838   -0.0050343   -7.5564228  
H    6.1909523   -0.0046736   -6.5998068  
C   -0.1496416   -0.0015616   -4.3176961  
C    0.8605985   -0.0020607   -5.2251593  
C    0.2508226   -0.0027748   -6.5339791  
C   -1.2079377   -0.0026206   -6.3130522  
N   -1.3844307   -0.0022742   -4.9485963  
C   -2.1355997   -0.0027545   -7.3035815  
C   -1.6659551   -0.0032978   -8.6790696  
O   -2.4225824   -0.0035182   -9.6412627  
C   -0.1253091   -0.0037216   -8.9363927  
O    0.2819512   -0.0044869  -10.0902551  
C    0.7762286   -0.0032489   -7.7870095  
H    1.9128694   -0.0021247   -5.0030344  
H   -3.2010529   -0.0025071   -7.1199511  
H   -2.2733177   -0.0005422   -4.4828452  
C    3.3003544    0.0005274   -1.4738988  
C    2.5232813    0.0003494   -2.6090747  
C    1.1623199   -0.0001321   -2.1820103  
C    1.1711883    0.0000582   -0.7636141  
N    2.4852299   -0.0014920   -0.3662360  
C    0.0000000    0.0000000    0.0000000  
C   -1.2020383    0.0000519   -0.6806477  
O   -2.3759250    0.0003494    0.0157744  
C   -1.2314656   -0.0005115   -2.0955510  
O   -2.5054391   -0.0008040   -2.6250180  
C   -0.0764517   -0.0007275   -2.8495195  
H    2.8919953   -0.0005622   -3.6205304  
H    2.8036267    0.0088182    0.5858661  
H   -3.0835639    0.0000346   -0.6418817  
H   -2.4360050   -0.0011531   -3.5845921  
H    4.3715546    0.0004893   -1.3667137  
C    0.8175213    0.6860729    2.3021913  
C    0.0000000    0.0000000    1.4700000  
C   -0.8887526   -0.7456559    2.3478473  
C   -0.4549825   -0.3816753    3.7138435  
N    0.5448156    0.4573574    3.6934124  
C   -1.0945674   -0.9182058    4.8835240  
C   -2.1210866   -1.7789155    4.6970523  
O   -2.8083856   -2.3554314    5.6976972  
C   -2.5824069   -2.1655116    3.3310774  
O   -3.5227682   -2.9541547    3.2362962  
C   -1.9100805   -1.6015804    2.1470656  
H   -0.7567140   -0.6349833    5.8697035  
H   -3.4728268   -2.9124471    5.2533954  
H   -2.2742832   -1.9066565    1.1752040  
H    1.6189533    1.3585343    2.0405121  
