60

C    7.3206373   -4.2765606   -0.7837352  
C    6.6395012   -3.4719779   -1.6675722  
C    7.2949351   -3.5907686   -2.9288793  
C    8.3781297   -4.4892955   -2.7520610  
N    8.3661449   -4.8853531   -1.4376744  
C    9.2450786   -4.8424015   -3.7905727  
C    9.0141605   -4.2784054   -5.0302348  
O    9.8301282   -4.5889731   -6.0794060  
C    7.9388215   -3.3795208   -5.2263714  
O    7.8411572   -2.9029277   -6.5173643  
C    7.0833207   -3.0305128   -4.2022438  
H    5.7770633   -2.8722665   -1.4319034  
H    9.0117876   -5.5309689   -1.0201778  
H   10.0725556   -5.5265206   -3.6622611  
H    9.4977510   -4.0941100   -6.8396039  
H    7.0902871   -2.3032584   -6.5642079  
H    7.1442600   -4.4632258    0.2617342  
C    5.9779324   -2.0928588   -4.4468283  
C    5.0400348   -1.6304881   -3.5804347  
C    4.1859901   -0.7341815   -4.3234535  
C    4.7069268   -0.7121366   -5.7036458  
N    5.7934739   -1.5560768   -5.7119686  
C    4.1728098    0.0176376   -6.7155012  
C    3.0072073    0.8361658   -6.4258168  
O    2.4535601    1.5290921   -7.2693975  
C    2.4388220    0.8282646   -4.9709350  
O    1.4580059    1.5136694   -4.7150422  
C    3.1006054    0.0006263   -3.9654951  
H    4.9561724   -1.8877887   -2.5395805  
H    4.5702538    0.0195463   -7.7209583  
H    6.3633292   -1.7534002   -6.5140761  
C    3.2798083    0.0005857   -1.4499652  
C    2.5571142    0.0005565   -2.5996556  
C    1.1637432    0.0001548   -2.2210361  
C    1.1336964   -0.0000200   -0.7459473  
N    2.4483512   -0.0001428   -0.3402723  
C    0.0000000    0.0000000    0.0000000  
C   -1.2757368   -0.0000186   -0.6964415  
O   -2.3524598   -0.0000639   -0.1142311  
C   -1.2676497   -0.0000872   -2.2584083  
O   -2.3355766   -0.0004101   -2.8557295  
C    0.0181558    0.0001758   -2.9516296  
H    0.0150788    0.0003319   -4.0331631  
H    4.3498547    0.0008612   -1.3200026  
H    2.7563626    0.0012823    0.6148059  
C    0.8175213    0.6860729    2.3021913  
C    0.0000000    0.0000000    1.4700000  
C   -0.8887526   -0.7456559    2.3478473  
C   -0.4549825   -0.3816753    3.7138435  
N    0.5448156    0.4573574    3.6934124  
C   -1.0945674   -0.9182058    4.8835240  
C   -2.1210866   -1.7789155    4.6970523  
O   -2.8083856   -2.3554314    5.6976972  
C   -2.5824069   -2.1655116    3.3310774  
O   -3.5227682   -2.9541547    3.2362962  
C   -1.9100805   -1.6015804    2.1470656  
H   -0.7567140   -0.6349833    5.8697035  
H   -3.4728268   -2.9124471    5.2533954  
H   -2.2742832   -1.9066565    1.1752040  
H    1.6189533    1.3585343    2.0405121  
