60

C    8.3681472   -0.7127232    0.7228170  
C    9.6358386   -0.4642427    1.1957678  
C   10.2497805    0.4445562    0.2837592  
C    9.3004933    0.7175427   -0.7342081  
N    8.1698811   -0.0026513   -0.4381470  
C    9.5652591    1.5775879   -1.8042601  
C   10.8109099    2.1731361   -1.8473032  
O   11.1220187    3.0219114   -2.8699486  
C   11.7715673    1.9130158   -0.8411760  
O   12.9642440    2.5815799   -1.0252604  
C   11.5111529    1.0644607    0.2146008  
H   10.0656370   -0.8869615    2.0877189  
H    8.8460915    1.7896841   -2.5833723  
H   12.0263566    3.3218417   -2.7103235  
H   13.5567706    2.3509795   -0.3032221  
H   12.2668572    0.8844012    0.9702249  
H    7.5902120   -1.3413941    1.1209977  
C    5.6463485   -0.0007504   -0.7029965  
C    4.7161325   -0.0005435   -1.6923264  
C    5.4339816   -0.0003284   -2.9451344  
C    6.8689501   -0.0004570   -2.6021236  
N    6.9298893   -0.0003136   -1.2276507  
C    7.8767467   -0.0007183   -3.5109972  
C    7.5246255   -0.0006576   -4.9211555  
O    8.3596092   -0.0008157   -5.8161997  
C    6.0111289   -0.0002696   -5.3073303  
O    5.7025039    0.0000911   -6.4913959  
C    5.0159834   -0.0002905   -4.2379666  
H    8.9229464   -0.0009388   -3.2382781  
H    3.9701999   -0.0002262   -4.5137575  
H    5.5021930   -0.0009684    0.3652304  
C    3.2573665   -0.0002920   -1.5109385  
C    2.5379463   -0.0001709   -0.3591964  
C    1.1435038    0.0000331   -0.7338500  
C    1.1092599   -0.0000083   -2.2088477  
N    2.4227553    0.0001909   -2.6182613  
C   -0.0265539   -0.0002524   -2.9515660  
C   -1.3003040   -0.0002640   -2.2514977  
O   -2.3786790   -0.0004133   -2.8306421  
C   -1.2877727    0.0000311   -0.6895603  
O   -2.3539959    0.0003306   -0.0892030  
C    0.0000000    0.0000000    0.0000000  
H    2.9384091   -0.0000367    0.6389234  
H   -0.0296303   -0.0004086   -4.0327229  
H    2.7280482   -0.0013407   -3.5742119  
C    2.5528530    2.1414826    2.8079335  
C    2.0663498    1.7338582    4.0032312  
C    0.9804344    0.8229586    3.6752840  
C    0.9495562    0.7966882    2.1971295  
N    1.8690446    1.5676019    1.6831036  
C    0.0000000    0.0000000    1.4700000  
C   -0.8785127   -0.7372425    2.1869543  
O   -1.8187535   -1.5261249    1.6395491  
C   -0.8723269   -0.7321790    3.6796354  
O   -1.7010379   -1.4274584    4.2670412  
C    0.1115397    0.0933559    4.4024240  
H    2.4028853    2.0163452    4.9860947  
H   -2.2861435   -1.9184361    2.3990168  
H    0.0832434    0.0693689    5.4835595  
H    3.3664920    2.8238276    2.6198634  
