60

C   -0.0813830   -0.8975533   -9.6373942  
C   -0.1747048   -0.4956921  -10.9497465  
C   -0.4323880    0.9071863  -10.9382878  
C   -0.4858803    1.3094452   -9.5791508  
N   -0.2706014    0.1889450   -8.8157701  
C   -0.7227101    2.6314231   -9.1904676  
C   -0.9086306    3.5643724  -10.1920745  
O   -1.1429701    4.8695016   -9.8684444  
C   -0.8592753    3.1823832  -11.5538625  
O   -1.0641389    4.2266521  -12.4318596  
C   -0.6259501    1.8783526  -11.9380360  
H   -0.0710276   -1.1352309  -11.8095345  
H   -0.7648269    2.9444091   -8.1563169  
H   -1.2427523    5.3442880  -10.7038410  
H   -1.0148326    3.8835650  -13.3293358  
H   -0.5939334    1.6156614  -12.9889624  
H    0.1037594   -1.8734991   -9.2224131  
C    2.3617620   -2.0132534   -6.1309085  
C    1.9111467   -1.6311559   -4.9133181  
C    0.8167584   -0.7132544   -5.1894898  
C    0.7423551   -0.6552468   -6.6651875  
N    1.6455071   -1.4153047   -7.2225185  
C   -0.2276461    0.1569485   -7.3467464  
C   -1.0846242    0.8781011   -6.5885501  
O   -2.0400760    1.6785701   -7.0909459  
C   -1.0349500    0.8404012   -5.0971505  
O   -1.8457778    1.5226373   -4.4707857  
C   -0.0307352   -0.0004646   -4.4215603  
H    2.2762462   -1.9347703   -3.9470904  
H   -2.4850415    2.0539986   -6.3097853  
H    3.1689154   -2.6915916   -6.3574800  
C    3.2573670   -0.0002920   -1.5109380  
C    2.5379468   -0.0001709   -0.3591961  
C    1.1435043    0.0000332   -0.7338500  
C    1.1092609   -0.0000082   -2.2088477  
N    2.4227562    0.0001909   -2.6182613  
C   -0.0265532   -0.0002522   -2.9515663  
C   -1.3003035   -0.0002639   -2.2514981  
O   -2.3786784   -0.0004131   -2.8306429  
C   -1.2877725    0.0000312   -0.6895608  
O   -2.3539958    0.0003307   -0.0892036  
C    0.0000000    0.0000000    0.0000000  
H    2.9384091   -0.0000369    0.6389239  
H    4.3270394   -0.0004765   -1.6439446  
H    2.7280494   -0.0013406   -3.5742113  
C    2.5528530    2.1414826    2.8079335  
C    2.0663498    1.7338582    4.0032312  
C    0.9804344    0.8229586    3.6752840  
C    0.9495562    0.7966882    2.1971295  
N    1.8690446    1.5676019    1.6831036  
C    0.0000000    0.0000000    1.4700000  
C   -0.8785127   -0.7372425    2.1869543  
O   -1.8187535   -1.5261249    1.6395491  
C   -0.8723269   -0.7321790    3.6796354  
O   -1.7010379   -1.4274584    4.2670412  
C    0.1115397    0.0933559    4.4024240  
H    2.4028853    2.0163452    4.9860947  
H   -2.2861435   -1.9184361    2.3990168  
H    0.0832434    0.0693689    5.4835595  
H    3.3664920    2.8238276    2.6198634  
