60

C    7.0491298   -0.7228371   -5.8831055  
C    6.3381247   -0.0065528   -6.8179186  
C    7.2875210    0.7197045   -7.5962476  
C    8.5727485    0.4039200   -7.0859584  
N    8.3917323   -0.4728923   -6.0452617  
C    9.7497142    0.9419803   -7.6151406  
C    9.6270326    1.8144861   -8.6790304  
O   10.7440770    2.3685972   -9.2341754  
C    8.3534351    2.1421696   -9.2018959  
O    8.3977786    3.0251725  -10.2609919  
C    7.1918891    1.6119469   -8.6801677  
H    9.1262274   -0.8807778   -5.4955998  
H   10.7322712    0.7054271   -7.2306580  
H   10.4383385    2.9387199   -9.9516353  
H    7.4971670    3.1935641  -10.5544992  
H    6.2305559    1.8816946   -9.1015385  
H    6.7046829   -1.3911323   -5.1125886  
C    2.8699641   -0.0020527   -4.0185824  
C    4.1392625   -0.0034669   -4.4881133  
C    4.0033713   -0.0054228   -5.9365709  
C    2.5438442   -0.0050011   -6.1739827  
N    1.8743091   -0.0029476   -5.0533991  
C    1.9886063   -0.0065221   -7.4994244  
C    2.8521791   -0.0079908   -8.5403735  
O    2.4734368   -0.0095120   -9.8297894  
C    4.3304462   -0.0080820   -8.3332793  
O    5.0569388   -0.0095858   -9.3269729  
C    4.8754003   -0.0065478   -6.9639918  
H    5.0547096   -0.0031237   -3.9215163  
H    0.9180298   -0.0063785   -7.6435631  
H    3.3075358   -0.0102827  -10.3332090  
C    3.2573673   -0.0002921   -1.5109381  
C    2.5379469   -0.0001710   -0.3591962  
C    1.1435042    0.0000332   -0.7338498  
C    1.1092607   -0.0000083   -2.2088474  
N    2.4227562    0.0001908   -2.6182610  
C   -0.0265532   -0.0002523   -2.9515663  
C   -1.3003033   -0.0002639   -2.2514979  
O   -2.3786784   -0.0004132   -2.8306425  
C   -1.2877726    0.0000312   -0.6895609  
O   -2.3539956    0.0003308   -0.0892035  
C    0.0000000    0.0000000    0.0000000  
H    2.9384091   -0.0000368    0.6389240  
H   -0.0296292   -0.0004086   -4.0327231  
H    4.3270395   -0.0004765   -1.6439444  
C    2.5528530    2.1414826    2.8079335  
C    2.0663498    1.7338582    4.0032312  
C    0.9804344    0.8229586    3.6752840  
C    0.9495562    0.7966882    2.1971295  
N    1.8690446    1.5676019    1.6831036  
C    0.0000000    0.0000000    1.4700000  
C   -0.8785127   -0.7372425    2.1869543  
O   -1.8187535   -1.5261249    1.6395491  
C   -0.8723269   -0.7321790    3.6796354  
O   -1.7010379   -1.4274584    4.2670412  
C    0.1115397    0.0933559    4.4024240  
H    2.4028853    2.0163452    4.9860947  
H   -2.2861435   -1.9184361    2.3990168  
H    0.0832434    0.0693689    5.4835595  
H    3.3664920    2.8238276    2.6198634  
