62

C    1.8559644   -1.8420075   -8.4420107  
C    2.8015662   -2.6609619   -9.0143891  
C    2.6263590   -2.5751017  -10.4273762  
C    1.5500771   -1.6809270  -10.6597425  
N    1.1040155   -1.2556743   -9.4330382  
C    1.0992057   -1.3574337  -11.9430415  
C    1.7468259   -1.9471160  -13.0112367  
O    1.3474233   -1.6660074  -14.2857834  
C    2.8224695   -2.8421359  -12.7996989  
O    3.3631129   -3.3465690  -13.9644293  
C    3.2676211   -3.1619378  -11.5339609  
H    3.5275287   -3.2488723   -8.4792887  
H    0.3539182   -0.6057443   -9.2816235  
H    0.2793617   -0.6767886  -12.1268373  
H    1.9232826   -2.1751657  -14.8709407  
H    4.0828451   -3.9415447  -13.7329261  
H    4.0938016   -3.8509805  -11.4031042  
C    2.2783849   -2.0910257   -5.9524491  
C    1.7853127   -1.6292412   -4.7744381  
C    0.6997749   -0.7327359   -5.0949402  
C    0.6001069   -0.7099363   -6.5667883  
N    1.5849256   -1.5536733   -7.0262766  
C   -0.3061438    0.0202236   -7.2648431  
C   -1.2459580    0.8383997   -6.5165965  
O   -2.1000519    1.5316274   -7.0534952  
C   -1.1584126    0.8296992   -4.9570889  
O   -1.9441939    1.5148019   -4.3164307  
C   -0.1387079    0.0017019   -4.3179684  
H    2.1415247   -1.8870539   -3.7929800  
H   -0.3624275    0.0226853   -8.3445354  
H    3.0901481   -2.7785182   -6.1264725  
C    3.3041273    0.0001178   -1.5420428  
C    2.5845373   -0.0004780   -0.3695851  
C    1.2040007   -0.0000007   -0.7283589  
C    1.1422374    0.0006038   -2.1454372  
N    2.4348641    0.0026111   -2.6077464  
C   -0.0655179    0.0008799   -2.8497918  
C   -1.2321766    0.0002325   -2.1101402  
O   -2.4392814    0.0001148   -2.7472522  
C   -1.1911209   -0.0000007   -0.6955266  
O   -2.4371528   -0.0002320   -0.1032862  
C    0.0000000    0.0000000    0.0000000  
H    3.0031533   -0.0000660    0.6222584  
H    2.7054631   -0.0071097   -3.5745261  
H   -3.1132988   -0.0000648   -2.0551787  
H   -2.3200282   -0.0004072    0.8516409  
H    4.3686625    0.0004073   -1.7024290  
C    0.8400945    0.7047457    2.2710304  
C    0.0000000    0.0000000    1.4700000  
C   -0.8844236   -0.7423113    2.3369512  
C   -0.4878984   -0.4098547    3.7186280  
N    0.5629682    0.4714286    3.6095011  
C   -1.0836927   -0.9095027    4.8308716  
C   -2.1891196   -1.8367527    4.6554461  
O   -2.7906899   -2.3413415    5.5944904  
C   -2.6257283   -2.2031529    3.2011665  
O   -3.5549479   -2.9829990    3.0410059  
C   -1.9068976   -1.5999348    2.0816745  
H   -0.7774656   -0.6525820    5.8354244  
H   -2.2155208   -1.8586617    1.0779135  
H    1.6384792    1.3747609    1.9961646  
H    1.0518368    0.8833920    4.3830260  
