62

C   -1.2000939    0.6277267   -9.0632832  
C   -0.2274829   -0.2033408   -9.5690726  
C   -0.3347484   -0.1529730  -10.9905352  
C   -1.3993293    0.7330320  -11.2964574  
N   -1.9040715    1.1877664  -10.1035333  
C   -1.7883481    1.0236406  -12.6075639  
C   -1.0897590    0.4088640  -13.6284469  
O   -1.4277559    0.6574199  -14.9272888  
C   -0.0248163   -0.4785044  -13.3433316  
O    0.5714861   -1.0106685  -14.4678623  
C    0.3593294   -0.7658708  -12.0501278  
H    0.4724182   -0.7763405   -8.9852888  
H   -2.6610718    1.8397830  -10.0045070  
H   -2.5989525    1.6978938  -12.8473690  
H   -0.8240869    0.1350074  -15.4712871  
H    1.2797386   -1.5982899  -14.1873572  
H    1.1788100   -1.4498222  -11.8626697  
C    0.5332456   -0.7193585   -5.2240418  
C   -0.2963293   -0.0005341   -4.3948471  
C   -1.1923433    0.7280154   -5.2320895  
C   -0.8589931    0.4109477   -6.5738313  
N    0.1940937   -0.4688043   -6.5330672  
C   -1.5389806    0.9506277   -7.6698017  
C   -2.5745410    1.8261032   -7.4064882  
O   -3.2722193    2.3819000   -8.4396147  
C   -2.9218736    2.1551067   -6.0745972  
O   -3.9749411    3.0410853   -5.9774569  
C   -2.2513089    1.6232869   -4.9929147  
H    0.6396921   -0.8781470   -7.3342302  
H   -3.9408696    2.9540002   -8.0410249  
H   -4.1451803    3.2101965   -5.0457791  
H   -2.5398825    1.8941057   -3.9840239  
H    1.3409601   -1.3898547   -4.9853124  
C    3.1301146   -0.0010313   -1.7028256  
C    2.5367765   -0.0002766   -0.4864669  
C    1.1089901    0.0001027   -0.7656184  
C    1.0177865   -0.0004150   -2.2415133  
N    2.1993571   -0.0011612   -2.7963824  
C   -0.2459219   -0.0002879   -2.9257116  
C   -1.3675326   -0.0000606   -2.1698520  
O   -2.6129318    0.0000865   -2.6748483  
C   -1.3083588    0.0000910   -0.6783229  
O   -2.3693264    0.0004206   -0.0541685  
C    0.0000000    0.0000000    0.0000000  
H    3.0096016   -0.0001007    0.4807518  
H   -3.1967444    0.0002093   -1.8949026  
H    4.1849275   -0.0015114   -1.9271979  
C    0.0000000    0.0000000    1.4700000  
C    1.0541688    0.0001722    2.3260392  
C    0.5103138    0.0000454    3.6635956  
C   -0.9576371   -0.0002459    3.5155732  
N   -1.2018458    0.0001392    2.1615969  
C   -1.8348311   -0.0008317    4.5510609  
C   -1.2972847   -0.0009736    5.9014604  
O   -2.0050672   -0.0014265    6.9001319  
C    0.2542623   -0.0004184    6.0817573  
O    0.7184670   -0.0002256    7.2139121  
C    1.0974552   -0.0000873    4.8889129  
H    2.0940752    0.0005483    2.0517982  
H   -2.9081052   -0.0011668    4.4207061  
H    2.1707277    0.0000911    5.0223670  
H   -2.1128194   -0.0014912    1.7406791  
