62

C    2.6048804    0.0088096   -7.3533956  
C    3.3356462    0.0079978   -6.1878708  
C    4.7126899    0.0088641   -6.5598260  
C    4.7609022    0.0104919   -7.9774300  
N    3.4639164    0.0084643   -8.4273631  
C    5.9618686    0.0119965   -8.6932964  
C    7.1355454    0.0121624   -7.9648320  
O    8.3365030    0.0139564   -8.6134543  
C    7.1080154    0.0101790   -6.5498923  
O    8.3596519    0.0102026   -5.9695915  
C    5.9235989    0.0084207   -5.8430110  
H    2.9265325    0.0058093   -5.1920727  
H    3.1840812    0.0195297   -9.3914951  
H    6.0053778    0.0130970   -9.7737177  
H    9.0171057    0.0134473   -7.9278564  
H    8.2516630    0.0088304   -5.0135889  
H    5.9339606    0.0067405   -4.7593288  
C   -0.9736295    0.0040466   -4.6965763  
C    0.3136159    0.0047605   -5.1144025  
C    0.2364014    0.0059852   -6.5671710  
C   -1.2123329    0.0057279   -6.8634019  
N   -1.9266294    0.0046738   -5.7708042  
C   -1.7135251    0.0067576   -8.2102097  
C   -0.8085700    0.0083772   -9.2153901  
O   -1.1348679    0.0094718  -10.5190648  
C    0.6601145    0.0090496   -8.9486950  
O    1.4261914    0.0104125   -9.9122017  
C    1.1492586    0.0079249   -7.5584926  
H    1.2054050    0.0045798   -4.5112544  
H   -2.7773985    0.0063349   -8.3975170  
H   -0.2810964    0.0105430  -10.9883484  
C    1.1188642    0.0008216   -0.8003808  
C    0.0000000    0.0000000    0.0000000  
C   -1.1323861    0.0008904   -0.8673528  
C   -0.6382661    0.0019681   -2.1969280  
N    0.7324017    0.0038477   -2.1202241  
C   -1.4770913    0.0027323   -3.3154808  
C   -2.8395472    0.0020956   -3.0876858  
O   -3.7039201    0.0024441   -4.1440350  
C   -3.3517867    0.0013945   -1.7684332  
O   -4.7300494    0.0012387   -1.7073122  
C   -2.5248543    0.0009134   -0.6644817  
H    1.3576316   -0.0056175   -2.9057045  
H   -4.5940031    0.0021847   -3.7685129  
H   -4.9934602    0.0007284   -0.7819915  
H   -2.9462576    0.0005617    0.3339659  
H    2.1619896    0.0009343   -0.5342067  
C    2.4951002    2.0940188    2.9809380  
C    1.9440701    1.6314916    1.8291961  
C    0.8759964    0.7350050    2.2038498  
C    0.8497377    0.7130254    3.6788474  
N    1.8560616    1.5571714    4.0882609  
C   -0.0205033   -0.0168748    4.4215661  
C   -0.9962600   -0.8356168    3.7214979  
O   -1.8224391   -1.5286685    4.3006425  
C   -0.9864710   -0.8277881    2.1595606  
O   -1.8030528   -1.5133726    1.5592035  
C    0.0000000    0.0000000    1.4700000  
H    2.2509283    1.8888011    0.8310761  
H   -0.0229599   -0.0187323    5.5027230  
H    3.3143982    2.7817323    3.1139444  
H    2.0889452    1.7545833    5.0442112  
