62

C    4.3946595   -3.5715821    0.2418039  
C    5.2199479   -4.3452717    1.0246010  
C    6.5451192   -4.1787058    0.5238259  
C    6.4657743   -3.2842134   -0.5741339  
N    5.1457116   -2.9364199   -0.7193614  
C    7.5864979   -2.8910305   -1.3118162  
C    8.8096422   -3.4100544   -0.9340464  
O    9.9364276   -3.0591338   -1.6197749  
C    8.9091030   -4.3041772    0.1584137  
O   10.1958453   -4.7336115    0.4098518  
C    7.8038645   -4.6927083    0.8864366  
H    4.9053710   -4.9555854    1.8537885  
H    7.5326790   -2.2097453   -2.1497636  
H   10.6692341   -3.5268503   -1.1984666  
H   10.1748617   -5.3332632    1.1619039  
H    7.9110376   -5.3792066    1.7181286  
H    3.3295065   -3.4236850    0.2921488  
C    4.6171595   -2.0114327   -1.7322441  
C    3.3328188   -1.6298292   -1.9231035  
C    3.3780282   -0.7112573   -3.0503486  
C    4.8069993   -0.6523619   -3.4260564  
N    5.5382126   -1.4125189   -2.6569807  
C    5.2745461    0.1606798   -4.5148398  
C    4.3562413    0.8817939   -5.1975148  
O    4.6514324    1.6829996   -6.2352881  
C    2.9068167    0.8432087   -4.8427746  
O    2.1270277    1.5254609   -5.5073661  
C    2.4521483    0.0014840   -3.7217481  
H    2.4622557   -1.9341723   -1.3676120  
H    6.3245851    0.1848315   -4.7673174  
H    3.7953904    2.0581840   -6.5102100  
C    0.0000000    0.0000000    0.0000000  
C    1.0662923   -0.0000101   -0.8334270  
C    0.4961873    0.0000065   -2.1718887  
C   -0.9663854   -0.0000848   -1.9540250  
N   -1.2632773   -0.0000083   -0.6828660  
C   -1.8985359   -0.0000514   -3.0477261  
C   -1.3925770    0.0004566   -4.3020547  
O   -2.1456378    0.0005414   -5.4151314  
C    0.0786240    0.0009326   -4.5545000  
O    0.4683767    0.0012591   -5.7221100  
C    1.0143171    0.0008444   -3.4159031  
H    2.1107200    0.0000633   -0.5721865  
H   -2.9622181   -0.0003268   -2.8593381  
H   -1.5042265    0.0009697   -6.1484419  
C    0.0000000    0.0000000    1.4700000  
C    1.0521667    0.0011902    2.3562342  
C    0.4917218    0.0011957    3.6679131  
C   -0.9187428   -0.0003148    3.5178682  
N   -1.1833171    0.0009411    2.1707914  
C   -1.7951701   -0.0010350    4.6072090  
C   -1.2375837   -0.0005224    5.8710424  
O   -2.0474215   -0.0015360    6.9697579  
C    0.1673580    0.0013566    6.0411963  
O    0.5673524    0.0020687    7.3615553  
C    1.0325770    0.0023412    4.9669890  
H    2.0953057    0.0030649    2.0900562  
H   -2.0989778   -0.0102372    1.7591824  
H   -2.8710934   -0.0020419    4.4995513  
H   -1.4634884   -0.0006497    7.7393593  
H    1.5290710    0.0033153    7.3880045  
H    2.1042148    0.0039609    5.1284455  
