62

C    5.3217864   -4.3674922   -6.7424040  
C    5.6994432   -4.9992577   -5.5802015  
C    4.7927749   -4.5770115   -4.5632156  
C    3.8757960   -3.6804402   -5.1692152  
N    4.2266706   -3.5741127   -6.4921658  
C    2.8381504   -3.0666529   -4.4611576  
C    2.7239271   -3.3635891   -3.1169254  
O    1.7284465   -2.7922998   -2.3782375  
C    3.6293515   -4.2553741   -2.4942349  
O    3.3838926   -4.4483516   -1.1504149  
C    4.6534164   -4.8610450   -3.1920741  
H    6.5273240   -5.6797795   -5.4777430  
H    3.7495559   -3.0148895   -7.1759872  
H    1.8282559   -3.1294713   -1.4784497  
H    4.0392816   -5.0631340   -0.8067397  
H    5.3316205   -5.5396096   -2.6880228  
H    5.7478180   -4.4189388   -7.7297285  
C    1.8836765   -2.1362878   -5.0810771  
C    1.8358577   -1.7275852   -6.3703619  
C    0.7030357   -0.8169581   -6.4333933  
C    0.1677631   -0.7920094   -5.0551901  
N    0.8558147   -1.5634002   -4.2579886  
C   -0.9736297    0.0040464   -4.6965763  
C   -1.5536731    0.7419470   -5.6704281  
O   -2.6247580    1.5303580   -5.4774857  
C   -1.0366304    0.7382185   -7.0707186  
O   -1.6142412    1.4340391   -7.9058358  
C    0.1355193   -0.0866884   -7.4135273  
H    2.4887432   -2.0091995   -7.1787617  
H   -2.8038829    1.9233573   -6.3507659  
H    0.4792065   -0.0617341   -8.4389471  
C    1.1188642    0.0008222   -0.8003808  
C    0.0000000    0.0000000    0.0000000  
C   -1.1323862    0.0008899   -0.8673528  
C   -0.6382663    0.0019679   -2.1969280  
N    0.7324016    0.0038481   -2.1202242  
C   -1.4770914    0.0027318   -3.3154808  
C   -2.8395473    0.0020945   -3.0876857  
O   -3.7039201    0.0024425   -4.1440349  
C   -3.3517868    0.0013931   -1.7684331  
O   -4.7300497    0.0012366   -1.7073121  
C   -2.5248543    0.0009123   -0.6644817  
H    1.3576314   -0.0056167   -2.9057046  
H   -4.5940032    0.0021826   -3.7685128  
H   -4.9934602    0.0007259   -0.7819913  
H   -2.9462577    0.0005603    0.3339659  
H    2.1619895    0.0009355   -0.5342068  
C    2.3971438    2.0127888    3.1728260  
C    1.9431056    1.6308205    1.9564670  
C    0.8496017    0.7127664    2.2356185  
C    0.7794028    0.6545384    3.7115134  
N    1.6840587    1.4146091    4.2663826  
C   -0.1885723   -0.1578550    4.3957118  
C   -1.0476298   -0.8789867    3.6398520  
O   -2.0015663   -1.6796266    4.1448486  
C   -1.0022026   -0.8410666    2.1483229  
O   -1.8147390   -1.5232959    1.5241687  
C    0.0000000    0.0000000    1.4700000  
H    2.3054237    1.9346118    0.9892483  
H   -0.2170646   -0.1815267    5.4753125  
H   -2.4487139   -2.0549881    3.3649027  
H    3.2048689    2.6911772    3.3971983  
