64

C    2.8170689   -0.7299897   -3.3539686  
C    1.6478431   -0.0100050   -3.2702997  
C    1.5099575    0.7041973   -4.4972887  
C    2.6345479    0.3775835   -5.2976300  
N    3.4089717   -0.4937983   -4.5726620  
C    2.8289227    0.9022290   -6.5789395  
C    1.8704174    1.7722053   -7.0612132  
O    2.0105392    2.3133984   -8.3063999  
C    0.7415890    2.1105593   -6.2775811  
O   -0.1223480    2.9894086   -6.8977259  
C    0.5493241    1.5935740   -5.0133474  
H    3.6839495    0.6573772   -7.1939026  
H    1.2432527    2.8840055   -8.4440389  
H   -0.8566724    3.1656137   -6.3016354  
H   -0.3251226    1.8712824   -4.4365465  
H    3.2763620   -1.3921980   -2.6401835  
C    1.1188641    0.0008254   -0.8003806  
C    0.0000000    0.0000000    0.0000000  
C   -1.1323863    0.0008869   -0.8673525  
C   -0.6382663    0.0019664   -2.1969280  
N    0.7324013    0.0038504   -2.1202239  
C   -1.4770914    0.0027281   -3.3154804  
C   -2.8395479    0.0020869   -3.0876854  
O   -3.7039202    0.0024330   -4.1440347  
C   -3.3517870    0.0013841   -1.7684325  
O   -4.7300498    0.0012239   -1.7073114  
C   -2.5248546    0.0009056   -0.6644811  
H   -1.1067573    0.0036963   -4.3313810  
H   -4.5940039    0.0021709   -3.7685122  
H   -4.9934604    0.0007127   -0.7819907  
H   -2.9462579    0.0005524    0.3339663  
H    2.1619894    0.0009412   -0.5342065  
C    5.0532909   -2.4018117   -4.8220306  
C    4.6667009   -1.0987455   -5.0342416  
C    5.7113886   -0.4697670   -5.7742510  
C    6.7175885   -1.4467378   -5.9864191  
N    6.2870196   -2.6077537   -5.3937388  
C    7.8988073   -1.1766979   -6.6839790  
C    8.0672067    0.1028161   -7.1765876  
O    9.2018377    0.4205797   -7.8655384  
C    7.0748417    1.0914127   -6.9748344  
O    7.3902792    2.3162238   -7.5259059  
C    5.9094153    0.8257919   -6.2865367  
H    6.7880289   -3.4777857   -5.3898363  
H    8.6696119   -1.9168644   -6.8489530  
H    9.1179536    1.3498156   -8.1160378  
H    6.6686436    2.9261660   -7.3447537  
H    5.1674446    1.6033947   -6.1476425  
H    4.5472358   -3.2002254   -4.3068576  
C    0.8400945    0.7047457    2.2710304  
C    0.0000000    0.0000000    1.4700000  
C   -0.8844236   -0.7423113    2.3369512  
C   -0.4878984   -0.4098547    3.7186280  
N    0.5629682    0.4714286    3.6095011  
C   -1.0836927   -0.9095027    4.8308716  
C   -2.1891196   -1.8367527    4.6554461  
O   -2.7906899   -2.3413415    5.5944904  
C   -2.6257283   -2.2031529    3.2011665  
O   -3.5549479   -2.9829990    3.0410059  
C   -1.9068976   -1.5999348    2.0816745  
H   -0.7774656   -0.6525820    5.8354244  
H   -2.2155208   -1.8586617    1.0779135  
H    1.6384792    1.3747609    1.9961646  
H    1.0518368    0.8833920    4.3830260  
