62

C    5.0576607   -0.9707545   -7.1973487  
C    4.3949756    0.1042336   -6.6517153  
C    4.7431249    1.2471587   -7.4308905  
C    5.6284390    0.8043392   -8.4467911  
N    5.7996473   -0.5468676   -8.2749044  
C    6.1751860    1.6664985   -9.4020607  
C    5.8215347    2.9999195   -9.3306635  
O    6.3261946    3.8851241  -10.2388192  
C    4.9399170    3.4609741   -8.3241882  
O    4.6852503    4.8154654   -8.3861648  
C    4.4003713    2.6110450   -7.3812997  
H    6.3673901   -1.1382865   -8.8544490  
H    6.8506092    1.3352726  -10.1787803  
H    5.9577623    4.7488805  -10.0120006  
H    4.0819983    5.0444855   -7.6725547  
H    3.7279559    2.9932090   -6.6221651  
H    5.0608793   -2.0060681   -6.9022651  
C    4.6212872   -2.1169896   -2.7781366  
C    4.8855751   -1.6159779   -4.0317739  
C    3.8097322   -0.7409924   -4.3657838  
C    2.9114591   -0.7479356   -3.2680660  
N    3.4333735   -1.5950871   -2.3222560  
C    1.7334695    0.0049281   -3.2500363  
C    1.4574012    0.7791354   -4.3602465  
O    0.3208001    1.5340732   -4.3951776  
C    2.3411259    0.7990193   -5.4654406  
O    1.9261037    1.6191054   -6.4943035  
C    3.5032851    0.0563442   -5.4840273  
H    5.7471774   -1.8529553   -4.6321715  
H    3.0199241   -1.7930092   -1.4290216  
H    0.3218063    1.9898346   -5.2469672  
H    2.5782324    1.5750928   -7.2002745  
H    5.1854433   -2.8064341   -2.1736918  
C    1.1319246    0.0015678   -0.8009268  
C    0.7969914    0.0034958   -2.1169401  
C   -0.6453340    0.0035696   -2.1842669  
C   -1.1266832    0.0015410   -0.7896025  
N    0.0000000    0.0000000    0.0000000  
C   -2.4346129    0.0013913   -0.4276292  
C   -3.4350111    0.0031335   -1.4820181  
O   -4.6384614    0.0030875   -1.2583914  
C   -2.9478961    0.0050442   -2.9661074  
O   -3.7809382    0.0062135   -3.8623773  
C   -1.5113825    0.0053055   -3.2312122  
H   -2.7664565    0.0000174    0.6013448  
H   -1.1823533    0.0068381   -4.2614848  
H    2.1104316    0.0009435   -0.3488059  
C    0.8175213    0.6860729    2.3021913  
C    0.0000000    0.0000000    1.4700000  
C   -0.8887526   -0.7456559    2.3478473  
C   -0.4549825   -0.3816753    3.7138435  
N    0.5448156    0.4573574    3.6934124  
C   -1.0945674   -0.9182058    4.8835240  
C   -2.1210866   -1.7789155    4.6970523  
O   -2.8083856   -2.3554314    5.6976972  
C   -2.5824069   -2.1655116    3.3310774  
O   -3.5227682   -2.9541547    3.2362962  
C   -1.9100805   -1.6015804    2.1470656  
H   -0.7567140   -0.6349833    5.8697035  
H   -3.4728268   -2.9124471    5.2533954  
H   -2.2742832   -1.9066565    1.1752040  
H    1.6189533    1.3585343    2.0405121  
