62

C    9.8663493   -0.7069807   -2.2370957  
C   11.2164471   -0.4562432   -2.1544318  
C   11.5359685    0.4540330   -3.2051001  
C   10.3304762    0.7255529   -3.9015136  
N    9.3367080    0.0031042   -3.2890505  
C   10.2699840    1.5864629   -5.0014971  
C   11.4478312    2.1843994   -5.4056327  
O   11.4455192    3.0341122   -6.4738063  
C   12.6607205    1.9257716   -4.7238503  
O   13.7466171    2.5966712   -5.2473672  
C   12.7211904    1.0763650   -3.6387804  
H   11.8885455   -0.8784429   -1.4270913  
H    9.3544017    1.7974507   -5.5366557  
H   12.3565581    3.3357122   -6.5847576  
H   14.5244486    2.3669570   -4.7298602  
H   13.6648091    0.8974911   -3.1367213  
H    9.2395498   -1.3372683   -1.6297911  
C    5.7396274   -0.0009031   -0.8296831  
C    4.7577216    0.0005129   -1.7610467  
C    5.4529346    0.0023817   -3.0390041  
C    6.8880473    0.0019128   -2.6825832  
N    7.0622966   -0.0000911   -1.3888976  
C    7.9203001    0.0033443   -3.6823525  
C    7.5363310    0.0047725   -4.9792334  
O    8.3921597    0.0062106   -6.0153782  
C    6.0959296    0.0049095   -5.3709020  
O    5.8193625    0.0063723   -6.5703721  
C    5.0558665    0.0034671   -4.3267797  
H    7.8236441    0.0069709   -6.8065428  
H    4.0240702    0.0035016   -4.6517827  
H    5.6367309   -0.0024972    0.2438079  
C    3.3041270    0.0001177   -1.5420435  
C    2.5845370   -0.0004780   -0.3695856  
C    1.2040004   -0.0000007   -0.7283590  
C    1.1422370    0.0006038   -2.1454373  
N    2.4348634    0.0026110   -2.6077469  
C   -0.0655187    0.0008799   -2.8497918  
C   -1.2321769    0.0002326   -2.1101398  
O   -2.4392822    0.0001149   -2.7472517  
C   -1.1911211   -0.0000007   -0.6955263  
O   -2.4371526   -0.0002319   -0.1032858  
C    0.0000000    0.0000000    0.0000000  
H    3.0031534   -0.0000661    0.6222578  
H    2.7054623   -0.0071098   -3.5745266  
H   -0.1193555    0.0014846   -3.9297472  
H   -3.1132992   -0.0000646   -2.0551783  
H   -2.3200279   -0.0004070    0.8516411  
C    2.5128556    2.1077716    2.9199648  
C    1.9592212    1.6432552    4.0696553  
C    0.8915788    0.7479214    3.6910360  
C    0.8684491    0.7287414    2.2159470  
N    1.8754542    1.5738793    1.8102719  
C    0.0000000    0.0000000    1.4700000  
C   -0.9772830   -0.8200135    2.1664417  
O   -1.8021297   -1.5120829    1.5842315  
C   -0.9711318   -0.8147624    3.7284083  
O   -1.7894187   -1.5009653    4.3257297  
C    0.0140216    0.0115358    4.4216297  
H    2.2638494    1.8988021    5.0689105  
H    0.0117648    0.0094386    5.5031631  
H    3.3327358    2.7953732    2.7900019  
H    2.1123206    1.7707734    0.8551938  
