60

C    4.1998779    2.1225344   -6.0852247  
C    5.0724547    1.6605699   -5.1272760  
C    5.9772362    0.7729421   -5.7815601  
C    5.6046636    0.7327274   -7.1495866  
N    4.5208571    1.5619202   -7.2993220  
C    6.2812712   -0.0437168   -8.0951692  
C    7.3537101   -0.7929827   -7.6517144  
O    8.0498906   -1.5687045   -8.5329648  
C    7.7404899   -0.7663611   -6.2906445  
O    8.8273639   -1.5669635   -6.0058931  
C    7.0732907   -0.0008200   -5.3572005  
H    5.0578753    1.9293319   -4.0848998  
H    4.0439296    1.7432377   -8.1639870  
H    6.0021997   -0.0788238   -9.1392425  
H    8.7473417   -2.0017185   -8.0237237  
H    9.0230072   -1.4915168   -5.0669384  
H    3.3730595    2.8064650   -5.9982265  
C    4.7161325   -0.0005435   -1.6923264  
C    5.6747634   -0.0008964   -0.7370224  
C    6.9326495   -0.0010016   -1.4679276  
C    6.5359790   -0.0007816   -2.8924403  
N    5.2379004   -0.0004319   -3.0302106  
C    7.5063012   -0.0007606   -3.9524225  
C    8.8134761   -0.0005619   -3.6051057  
O    9.8251245   -0.0005266   -4.4897574  
C    9.2455282   -0.0004050   -2.1762981  
O   10.4523082   -0.0003511   -1.9335990  
C    8.2310910   -0.0004739   -1.1072606  
H    5.5443949   -0.0009741    0.3316587  
H   10.6319759   -0.0003444   -3.9437338  
H    8.5850041   -0.0002400   -0.0850199  
C    3.2573665   -0.0002920   -1.5109385  
C    2.5379463   -0.0001709   -0.3591964  
C    1.1435038    0.0000331   -0.7338500  
C    1.1092599   -0.0000083   -2.2088477  
N    2.4227553    0.0001909   -2.6182613  
C   -0.0265539   -0.0002524   -2.9515660  
C   -1.3003040   -0.0002640   -2.2514977  
O   -2.3786790   -0.0004133   -2.8306421  
C   -1.2877727    0.0000311   -0.6895603  
O   -2.3539959    0.0003306   -0.0892030  
C    0.0000000    0.0000000    0.0000000  
H    2.9384091   -0.0000367    0.6389234  
H   -0.0296303   -0.0004086   -4.0327229  
H    2.7280482   -0.0013407   -3.5742119  
C    2.3971438    2.0127888    3.1728260  
C    1.9431056    1.6308205    1.9564670  
C    0.8496017    0.7127664    2.2356185  
C    0.7794028    0.6545384    3.7115134  
N    1.6840587    1.4146091    4.2663826  
C   -0.1885723   -0.1578550    4.3957118  
C   -1.0476298   -0.8789867    3.6398520  
O   -2.0015663   -1.6796266    4.1448486  
C   -1.0022026   -0.8410666    2.1483229  
O   -1.8147390   -1.5232959    1.5241687  
C    0.0000000    0.0000000    1.4700000  
H    2.3054237    1.9346118    0.9892483  
H   -0.2170646   -0.1815267    5.4753125  
H   -2.4487139   -2.0549881    3.3649027  
H    3.2048689    2.6911772    3.3971983  
