62

C    1.7630851   -4.5889502   -7.3126755  
C    1.1828360   -3.4804517   -6.7408288  
C    1.2717903   -2.4245750   -7.6957174  
C    1.9212885   -2.9526113   -8.8408177  
N    2.2076637   -4.2684467   -8.5740143  
C    2.1787544   -2.1893008   -9.9835592  
C    1.7728945   -0.8689684   -9.9701976  
O    1.9990907   -0.0787123  -11.0598515  
C    1.1237103   -0.3237987   -8.8369879  
O    0.7816780    1.0052716   -8.9781586  
C    0.8696306   -1.0761646   -7.7091951  
H    0.7498172   -3.4377840   -5.7561118  
H    2.6591570   -4.9039488   -9.2066844  
H    2.6734891   -2.5857816  -10.8594828  
H    1.6428984    0.7928787  -10.8436997  
H    0.3483975    1.2953621   -8.1696288  
H    1.8962771   -5.5824635   -6.9200559  
C    0.5157023   -0.7055390   -5.2240925  
C   -0.2963293   -0.0005341   -4.3948471  
C   -1.2098551    0.7417637   -5.2310887  
C   -0.8609897    0.4090167   -6.6254926  
N    0.1928749   -0.4724046   -6.5523132  
C   -1.4945019    0.9085670   -7.7167381  
C   -2.5931305    1.8360110   -7.5036697  
O   -3.2264754    2.3405319   -8.4216202  
C   -2.9795614    2.2027197   -6.0353372  
O   -3.9026313    2.9827310   -5.8435412  
C   -2.2228515    1.5995820   -4.9410487  
H   -1.2229387    0.6514327   -8.7311565  
H   -2.4968365    1.8585228   -3.9273394  
H    1.3229471   -1.3756270   -4.9766502  
C    3.1301146   -0.0010313   -1.7028256  
C    2.5367765   -0.0002766   -0.4864669  
C    1.1089901    0.0001027   -0.7656184  
C    1.0177865   -0.0004150   -2.2415133  
N    2.1993571   -0.0011612   -2.7963824  
C   -0.2459219   -0.0002879   -2.9257116  
C   -1.3675326   -0.0000606   -2.1698520  
O   -2.6129318    0.0000865   -2.6748483  
C   -1.3083588    0.0000910   -0.6783229  
O   -2.3693264    0.0004206   -0.0541685  
C    0.0000000    0.0000000    0.0000000  
H    3.0096016   -0.0001007    0.4807518  
H   -3.1967444    0.0002093   -1.8949026  
H    4.1849275   -0.0015114   -1.9271979  
C    2.5311839    2.1237619    3.0120429  
C    1.9795631    1.6616747    1.8395852  
C    0.9223175    0.7739173    2.1983588  
C    0.8753926    0.7337535    3.6154372  
N    1.8668922    1.5631002    4.0777464  
C   -0.0496243   -0.0427881    4.3197917  
C   -0.9437528   -0.7922060    3.5801400  
O   -1.8685244   -1.5680278    4.2172520  
C   -0.9124520   -0.7656372    2.1655264  
O   -1.8671164   -1.5663939    1.5732860  
C    0.0000000    0.0000000    1.4700000  
H    2.3005065    1.9304404    0.8477417  
H    2.0679347    1.7444845    5.0445261  
H   -0.0904770   -0.0778569    5.3997470  
H   -2.3849669   -2.0011402    3.5251786  
H   -1.7775064   -1.4909735    0.6183591  
H    3.3468514    2.8078103    3.1724291  
