64

C    5.3621436   -1.0463018   -6.6129872  
C    6.3642579   -1.9307619   -6.2874633  
C    7.1151507   -2.1654874   -7.4772794  
C    6.5195270   -1.3903579   -8.5050595  
N    5.4566758   -0.7245886   -7.9467463  
C    7.0012550   -1.3765094   -9.8175141  
C    8.1045410   -2.1591768  -10.0974599  
O    8.6162585   -2.1825495  -11.3626144  
C    8.7125172   -2.9397419   -9.0855809  
O    9.8018333   -3.6650672   -9.5222028  
C    8.2376525   -2.9540987   -7.7906592  
H    6.5325997   -2.3554686   -5.3126414  
H    4.8497693   -0.0893233   -8.4326307  
H    6.5517151   -0.7880287  -10.6054266  
H    9.3723831   -2.7834161  -11.3402574  
H   10.1531764   -4.1637552   -8.7782456  
H    8.7240982   -3.5621510   -7.0369216  
C    4.1131424   -0.7164330   -4.4363679  
C    4.3031089   -0.4650141   -5.7754606  
C    3.2858795    0.4514276   -6.1754341  
C    2.4983380    0.7258323   -5.0280870  
N    3.0267438   -0.0008951   -3.9901699  
C    1.4017892    1.5928623   -5.0531656  
C    1.0948488    2.1940651   -6.2583711  
O    0.0345234    3.0497692   -6.3389626  
C    1.8684578    1.9326409   -7.4142275  
O    1.4356813    2.6073983   -8.5370590  
C    2.9502015    1.0771978   -7.3902825  
H    0.7974638    1.8060760   -4.1822279  
H   -0.0027671    3.3527640   -7.2555155  
H    2.0114734    2.3754407   -9.2720846  
H    3.5239133    0.8963075   -8.2917329  
H    4.6657748   -1.3506593   -3.7645696  
C    3.3003547    0.0005277   -1.4738986  
C    2.5232816    0.0003497   -2.6090746  
C    1.1623203   -0.0001319   -2.1820102  
C    1.1711884    0.0000584   -0.7636141  
N    2.4852301   -0.0014919   -0.3662359  
C    0.0000000    0.0000000    0.0000000  
C   -1.2020383    0.0000520   -0.6806479  
O   -2.3759248    0.0003493    0.0157745  
C   -1.2314655   -0.0005115   -2.0955511  
O   -2.5054388   -0.0008040   -2.6250184  
C   -0.0764513   -0.0007274   -2.8495195  
H    2.8036266    0.0088183    0.5858662  
H   -3.0835639    0.0000346   -0.6418822  
H   -2.4360043   -0.0011529   -3.5845924  
H   -0.1304091   -0.0013423   -3.9319089  
H    4.3715553    0.0004897   -1.3667133  
C    2.4951002    2.0940188    2.9809380  
C    1.9440701    1.6314916    1.8291961  
C    0.8759964    0.7350050    2.2038498  
C    0.8497377    0.7130254    3.6788474  
N    1.8560616    1.5571714    4.0882609  
C   -0.0205033   -0.0168748    4.4215661  
C   -0.9962600   -0.8356168    3.7214979  
O   -1.8224391   -1.5286685    4.3006425  
C   -0.9864710   -0.8277881    2.1595606  
O   -1.8030528   -1.5133726    1.5592035  
C    0.0000000    0.0000000    1.4700000  
H    2.2509283    1.8888011    0.8310761  
H   -0.0229599   -0.0187323    5.5027230  
H    3.3143982    2.7817323    3.1139444  
H    2.0889452    1.7545833    5.0442112  
