62

C    3.3041286    0.0001177   -1.5420405  
C    2.5845377   -0.0004779   -0.3695834  
C    1.2040013   -0.0000007   -0.7283580  
C    1.1422395    0.0006038   -2.1454365  
N    2.4348658    0.0026110   -2.6077446  
C   -0.0655157    0.0008800   -2.8497917  
C   -1.2321756    0.0002327   -2.1101405  
O   -2.4392796    0.0001150   -2.7472537  
C   -1.1911200   -0.0000007   -0.6955273  
O   -2.4371524   -0.0002319   -0.1032878  
C    0.0000000    0.0000000    0.0000000  
H    3.0031532   -0.0000662    0.6222604  
H    2.7054651   -0.0071097   -3.5745243  
H   -0.1193524    0.0014848   -3.9297472  
H   -3.1132973   -0.0000645   -2.0551807  
H   -2.3200290   -0.0004070    0.8516394  
C    6.5771485   -0.0035574    1.3345587  
C    7.6645483   -0.0027623    0.5288665  
C    7.1290988   -0.0009889   -0.8238311  
C    5.6614008   -0.0010505   -0.6437016  
N    5.3318743   -0.0024721    0.6193897  
C    4.7577233    0.0005129   -1.7610426  
C    5.2958140    0.0024561   -3.0019248  
O    4.5716659    0.0040582   -4.1340236  
C    6.7730280    0.0029429   -3.2164016  
O    7.1927183    0.0046218   -4.3735869  
C    7.6790911    0.0012688   -2.0540887  
H    8.7019025   -0.0032211    0.8169145  
H    5.2317480    0.0052553   -4.8505732  
H    6.5493783   -0.0048795    2.4126125  
C   10.0920651   -0.6849826   -1.6723307  
C    9.1243215    0.0019915   -2.3228064  
C    9.8247691    0.7495033   -3.3558107  
C   11.2471112    0.3854991   -3.1796627  
N   11.4099483   -0.4551461   -2.1943762  
C   12.2800632    0.9236296   -4.0213943  
C   11.9089212    1.7858929   -4.9950934  
O   12.7669558    2.3640022   -5.8527685  
C   10.4815592    2.1725569   -5.1982937  
O   10.2163257    2.9626606   -6.1041679  
C    9.4405072    1.6069661   -4.3217982  
H   13.3114393    0.6403504   -3.8699810  
H   12.2085739    2.9218646   -6.4238656  
H    8.4183876    1.9121481   -4.5016975  
H    9.9814258   -1.3588571   -0.8376894  
C    2.5311839    2.1237619    3.0120429  
C    1.9795631    1.6616747    1.8395852  
C    0.9223175    0.7739173    2.1983588  
C    0.8753926    0.7337535    3.6154372  
N    1.8668922    1.5631002    4.0777464  
C   -0.0496243   -0.0427881    4.3197917  
C   -0.9437528   -0.7922060    3.5801400  
O   -1.8685244   -1.5680278    4.2172520  
C   -0.9124520   -0.7656372    2.1655264  
O   -1.8671164   -1.5663939    1.5732860  
C    0.0000000    0.0000000    1.4700000  
H    2.3005065    1.9304404    0.8477417  
H    2.0679347    1.7444845    5.0445261  
H   -0.0904770   -0.0778569    5.3997470  
H   -2.3849669   -2.0011402    3.5251786  
H   -1.7775064   -1.4909735    0.6183591  
H    3.3468514    2.8078103    3.1724291  
