62

C   -1.1180411   -0.0429312   -0.8003805  
C    0.0000000    0.0000000    0.0000000  
C    1.1316170    0.0417291   -0.8673531  
C    0.6378871    0.0220551   -2.1969284  
N   -0.7317388   -0.0314100   -2.1202240  
C    1.4761466    0.0528618   -3.3154815  
C    2.8376136    0.1047761   -3.0876864  
O    3.7013860    0.1369597   -4.1440357  
C    3.3494642    0.1247556   -1.7684337  
O    4.7267435    0.1767841   -1.7073139  
C    2.5230994    0.0941136   -0.6644825  
H    1.1061107    0.0379576   -4.3313814  
H    4.5908292    0.1707182   -3.7685144  
H    4.9899496    0.1872078   -0.7819923  
H    2.9441917    0.1103253    0.3339650  
H   -2.1604229   -0.0823032   -0.5342061  
C   -1.6470538   -0.0520153   -3.2702993  
C   -3.0040410   -0.1018584   -3.2835855  
C   -3.4117972   -0.1011211   -4.6687097  
C   -2.1722425   -0.0463995   -5.4670208  
N   -1.1383075   -0.0182290   -4.5597859  
C   -2.1313506   -0.0298657   -6.8233976  
C   -3.3923450   -0.0683215   -7.5451653  
O   -3.4609496   -0.0572483   -8.7672424  
C   -4.7173462   -0.1262466   -6.7200458  
O   -5.7851350   -0.1586639   -7.3167344  
C   -4.6336719   -0.1396030   -5.2617341  
H   -3.6461039   -0.1351401   -2.4214594  
H   -5.5556642   -0.1800002   -4.6977991  
H   -0.1641243    0.0188939   -4.7977701  
C    1.7475909   -2.0027328   -6.2360762  
C    2.4188355   -1.5012748   -7.3047415  
C    1.5043446   -0.6312094   -8.0058325  
C    0.2362195   -0.6671150   -7.2525994  
N    0.4496600   -1.5167795   -6.1917495  
C   -0.8803795    0.0247885   -7.5934526  
C   -0.8298818    0.8604509   -8.7815829  
O   -1.7829480    1.5222272   -9.1714775  
C    0.5027685    0.9133377   -9.5946331  
O    0.5571374    1.6131712  -10.5968991  
C    1.6392295    0.1231402   -9.1278399  
H    3.4382008   -1.7164763   -7.5715671  
H    2.5583559    0.1654247   -9.6962964  
H    2.0918309   -2.6865719   -5.4772925  
H   -0.2317720   -1.7467015   -5.4918683  
C    2.5311839    2.1237619    3.0120429  
C    1.9795631    1.6616747    1.8395852  
C    0.9223175    0.7739173    2.1983588  
C    0.8753926    0.7337535    3.6154372  
N    1.8668922    1.5631002    4.0777464  
C   -0.0496243   -0.0427881    4.3197917  
C   -0.9437528   -0.7922060    3.5801400  
O   -1.8685244   -1.5680278    4.2172520  
C   -0.9124520   -0.7656372    2.1655264  
O   -1.8671164   -1.5663939    1.5732860  
C    0.0000000    0.0000000    1.4700000  
H    2.3005065    1.9304404    0.8477417  
H    2.0679347    1.7444845    5.0445261  
H   -0.0904770   -0.0778569    5.3997470  
H   -2.3849669   -2.0011402    3.5251786  
H   -1.7775064   -1.4909735    0.6183591  
H    3.3468514    2.8078103    3.1724291  
