62

C    7.7710082   -0.0176747    3.1941923  
C    7.4395699   -0.0273368    4.5293033  
C    6.0152171   -0.0163989    4.6047982  
C    5.5279357   -0.0003636    3.2727972  
N    6.6202828    0.0003740    2.4412955  
C    4.1637948    0.0132341    2.9666546  
C    3.2753748    0.0102894    4.0244254  
O    1.9321804    0.0227722    3.7821744  
C    3.7421759   -0.0052487    5.3603414  
O    2.7335373   -0.0058218    6.3016125  
C    5.0877945   -0.0183956    5.6631024  
H    8.1384438   -0.0395278    5.3480956  
H    3.7859890    0.0256311    1.9535846  
H    1.4989524    0.0184380    4.6456331  
H    3.1338720   -0.0167578    7.1763789  
H    5.4154315   -0.0299698    6.6960588  
H    8.7372090   -0.0207840    2.7194238  
C    6.5698748   -0.0006426    0.9721604  
C    7.6069608   -0.0018566    0.1026600  
C    6.9912938   -0.0024303   -1.2154651  
C    5.5370524   -0.0015106   -0.9475766  
N    5.2839248   -0.0003802    0.3330147  
C    4.5679461   -0.0016854   -2.0086701  
C    5.0305954   -0.0023424   -3.2796108  
O    4.2398094   -0.0025846   -4.3662103  
C    6.4922743   -0.0029067   -3.5823566  
O    6.8417596   -0.0036170   -4.7626448  
C    7.4664607   -0.0027577   -2.4765153  
H    8.6597322   -0.0022169    0.3279327  
H    4.8556973   -0.0030409   -5.1210843  
H    8.5162191   -0.0030652   -2.7377369  
C    3.1301149   -0.0010311   -1.7028252  
C    2.5367768   -0.0002767   -0.4864665  
C    1.1089904    0.0001028   -0.7656183  
C    1.0177872   -0.0004148   -2.2415132  
N    2.1993578   -0.0011611   -2.7963820  
C   -0.2459209   -0.0002877   -2.9257118  
C   -1.3675319   -0.0000605   -2.1698524  
O   -2.6129313    0.0000867   -2.6748490  
C   -1.3083584    0.0000910   -0.6783232  
O   -2.3693261    0.0004206   -0.0541692  
C    0.0000000    0.0000000    0.0000000  
H    3.0096017   -0.0001007    0.4807525  
H   -0.2829630   -0.0004687   -4.0053125  
H   -3.1967441    0.0002094   -1.8949034  
C    0.8576279    0.7185626    2.2703808  
C    0.0000000    0.0000000    1.4700000  
C   -0.8668858   -0.7285659    2.3373528  
C   -0.4876752   -0.4117774    3.6669281  
N    0.5635254    0.4678311    3.5902241  
C   -1.1297612   -0.9515493    4.7854808  
C   -2.1738724   -1.8268314    4.5576857  
O   -2.8357962   -2.3827064    5.6140350  
C   -2.5667212   -2.1555554    3.2384331  
O   -3.6226318   -3.0413663    3.1773122  
C   -1.9335634   -1.6236449    2.1344818  
H    1.0363952    0.8769718    4.3757045  
H   -0.8454472   -0.7142436    5.8013813  
H   -3.5178062   -2.9546422    5.2385129  
H   -3.8247440   -3.2102924    2.2519915  
H   -2.2566033   -1.8942483    1.1360343  
H    1.6567807    1.3889844    2.0042067  
