62

C    2.8635264   -0.6498012   -6.6053370  
C    2.1189241    0.0763075   -7.5057820  
C    3.0392965    0.8118374   -8.3098409  
C    4.3422525    0.4913261   -7.8499460  
N    4.1993011   -0.3971131   -6.8131919  
C    5.4991220    1.0360676   -8.4153645  
C    5.3377369    1.9202410   -9.4643509  
O    6.4337803    2.4812776  -10.0533672  
C    4.0459440    2.2527984   -9.9371016  
O    4.0516445    3.1475343  -10.9872253  
C    2.9042111    1.7159879   -9.3796010  
H    4.9533391   -0.8105501   -6.2950437  
H    6.4950271    0.7959630   -8.0693504  
H    6.1020917    3.0591105  -10.7529069  
H    3.1409454    3.3185302  -11.2460522  
H    1.9281704    1.9897095   -9.7628759  
H    2.5474062   -1.3268537   -5.8303362  
C   -1.2456296    0.0472577   -4.5828766  
C    0.0058404    0.0519619   -5.0980275  
C   -0.1823949    0.0659870   -6.5405493  
C   -1.6495596    0.0680016   -6.7249606  
N   -2.2780918    0.0571383   -5.5809245  
C   -2.2524138    0.0807966   -8.0293725  
C   -1.4270886    0.0914993   -9.1008472  
O   -1.8522588    0.1040203  -10.3756471  
C    0.0577063    0.0901652   -8.9474068  
O    0.7477518    0.1002103   -9.9666992  
C    0.6518707    0.0768892   -7.5988091  
H    0.9411980    0.0466696   -4.5649666  
H   -3.3275062    0.0817756   -8.1346577  
H   -1.0369298    0.1094333  -10.9089037  
C    1.1243418    0.0099155   -0.7919003  
C    0.7474093    0.0234033   -2.1148542  
C   -0.6787365    0.0234953   -2.1414700  
C   -1.1201738    0.0099357   -0.7935546  
N    0.0000000    0.0000000    0.0000000  
C   -2.4730811    0.0065398   -0.4408241  
C   -3.3971945    0.0173300   -1.4675058  
O   -4.7313507    0.0149490   -1.1793472  
C   -2.9763626    0.0305537   -2.8186325  
O   -4.0166449    0.0397860   -3.7247623  
C   -1.6418538    0.0336381   -3.1673481  
H    1.4178738    0.0310004   -2.9571209  
H   -2.8160170   -0.0039189    0.5845965  
H   -5.1938800    0.0234412   -2.0274384  
H   -3.6464643    0.0484782   -4.6127344  
H    2.1062469    0.0051381   -0.3505407  
C    0.8681109    0.7263879    2.2709268  
C    0.6127770    0.5096195    3.5869401  
C   -0.4920590   -0.4175482    3.6542670  
C   -0.8620974   -0.7254003    2.2596025  
N    0.0000000    0.0000000    1.4700000  
C   -1.8641242   -1.5660088    1.8976294  
C   -2.6293522   -2.2103885    2.9520183  
O   -3.5512764   -2.9839180    2.7283916  
C   -2.2549728   -1.8987399    4.4361073  
O   -2.8923672   -2.4351063    5.3323774  
C   -1.1543735   -0.9755647    4.7012123  
H    1.1382914    0.9492124    4.4159191  
H   -2.1192137   -1.7782617    0.8686553  
H   -0.9013378   -0.7652422    5.7314848  
H    1.6172880    1.3558399    1.8188057  
