64

C   -0.1387082    0.0017016   -4.3179681  
C    0.8680288    0.0011949   -5.2554904  
C    0.2429716    0.0018226   -6.5376381  
C   -1.1582733    0.0029973   -6.3175526  
N   -1.3554494    0.0009409   -4.9589746  
C   -2.0878508    0.0041700   -7.3619059  
C   -1.5938811    0.0044637   -8.6519334  
O   -2.4574189    0.0059469   -9.7089641  
C   -0.1991536    0.0029308   -8.8918274  
O    0.1346053    0.0030284  -10.2304644  
C    0.7184764    0.0015001   -7.8620320  
H    1.9231270   -0.0006423   -5.0415805  
H   -2.2494823    0.0117255   -4.5022805  
H   -3.1570799    0.0049245   -7.2008117  
H   -1.9125279    0.0055952  -10.5066857  
H    1.0938142    0.0019684  -10.3047657  
C    3.3041272    0.0001176   -1.5420427  
C    2.5845371   -0.0004781   -0.3695851  
C    1.2040006   -0.0000008   -0.7283587  
C    1.1422374    0.0006037   -2.1454372  
N    2.4348640    0.0026109   -2.6077464  
C   -0.0655181    0.0008796   -2.8497919  
C   -1.2321767    0.0002324   -2.1101402  
O   -2.4392817    0.0001147   -2.7472522  
C   -1.1911210   -0.0000007   -0.6955260  
O   -2.4371528   -0.0002319   -0.1032862  
C    0.0000000    0.0000000    0.0000000  
H    3.0031534   -0.0000661    0.6222589  
H    2.7054628   -0.0071099   -3.5745258  
H   -3.1132992   -0.0000649   -2.0551787  
H   -2.3200286   -0.0004070    0.8516416  
H    4.3686622    0.0004070   -1.7024288  
C    3.1127907   -0.7202762   -7.4711572  
C    2.1593629   -0.0003147   -8.1531379  
C    2.8388185    0.7275954   -9.1744540  
C    4.2167432    0.4089839   -9.0661224  
N    4.3485803   -0.4710333   -8.0207490  
C    5.1866950    0.9476823   -9.9168790  
C    4.7577876    1.8237455  -10.8950044  
O    5.6628601    2.3786333  -11.7528836  
C    3.3872958    2.1542864  -11.0187459  
O    3.1194387    3.0406784  -12.0414407  
C    2.4298987    1.6234358  -10.1796306  
H    5.2116131   -0.8813702   -7.7128859  
H    6.2384679    0.7089862   -9.8394289  
H    5.1604625    2.9513594  -12.3468933  
H    2.1726402    3.2108436  -12.0562697  
H    1.3876067    1.8954264  -10.2984881  
H    3.0092703   -1.3907521   -6.6352716  
C    2.3971438    2.0127888    3.1728260  
C    1.9431056    1.6308205    1.9564670  
C    0.8496017    0.7127664    2.2356185  
C    0.7794028    0.6545384    3.7115134  
N    1.6840587    1.4146091    4.2663826  
C   -0.1885723   -0.1578550    4.3957118  
C   -1.0476298   -0.8789867    3.6398520  
O   -2.0015663   -1.6796266    4.1448486  
C   -1.0022026   -0.8410666    2.1483229  
O   -1.8147390   -1.5232959    1.5241687  
C    0.0000000    0.0000000    1.4700000  
H    2.3054237    1.9346118    0.9892483  
H   -0.2170646   -0.1815267    5.4753125  
H   -2.4487139   -2.0549881    3.3649027  
H    3.2048689    2.6911772    3.3971983  
