62

C   -0.0307358   -0.0004643   -4.4215602  
C    1.0189053   -0.0016745   -5.3107841  
C    0.4547307   -0.0019269   -6.6208635  
C   -0.9553011   -0.0005395   -6.4668059  
N   -1.2160420   -0.0016280   -5.1189819  
C   -1.8348247   -0.0000666   -7.5536491  
C   -1.2808357   -0.0007044   -8.8190642  
O   -2.0937964    0.0000674   -9.9154713  
C    0.1236162   -0.0024638   -8.9932144  
O    0.5198527   -0.0033255  -10.3147053  
C    0.9918880   -0.0032045   -7.9214728  
H    2.0627975   -0.0034036   -5.0475750  
H   -2.1305290    0.0095157   -4.7047714  
H   -2.9104370    0.0008455   -7.4429316  
H   -1.5120550   -0.0008701  -10.6867310  
H    1.4814922   -0.0044772  -10.3438913  
H    2.0630623   -0.0047375   -8.0859770  
C    3.2573667   -0.0002917   -1.5109384  
C    2.5379466   -0.0001708   -0.3591963  
C    1.1435040    0.0000333   -0.7338502  
C    1.1092604   -0.0000080   -2.2088477  
N    2.4227557    0.0001912   -2.6182616  
C   -0.0265537   -0.0002520   -2.9515661  
C   -1.3003040   -0.0002638   -2.2514979  
O   -2.3786786   -0.0004130   -2.8306424  
C   -1.2877728    0.0000313   -0.6895606  
O   -2.3539959    0.0003306   -0.0892032  
C    0.0000000    0.0000000    0.0000000  
H    2.9384091   -0.0000367    0.6389235  
H    2.7280487   -0.0013403   -3.5742117  
C    5.6506104    0.0006729   -0.6678805  
C    6.9152385    0.0024393   -1.1626408  
C    6.8040785    0.0027751   -2.6022515  
C    5.3606764    0.0010763   -2.9078306  
N    4.7161330   -0.0005432   -1.6923264  
C    4.8400798    0.0012367   -4.1610999  
C    5.7629692    0.0029883   -5.2839567  
O    5.3925541    0.0032090   -6.4506160  
C    7.2958234    0.0045528   -4.9836905  
O    8.0824529    0.0057269   -5.9209598  
C    7.7361581    0.0044964   -3.5908669  
H    7.8224236    0.0032154   -0.5850345  
H    3.7780219    0.0001018   -4.3634395  
H    8.7991583    0.0057902   -3.3914805  
H    5.3226857   -0.0000597    0.3589370  
C    0.8676693    0.7151171    2.2619005  
C    0.5875920    0.4624972    3.5848544  
C   -0.5048400   -0.4542819    3.6114698  
C   -0.8517165   -0.7276451    2.2635546  
N    0.0000000    0.0000000    1.4700000  
C   -1.8902865   -1.5946756    1.9108239  
C   -2.5912627   -2.1969500    2.9375057  
O   -3.6148162   -3.0527051    2.6493466  
C   -2.2603868   -1.9365747    4.2886322  
O   -3.0513550   -2.6123276    5.1947621  
C   -1.2361111   -1.0811317    4.6373480  
H    1.1060808    0.8876438    4.4271209  
H   -2.1597133   -1.8070987    0.8854031  
H   -3.9636755   -3.3565188    3.4974381  
H   -2.7621927   -2.3810384    6.0827341  
H   -1.0058879   -0.9010589    5.6809233  
H    1.6167816    1.3499334    1.8205408  
