64

C   -1.1149615    0.6331321   -8.9713572  
C   -0.1500714   -0.1972679   -9.4927880  
C   -0.2793879   -0.1458842  -10.9123789  
C   -1.3488437    0.7400242  -11.2010926  
N   -1.8351533    1.1937259  -10.0001466  
C   -1.7582376    1.0314819  -12.5057921  
C   -1.0753893    0.4176696  -13.5378433  
O   -1.4335650    0.6670811  -14.8311023  
C   -0.0058940   -0.4695867  -13.2699406  
O    0.5730482   -1.0007409  -14.4039792  
C    0.3983488   -0.7577905  -11.9830637  
H    0.5589676   -0.7704864   -8.9203572  
H   -2.5907162    1.8454405   -9.8889063  
H   -2.5726605    1.7056667  -12.7324943  
H   -0.8382550    0.1452526  -15.3847864  
H    1.2857374   -1.5883548  -14.1349310  
H    1.2208375   -1.4416321  -11.8088471  
C    0.6781142   -0.7162598   -5.1604645  
C   -0.1387079    0.0017019   -4.3179684  
C   -1.0478129    0.7305977   -5.1406708  
C   -0.7352233    0.4146204   -6.4876569  
N    0.3186251   -0.4648429   -6.4638853  
C   -1.4322861    0.9549029   -7.5725470  
C   -2.4638923    1.8298708   -7.2925530  
O   -3.1776738    2.3862184   -8.3143196  
C   -2.7906190    2.1577870   -5.9551904  
O   -3.8423105    3.0433750   -5.8410699  
C   -2.1032017    1.6253724   -4.8844344  
H    0.7518616   -0.8734599   -7.2721674  
H   -3.8402272    2.9578221   -7.9049826  
H   -3.9981266    3.2117475   -4.9067382  
H   -2.3761698    1.8953598   -3.8709881  
H    1.4896295   -1.3866876   -4.9347903  
C    3.3041273    0.0001178   -1.5420428  
C    2.5845373   -0.0004780   -0.3695851  
C    1.2040007   -0.0000007   -0.7283589  
C    1.1422374    0.0006038   -2.1454372  
N    2.4348641    0.0026111   -2.6077464  
C   -0.0655179    0.0008799   -2.8497918  
C   -1.2321766    0.0002325   -2.1101402  
O   -2.4392814    0.0001148   -2.7472522  
C   -1.1911209   -0.0000007   -0.6955266  
O   -2.4371528   -0.0002320   -0.1032862  
C    0.0000000    0.0000000    0.0000000  
H    3.0031533   -0.0000660    0.6222584  
H    2.7054631   -0.0071097   -3.5745261  
H   -3.1132988   -0.0000648   -2.0551787  
H   -2.3200282   -0.0004072    0.8516409  
H    4.3686625    0.0004073   -1.7024290  
C    0.0000000    0.0000000    1.4700000  
C    1.0541688    0.0001722    2.3260392  
C    0.5103138    0.0000454    3.6635956  
C   -0.9576371   -0.0002459    3.5155732  
N   -1.2018458    0.0001392    2.1615969  
C   -1.8348311   -0.0008317    4.5510609  
C   -1.2972847   -0.0009736    5.9014604  
O   -2.0050672   -0.0014265    6.9001319  
C    0.2542623   -0.0004184    6.0817573  
O    0.7184670   -0.0002256    7.2139121  
C    1.0974552   -0.0000873    4.8889129  
H    2.0940752    0.0005483    2.0517982  
H   -2.9081052   -0.0011668    4.4207061  
H    2.1707277    0.0000911    5.0223670  
H   -2.1128194   -0.0014912    1.7406791  
