62

C   -1.1188202    0.0099960   -0.8003807  
C    0.0000000    0.0000000    0.0000000  
C    1.1323246   -0.0118385   -0.8673530  
C    0.6382171   -0.0081390   -2.1969278  
N   -0.7324049    0.0032336   -2.1202236  
C    1.4769959   -0.0170131   -3.3154808  
C    2.8393942   -0.0295491   -3.0876856  
O    3.7037234   -0.0382546   -4.1440352  
C    3.3516164   -0.0338005   -1.7684332  
O    4.7298162   -0.0469702   -1.7073127  
C    2.5247273   -0.0253245   -0.6644821  
H   -1.3575139    0.0187433   -2.9057040  
H    4.5937670   -0.0466009   -3.7685134  
H    4.9932198   -0.0490068   -0.7819915  
H    2.9461146   -0.0290470    0.3339656  
H   -2.1618973    0.0199686   -0.5342064  
C    0.9735448   -0.0134597   -4.6965766  
C   -0.3100005   -0.0016216   -5.1397996  
C   -0.2571536   -0.0034661   -6.5827269  
C    1.1726450   -0.0174786   -6.9464170  
N    1.8657918   -0.0225896   -5.7579677  
C    1.6421054   -0.0235466   -8.2197093  
C    0.6746019   -0.0155307   -9.3043328  
O    0.9975142   -0.0200127  -10.4850140  
C   -0.8447841   -0.0004154   -8.9423339  
O   -1.6686365    0.0067400   -9.8470310  
C   -1.2284116    0.0047081   -7.5328466  
H   -1.1930419    0.0075582   -4.5259861  
H    2.6950632   -0.0339673   -8.4648250  
H    2.8657727   -0.0335303   -5.6745056  
C   -3.4913235    2.1373941   -4.4321662  
C   -4.7401560    1.6844170   -4.7137756  
C   -4.6187657    0.7866841   -5.8381316  
C   -3.1865708    0.7535210   -6.1909893  
N   -2.5576784    1.5936774   -5.3013148  
C   -2.6610089    0.0186688   -7.2036500  
C   -3.5663747   -0.7936351   -7.9992689  
O   -3.1902706   -1.4903092   -8.9328066  
C   -5.0871712   -0.7735568   -7.6434876  
O   -5.8590619   -1.4531698   -8.3064898  
C   -5.5342877    0.0582206   -6.5289995  
H   -5.6433392    1.9491123   -4.1933822  
H   -6.5888275    0.0663974   -6.2889943  
H   -3.1745297    2.8228424   -3.6629506  
H   -1.5719866    1.7812357   -5.2845582  
C    2.5285572    2.1210227    2.9438989  
C    1.9331703    1.6216660    4.0790748  
C    0.8903039    0.7472258    3.6520102  
C    0.8972198    0.7527806    2.2336141  
N    1.9028376    1.5986179    1.8362361  
C    0.0000000    0.0000000    1.4700000  
C   -0.9207814   -0.7726952    2.1506477  
O   -1.8198395   -1.5274828    1.4542253  
C   -0.9436862   -0.7911793    3.5655508  
O   -1.9197945   -1.6098497    4.0950179  
C   -0.0590329   -0.0485852    4.3195194  
H    2.2150357    1.8593692    5.0905303  
H    2.1533708    1.7953814    0.8841339  
H   -2.3621246   -1.9821033    2.1118817  
H   -1.8668290   -1.5649508    5.0545920  
H   -0.1007624   -0.0827977    5.4019087  
H    3.3491200    2.8096064    2.8367138  
