60

C    3.0069310   -3.3713053   -7.8037155  
C    2.5206404   -2.1081499   -7.5578947  
C    2.9951882   -1.2676320   -8.6081014  
C    3.7722571   -2.0803567   -9.4727221  
N    3.7603016   -3.3513824   -8.9540999  
C    4.3978259   -1.5820942  -10.6195387  
C    4.2357484   -0.2389871  -10.8987728  
O    4.8246096    0.2995112  -12.0061470  
C    3.4645228    0.5881916  -10.0480072  
O    3.3984029    1.9027444  -10.4614343  
C    2.8473230    0.0973790   -8.9163309  
H    4.2185699   -4.1476925   -9.3588989  
H    4.9915232   -2.1962543  -11.2825099  
H    4.5883907    1.2362186  -12.0127989  
H    2.8595954    2.3925892   -9.8326714  
H    2.2630299    0.7552259   -8.2836248  
H    2.8771713   -4.2845825   -7.2486975  
C    1.7744462   -2.1336760   -5.1326802  
C    1.6746906   -1.7240761   -6.4187041  
C    0.5405881   -0.8130121   -6.4352716  
C    0.0614873   -0.7888183   -5.0365363  
N    0.7809200   -1.5609931   -4.2683222  
C   -1.0641734    0.0073898   -4.6315339  
C   -1.6828411    0.7461572   -5.5806429  
O   -2.7449527    1.5348085   -5.3440237  
C   -1.2228403    0.7432050   -7.0006961  
O   -1.8334833    1.4397964   -7.8113107  
C   -0.0658192   -0.0818758   -7.3911694  
H   -2.9590929    1.9284665   -6.2090843  
H    0.2361354   -0.0563403   -8.4296298  
H    2.4922209   -2.8167589   -4.7070387  
C    1.1319248    0.0015675   -0.8009270  
C    0.7969916    0.0034959   -2.1169404  
C   -0.6453336    0.0035703   -2.1842672  
C   -1.1266831    0.0015415   -0.7896027  
N    0.0000000    0.0000000    0.0000000  
C   -2.4346129    0.0013924   -0.4276297  
C   -3.4350110    0.0031352   -1.4820184  
O   -4.6384610    0.0030897   -1.2583919  
C   -2.9478958    0.0050460   -2.9661075  
O   -3.7809377    0.0062160   -3.8623775  
C   -1.5113821    0.0053068   -3.2312125  
H    1.4821240    0.0045436   -2.9459192  
H   -2.7664565    0.0000185    0.6013447  
H    2.1104318    0.0009428   -0.3488058  
C    2.3971438    2.0127888    3.1728260  
C    1.9431056    1.6308205    1.9564670  
C    0.8496017    0.7127664    2.2356185  
C    0.7794028    0.6545384    3.7115134  
N    1.6840587    1.4146091    4.2663826  
C   -0.1885723   -0.1578550    4.3957118  
C   -1.0476298   -0.8789867    3.6398520  
O   -2.0015663   -1.6796266    4.1448486  
C   -1.0022026   -0.8410666    2.1483229  
O   -1.8147390   -1.5232959    1.5241687  
C    0.0000000    0.0000000    1.4700000  
H    2.3054237    1.9346118    0.9892483  
H   -0.2170646   -0.1815267    5.4753125  
H   -2.4487139   -2.0549881    3.3649027  
H    3.2048689    2.6911772    3.3971983  
