60

C    5.3708548   -3.7038759    0.1690639  
C    4.2730235   -3.0709693   -0.3663454  
C    3.1392470   -3.4936659    0.3889544  
C    3.6109204   -4.3916752    1.3804331  
N    4.9698520   -4.4983872    1.2175379  
C    2.7646805   -5.0062518    2.3083138  
C    1.4177936   -4.7086409    2.2341414  
O    0.5471280   -5.2806520    3.1160473  
C    0.9279779   -3.8154215    1.2517685  
O   -0.4368659   -3.6219234    1.3074746  
C    1.7621999   -3.2089712    0.3358988  
H    5.5801333   -5.0585804    1.7847422  
H    3.1179108   -5.6917020    3.0663300  
H   -0.3297711   -4.9428228    2.8920300  
H   -0.6854215   -3.0061671    0.6112934  
H    1.3580512   -2.5293094   -0.4051828  
H    6.4080054   -3.6525240   -0.1149073  
C    4.2926951   -2.1403411   -1.5040819  
C    5.3604713   -1.7320203   -2.2284483  
C    4.8134480   -0.8208699   -3.2219625  
C    3.3612075   -0.7952317   -2.9446115  
N    3.0500074   -1.5667022   -1.9386409  
C    2.4521483    0.0014840   -3.7217481  
C    2.9703732    0.7393570   -4.7298758  
O    2.2390461    1.5283420   -5.5352975  
C    4.4316780    0.7349410   -5.0343919  
O    4.8335653    1.4307762   -5.9668722  
C    5.3436400   -0.0906354   -4.2228053  
H    6.3919449   -2.0142014   -2.1038958  
H    2.8845122    1.9211534   -6.1502981  
H    6.3952200   -0.0661680   -4.4754102  
C    0.0000000    0.0000000    0.0000000  
C    1.0662923   -0.0000101   -0.8334270  
C    0.4961873    0.0000065   -2.1718887  
C   -0.9663854   -0.0000848   -1.9540250  
N   -1.2632773   -0.0000083   -0.6828660  
C   -1.8985359   -0.0000514   -3.0477261  
C   -1.3925770    0.0004566   -4.3020547  
O   -2.1456378    0.0005414   -5.4151314  
C    0.0786240    0.0009326   -4.5545000  
O    0.4683767    0.0012591   -5.7221100  
C    1.0143171    0.0008444   -3.4159031  
H    2.1107200    0.0000633   -0.5721865  
H   -2.9622181   -0.0003268   -2.8593381  
H   -1.5042265    0.0009697   -6.1484419  
C    3.2798086   -0.0005857    2.9199648  
C    2.5571146   -0.0005566    4.0696553  
C    1.1637436   -0.0001548    3.6910360  
C    1.1336965    0.0000200    2.2159470  
N    2.4483514    0.0001428    1.8102719  
C    0.0000000    0.0000000    1.4700000  
C   -1.2757367    0.0000186    2.1664417  
O   -2.3524596    0.0000640    1.5842315  
C   -1.2676493    0.0000873    3.7284083  
O   -2.3355761    0.0004100    4.3257297  
C    0.0181563   -0.0001760    4.4216297  
H    2.9547357   -0.0006076    5.0689105  
H    0.0150794   -0.0003319    5.5031631  
H    4.3498549   -0.0008612    2.7900019  
H    2.7563627   -0.0012824    0.8551938  
