60

C    4.6551029   -1.1185944   -8.9312061  
C    4.2255539   -0.0174879   -8.2272746  
C    4.2994009    1.0979204   -9.1132829  
C    4.7847854    0.6121709  -10.3544010  
N    4.9922983   -0.7370267  -10.2087247  
C    4.9834668    1.4386348  -11.4644791  
C    4.6864619    2.7798393  -11.3190966  
O    4.8616858    3.6313571  -12.3713446  
C    4.2015242    3.2834982  -10.0886577  
O    3.9527052    4.6404175  -10.1028408  
C    4.0055354    2.4687993   -8.9930387  
H    5.3252421   -1.3539308  -10.9274450  
H    5.3532691    1.0746097  -12.4131282  
H    4.5992836    4.5074900  -12.0602187  
H    3.6285668    4.8992878   -9.2347833  
H    3.6330559    2.8832190   -8.0635268  
H    4.7489862   -2.1456966   -8.6226517  
C    5.7035978   -2.1123453   -4.6323633  
C    5.5262381   -1.6495157   -5.8966447  
C    4.3945378   -0.7534734   -5.8620417  
C    3.9237597   -0.7320394   -4.4639367  
N    4.7591254   -1.5766811   -3.7699389  
C    2.8699641   -0.0020530   -4.0185824  
C    2.1513543    0.8170173   -4.9804860  
O    1.1888858    1.5100764   -4.6777910  
C    2.6323971    0.8093816   -6.4665363  
O    2.0350149    1.4947731   -7.2854586  
C    3.7812680   -0.0180953   -6.8260217  
H    6.1202750   -1.9066250   -6.7554977  
H    6.4446788   -2.7998490   -4.2581598  
H    4.6940936   -1.7721471   -2.7877924  
C    3.2573670   -0.0002921   -1.5109382  
C    2.5379468   -0.0001711   -0.3591962  
C    1.1435043    0.0000330   -0.7338498  
C    1.1092608   -0.0000085   -2.2088474  
N    2.4227562    0.0001906   -2.6182610  
C   -0.0265533   -0.0002525   -2.9515663  
C   -1.3003033   -0.0002641   -2.2514979  
O   -2.3786785   -0.0004132   -2.8306425  
C   -1.2877724    0.0000310   -0.6895608  
O   -2.3539956    0.0003306   -0.0892035  
C    0.0000000    0.0000000    0.0000000  
H    2.9384091   -0.0000370    0.6389240  
H   -0.0296290   -0.0004088   -4.0327231  
H    4.3270394   -0.0004767   -1.6439445  
C    2.5528530    2.1414826    2.8079335  
C    2.0663498    1.7338582    4.0032312  
C    0.9804344    0.8229586    3.6752840  
C    0.9495562    0.7966882    2.1971295  
N    1.8690446    1.5676019    1.6831036  
C    0.0000000    0.0000000    1.4700000  
C   -0.8785127   -0.7372425    2.1869543  
O   -1.8187535   -1.5261249    1.6395491  
C   -0.8723269   -0.7321790    3.6796354  
O   -1.7010379   -1.4274584    4.2670412  
C    0.1115397    0.0933559    4.4024240  
H    2.4028853    2.0163452    4.9860947  
H   -2.2861435   -1.9184361    2.3990168  
H    0.0832434    0.0693689    5.4835595  
H    3.3664920    2.8238276    2.6198634  
