62

C    0.8398284   -0.7093995   -5.2158384  
C    0.5541676   -0.4590037   -6.5380216  
C   -0.5449406    0.4498433   -6.5616409  
C   -0.8899496    0.7208841   -5.2127778  
N   -0.0307359   -0.0004648   -4.4215606  
C   -1.9337585    1.5804288   -4.8572000  
C   -2.6419924    2.1774670   -5.8819570  
O   -3.6708869    3.0258355   -5.5909922  
C   -2.3130868    1.9192974   -7.2339879  
O   -3.1114985    2.5891789   -8.1379466  
C   -1.2836442    1.0712374   -7.5855111  
H    1.0733205   -0.8805096   -7.3817075  
H   -2.2017960    1.7910445   -3.8310431  
H   -4.0243475    3.3269946   -6.4381244  
H   -2.8231978    2.3598597   -9.0267095  
H   -1.0550942    0.8926846   -8.6297159  
H    1.5947670   -1.3387152   -4.7765343  
C    3.2573667   -0.0002920   -1.5109386  
C    2.5379466   -0.0001709   -0.3591965  
C    1.1435040    0.0000332   -0.7338503  
C    1.1092604   -0.0000083   -2.2088478  
N    2.4227557    0.0001908   -2.6182616  
C   -0.0265538   -0.0002523   -2.9515663  
C   -1.3003040   -0.0002641   -2.2514979  
O   -2.3786787   -0.0004133   -2.8306426  
C   -1.2877728    0.0000312   -0.6895607  
O   -2.3539959    0.0003306   -0.0892033  
C    0.0000000    0.0000000    0.0000000  
H    2.9384091   -0.0000368    0.6389234  
H    2.7280486   -0.0013408   -3.5742120  
C    6.7921796   -0.0024535    1.2037497  
C    5.5119029   -0.0013795    0.7650368  
C    5.6127421   -0.0007799   -0.6862837  
C    7.0661040   -0.0015331   -0.9589057  
N    7.7625303   -0.0025960    0.1451681  
C    7.5891407   -0.0012861   -2.2973820  
C    6.7006583   -0.0007190   -3.3171531  
O    7.0481221   -0.0004246   -4.6153482  
C    5.2278294   -0.0003232   -3.0743873  
O    4.4775292    0.0003123   -4.0502303  
C    4.7161330   -0.0005435   -1.6923266  
H    4.6104190   -0.0011267    1.3535967  
H    8.6559208   -0.0016449   -2.4673566  
H    6.2020978   -0.0000589   -5.0984593  
H    7.1449939   -0.0031697    2.2228159  
C    2.5311839    2.1237619    3.0120429  
C    1.9795631    1.6616747    1.8395852  
C    0.9223175    0.7739173    2.1983588  
C    0.8753926    0.7337535    3.6154372  
N    1.8668922    1.5631002    4.0777464  
C   -0.0496243   -0.0427881    4.3197917  
C   -0.9437528   -0.7922060    3.5801400  
O   -1.8685244   -1.5680278    4.2172520  
C   -0.9124520   -0.7656372    2.1655264  
O   -1.8671164   -1.5663939    1.5732860  
C    0.0000000    0.0000000    1.4700000  
H    2.3005065    1.9304404    0.8477417  
H    2.0679347    1.7444845    5.0445261  
H   -0.0904770   -0.0778569    5.3997470  
H   -2.3849669   -2.0011402    3.5251786  
H   -1.7775064   -1.4909735    0.6183591  
H    3.3468514    2.8078103    3.1724291  
