60

C    9.0494870    0.0024126   -3.8726011  
C    9.6381213    0.0029821   -5.1159740  
C   11.0493506    0.0038834   -4.9085340  
C   11.2639333    0.0035339   -3.5064355  
N   10.0288548    0.0045897   -2.9071051  
C   12.5407502    0.0039098   -2.9367623  
C   13.6206196    0.0043452   -3.7981922  
O   14.8895201    0.0043736   -3.2952980  
C   13.4268875    0.0050742   -5.2000783  
O   14.6015986    0.0058620   -5.9235402  
C   12.1675624    0.0049771   -5.7627730  
H    9.1147429    0.0038786   -6.0567542  
H    9.8643516   -0.0059345   -1.9167472  
H   12.7110117    0.0037907   -1.8689546  
H   15.4847775    0.0050035   -4.0561749  
H   14.3819366    0.0062930   -6.8602107  
H   12.0504136    0.0057298   -6.8401558  
C    6.5739142    0.0018719   -4.3537915  
C    7.6280828    0.0019468   -3.4977523  
C    7.0842285    0.0017735   -2.1601955  
C    5.6162780    0.0015610   -2.3082178  
N    5.3720684    0.0020314   -3.6621941  
C    4.7390840    0.0009613   -1.2727298  
C    5.2766310    0.0007200    0.0776697  
O    4.5688485    0.0002470    1.0763412  
C    6.8281783    0.0011905    0.2579661  
O    7.2923836    0.0012994    1.3901206  
C    7.6713704    0.0015457   -0.9348786  
H    8.7446430    0.0016651   -0.8014249  
H    6.5739141    0.0019305   -5.4317008  
H    4.4610946    0.0004679   -4.0831113  
C    3.2798077    0.0005856   -1.4499661  
C    2.5571132    0.0005565   -2.5996564  
C    1.1637425    0.0001547   -2.2210366  
C    1.1336959   -0.0000200   -0.7459475  
N    2.4483509   -0.0001429   -0.3402730  
C    0.0000000    0.0000000    0.0000000  
C   -1.2757370   -0.0000187   -0.6964411  
O   -2.3524597   -0.0000640   -0.1142306  
C   -1.2676502   -0.0000874   -2.2584078  
O   -2.3355774   -0.0004102   -2.8557287  
C    0.0181551    0.0001758   -2.9516297  
H    2.9547342    0.0006074   -3.5989118  
H    0.0150776    0.0003317   -4.0331632  
H    2.7563626    0.0012823    0.6148051  
C    0.8175213    0.6860729    2.3021913  
C    0.0000000    0.0000000    1.4700000  
C   -0.8887526   -0.7456559    2.3478473  
C   -0.4549825   -0.3816753    3.7138435  
N    0.5448156    0.4573574    3.6934124  
C   -1.0945674   -0.9182058    4.8835240  
C   -2.1210866   -1.7789155    4.6970523  
O   -2.8083856   -2.3554314    5.6976972  
C   -2.5824069   -2.1655116    3.3310774  
O   -3.5227682   -2.9541547    3.2362962  
C   -1.9100805   -1.6015804    2.1470656  
H   -0.7567140   -0.6349833    5.8697035  
H   -3.4728268   -2.9124471    5.2533954  
H   -2.2742832   -1.9066565    1.1752040  
H    1.6189533    1.3585343    2.0405121  
