60

C    2.7096006   -3.2458690   -8.8206070  
C    2.3337833   -1.9933445   -8.3935105  
C    2.4257981   -1.1240866   -9.5206858  
C    2.8663768   -1.9091295  -10.6168257  
N    3.0309125   -3.1920372  -10.1567241  
C    3.0682340   -1.3783656  -11.8944536  
C    2.8205305   -0.0306150  -12.0687795  
O    3.0011015    0.5391094  -13.2958991  
C    2.3807704    0.7692562  -10.9872840  
O    2.1781736    2.0924917  -11.3209674  
C    2.1816816    0.2463719   -9.7265375  
H    3.3264071   -3.9743897  -10.7122331  
H    3.4040371   -1.9713225  -12.7340003  
H    2.7758062    1.4735099  -13.1989343  
H    1.8825987    2.5624792  -10.5352505  
H    1.8444947    0.8837986   -8.9175435  
H    2.7752500   -4.1730765   -8.2775277  
C    2.4782020   -2.1081877   -5.8783644  
C    1.9212515   -1.6438940   -7.0265418  
C    0.8545983   -0.7486149   -6.6450159  
C    0.8356633   -0.7292244   -5.1698703  
N    1.8439055   -1.5742005   -4.7669395  
C   -0.0307352   -0.0004646   -4.4215603  
C   -1.0100801    0.8193483   -5.1153371  
O   -1.8333382    1.5114172   -4.5308821  
C   -1.0083720    0.8138723   -6.6773144  
O   -1.8284254    1.4999049   -7.2724040  
C   -0.0251097   -0.0124250   -7.3732162  
H   -0.0304434   -0.0104840   -8.4547392  
H    3.2985195   -2.7956863   -5.7506359  
H    2.0835082   -1.7709325   -3.8125110  
C    3.2573670   -0.0002920   -1.5109380  
C    2.5379468   -0.0001709   -0.3591961  
C    1.1435043    0.0000332   -0.7338500  
C    1.1092609   -0.0000082   -2.2088477  
N    2.4227562    0.0001909   -2.6182613  
C   -0.0265532   -0.0002522   -2.9515663  
C   -1.3003035   -0.0002639   -2.2514981  
O   -2.3786784   -0.0004131   -2.8306429  
C   -1.2877725    0.0000312   -0.6895608  
O   -2.3539958    0.0003307   -0.0892036  
C    0.0000000    0.0000000    0.0000000  
H    2.9384091   -0.0000369    0.6389239  
H    4.3270394   -0.0004765   -1.6439446  
H    2.7280494   -0.0013406   -3.5742113  
C    0.0000000    0.0000000    1.4700000  
C    1.0541688    0.0001722    2.3260392  
C    0.5103138    0.0000454    3.6635956  
C   -0.9576371   -0.0002459    3.5155732  
N   -1.2018458    0.0001392    2.1615969  
C   -1.8348311   -0.0008317    4.5510609  
C   -1.2972847   -0.0009736    5.9014604  
O   -2.0050672   -0.0014265    6.9001319  
C    0.2542623   -0.0004184    6.0817573  
O    0.7184670   -0.0002256    7.2139121  
C    1.0974552   -0.0000873    4.8889129  
H    2.0940752    0.0005483    2.0517982  
H   -2.9081052   -0.0011668    4.4207061  
H    2.1707277    0.0000911    5.0223670  
H   -2.1128194   -0.0014912    1.7406791  
