64

C    0.8393265   -0.9720059   -9.5281385  
C    0.3964725    0.1029018   -8.7926644  
C    0.4629640    1.2455547   -9.6438546  
C    0.9577803    0.8026593  -10.8972200  
N    1.1777358   -0.5483270  -10.7919920  
C    1.1527478    1.6645622  -11.9806864  
C    0.8422629    2.9977999  -11.7956082  
O    1.0133106    3.8827510  -12.8206055  
C    0.3477618    3.4589268  -10.5523688  
O    0.0859221    4.8132141  -10.5261009  
C    0.1554288    2.6092505   -9.4829828  
H    1.5193760   -1.1397486  -11.5278470  
H    1.5296892    1.3332774  -12.9384797  
H    0.7412749    4.7464140  -12.4839346  
H   -0.2440339    5.0422992   -9.6518861  
H   -0.2246025    2.9914642   -8.5427876  
H    0.9419253   -2.0071290   -9.2507351  
C    1.9074111   -2.1157064   -5.2171226  
C    1.7366764   -1.6153232   -6.4871355  
C    0.6103638   -0.7412450   -6.4423320  
C    0.1310751   -0.7480684   -5.1073552  
N    0.9400195   -1.5942802   -4.3903116  
C   -0.9736297    0.0040464   -4.6965763  
C   -1.6058300    0.7773677   -5.6507641  
O   -2.6892500    1.5315498   -5.3037413  
C   -1.1427634    0.7971177   -6.9879239  
O   -1.8787359    1.6162801   -7.8189843  
C   -0.0531715    0.0551811   -7.3939361  
H    2.3479777   -1.8521270   -7.3410843  
H    0.8493709   -1.7918998   -3.4101531  
H   -2.9736280    1.9867685   -6.1069653  
H   -1.5003155    1.5722385   -8.7024216  
H    2.6418355   -2.8044014   -4.8359674  
C    1.1188642    0.0008222   -0.8003808  
C    0.0000000    0.0000000    0.0000000  
C   -1.1323862    0.0008899   -0.8673528  
C   -0.6382663    0.0019679   -2.1969280  
N    0.7324016    0.0038481   -2.1202242  
C   -1.4770914    0.0027318   -3.3154808  
C   -2.8395473    0.0020945   -3.0876857  
O   -3.7039201    0.0024425   -4.1440349  
C   -3.3517868    0.0013931   -1.7684331  
O   -4.7300497    0.0012366   -1.7073121  
C   -2.5248543    0.0009123   -0.6644817  
H    1.3576314   -0.0056167   -2.9057046  
H   -4.5940032    0.0021826   -3.7685128  
H   -4.9934602    0.0007259   -0.7819913  
H   -2.9462577    0.0005603    0.3339659  
H    2.1619895    0.0009355   -0.5342068  
C    2.5528530    2.1414826    2.8079335  
C    2.0663498    1.7338582    4.0032312  
C    0.9804344    0.8229586    3.6752840  
C    0.9495562    0.7966882    2.1971295  
N    1.8690446    1.5676019    1.6831036  
C    0.0000000    0.0000000    1.4700000  
C   -0.8785127   -0.7372425    2.1869543  
O   -1.8187535   -1.5261249    1.6395491  
C   -0.8723269   -0.7321790    3.6796354  
O   -1.7010379   -1.4274584    4.2670412  
C    0.1115397    0.0933559    4.4024240  
H    2.4028853    2.0163452    4.9860947  
H   -2.2861435   -1.9184361    2.3990168  
H    0.0832434    0.0693689    5.4835595  
H    3.3664920    2.8238276    2.6198634  
