60

C    6.5739152    0.0019520   -5.8237903  
C    7.6260817    0.0007593   -6.7100250  
C    7.0656366    0.0008522   -8.0217040  
C    5.6551720    0.0024224   -7.8716581  
N    5.3905980    0.0011060   -6.5245817  
C    4.7787452    0.0032440   -8.9609996  
C    5.3363311    0.0027733  -10.2248323  
O    4.5264935    0.0038856  -11.3235484  
C    6.7412727    0.0008359  -10.3949876  
O    7.1412675    0.0001763  -11.7153456  
C    7.6064921   -0.0002488   -9.3207798  
H    8.6692204   -0.0011801   -6.4438470  
H    4.4749379    0.0123060   -6.1129727  
H    3.7028215    0.0042970   -8.8533415  
H    5.1104266    0.0030131  -12.0931505  
H    8.1029860   -0.0011152  -11.7417958  
H    8.6781293   -0.0019113   -9.4822362  
C    6.5739150    0.0018721   -4.3537904  
C    7.6280837    0.0019470   -3.4977512  
C    7.0842294    0.0017737   -2.1601949  
C    5.6162780    0.0015611   -2.3082170  
N    5.3720693    0.0020316   -3.6621935  
C    4.7390840    0.0009613   -1.2727298  
C    5.2766305    0.0007201    0.0776698  
O    4.5688481    0.0002470    1.0763412  
C    6.8281773    0.0011907    0.2579666  
O    7.2923820    0.0012996    1.3901216  
C    7.6713703    0.0015461   -0.9348778  
H    8.6679908    0.0022879   -3.7719920  
H    8.7446428    0.0016655   -0.8014235  
H    4.4610955    0.0004680   -4.0831112  
C    3.2798077    0.0005856   -1.4499661  
C    2.5571132    0.0005565   -2.5996564  
C    1.1637425    0.0001547   -2.2210366  
C    1.1336959   -0.0000200   -0.7459475  
N    2.4483509   -0.0001429   -0.3402730  
C    0.0000000    0.0000000    0.0000000  
C   -1.2757370   -0.0000187   -0.6964411  
O   -2.3524597   -0.0000640   -0.1142306  
C   -1.2676502   -0.0000874   -2.2584078  
O   -2.3355774   -0.0004102   -2.8557287  
C    0.0181551    0.0001758   -2.9516297  
H    2.9547342    0.0006074   -3.5989118  
H    0.0150776    0.0003317   -4.0331632  
H    2.7563626    0.0012823    0.6148051  
C    0.0000000    0.0000000    1.4700000  
C    1.0541688    0.0001722    2.3260392  
C    0.5103138    0.0000454    3.6635956  
C   -0.9576371   -0.0002459    3.5155732  
N   -1.2018458    0.0001392    2.1615969  
C   -1.8348311   -0.0008317    4.5510609  
C   -1.2972847   -0.0009736    5.9014604  
O   -2.0050672   -0.0014265    6.9001319  
C    0.2542623   -0.0004184    6.0817573  
O    0.7184670   -0.0002256    7.2139121  
C    1.0974552   -0.0000873    4.8889129  
H    2.0940752    0.0005483    2.0517982  
H   -2.9081052   -0.0011668    4.4207061  
H    2.1707277    0.0000911    5.0223670  
H   -2.1128194   -0.0014912    1.7406791  
