62

C   -0.3252475    0.7056592   -7.0785455  
C   -1.5722828    0.4555197   -7.6027610  
C   -1.3935163   -0.4547510   -8.6862966  
C   -0.0043615   -0.7268842   -8.7763984  
N    0.6154058   -0.0047901   -7.7869105  
C    0.5369428   -1.5879609   -9.7357348  
C   -0.3401070   -2.1854359  -10.6200329  
O    0.1349502   -3.0352862  -11.5766362  
C   -1.7294155   -1.9261935  -10.5463276  
O   -2.4711639   -2.5966871  -11.4969012  
C   -2.2640946   -1.0766222   -9.6003503  
H   -2.4969171    0.8781049   -7.2485484  
H    1.5947757   -1.7994149   -9.8097491  
H   -0.6327132   -3.3365035  -12.0798506  
H   -3.3976810   -2.3665686  -11.3776640  
H   -3.3324083   -0.8972741   -9.5684345  
H   -0.0322029    1.3357514   -6.2563123  
C    2.8699641   -0.0020527   -4.0185824  
C    4.1345929   -0.0036617   -4.5133415  
C    4.0234314   -0.0055092   -5.9529510  
C    2.5800288   -0.0048104   -6.2585304  
N    1.9354845   -0.0030988   -5.0430271  
C    2.0594329   -0.0056967   -7.5117999  
C    2.9823227   -0.0076821   -8.6346564  
O    2.6119075   -0.0086660   -9.8013143  
C    4.5151773   -0.0087043   -8.3343882  
O    5.3018065   -0.0106823   -9.2716567  
C    4.9555128   -0.0073190   -6.9415653  
H    5.0417776   -0.0037477   -3.9357352  
H    6.0185127   -0.0078337   -6.7421798  
H    0.9396386   -0.0007135   -4.9192027  
C    3.2573673   -0.0002921   -1.5109381  
C    2.5379469   -0.0001710   -0.3591962  
C    1.1435042    0.0000332   -0.7338498  
C    1.1092607   -0.0000083   -2.2088474  
N    2.4227562    0.0001908   -2.6182610  
C   -0.0265532   -0.0002523   -2.9515663  
C   -1.3003033   -0.0002639   -2.2514979  
O   -2.3786784   -0.0004132   -2.8306425  
C   -1.2877726    0.0000312   -0.6895609  
O   -2.3539956    0.0003308   -0.0892035  
C    0.0000000    0.0000000    0.0000000  
H    2.9384091   -0.0000368    0.6389240  
H   -0.0296292   -0.0004086   -4.0327231  
H    4.3270395   -0.0004765   -1.6439444  
C    0.0000000    0.0000000    1.4700000  
C    1.0521667    0.0011902    2.3562342  
C    0.4917218    0.0011957    3.6679131  
C   -0.9187428   -0.0003148    3.5178682  
N   -1.1833171    0.0009411    2.1707914  
C   -1.7951701   -0.0010350    4.6072090  
C   -1.2375837   -0.0005224    5.8710424  
O   -2.0474215   -0.0015360    6.9697579  
C    0.1673580    0.0013566    6.0411963  
O    0.5673524    0.0020687    7.3615553  
C    1.0325770    0.0023412    4.9669890  
H    2.0953057    0.0030649    2.0900562  
H   -2.0989778   -0.0102372    1.7591824  
H   -2.8710934   -0.0020419    4.4995513  
H   -1.4634884   -0.0006497    7.7393593  
H    1.5290710    0.0033153    7.3880045  
H    2.1042148    0.0039609    5.1284455  
