60

C    9.5994331   -0.0022051    4.6276325  
C    8.9412521   -0.0014155    3.4196315  
C    7.5440533   -0.0012222    3.7067472  
C    7.4093075   -0.0016362    5.1187562  
N    8.6763767   -0.0041799    5.6470994  
C    6.1668418   -0.0012810    5.7599026  
C    5.0398717   -0.0001863    4.9610810  
O    3.8015230    0.0005549    5.5351069  
C    5.1538107   -0.0001338    3.5504660  
O    3.9399729    0.0005978    2.8947674  
C    6.3792085   -0.0007574    2.9172790  
H    9.4104508   -0.0021320    2.4506919  
H    8.8967724    0.0055281    6.6265432  
H    6.0573935   -0.0017373    6.8356458  
H    3.1640859    0.0009624    4.8092012  
H    4.1061777    0.0006101    1.9471495  
H   10.6542816   -0.0029616    4.8426933  
C    6.4550021   -0.0009256    1.4492341  
C    7.5628472   -0.0014710    0.6718940  
C    7.0625120   -0.0013725   -0.6941823  
C    5.5906518   -0.0008359   -0.5520184  
N    5.2286141   -0.0004914    0.7021417  
C    4.7161325   -0.0005435   -1.6923264  
C    5.2860918   -0.0003877   -2.9188995  
O    4.5914234   -0.0001200   -4.0693241  
C    6.7683519   -0.0005473   -3.0951539  
O    7.2177885   -0.0005152   -4.2411155  
C    7.6440943   -0.0008908   -1.9098274  
H    8.5924168   -0.0017982    0.9866378  
H    5.2697908   -0.0000402   -4.7685881  
H    8.7123897   -0.0008822   -2.0800432  
C    3.2573665   -0.0002920   -1.5109385  
C    2.5379463   -0.0001709   -0.3591964  
C    1.1435038    0.0000331   -0.7338500  
C    1.1092599   -0.0000083   -2.2088477  
N    2.4227553    0.0001909   -2.6182613  
C   -0.0265539   -0.0002524   -2.9515660  
C   -1.3003040   -0.0002640   -2.2514977  
O   -2.3786790   -0.0004133   -2.8306421  
C   -1.2877727    0.0000311   -0.6895603  
O   -2.3539959    0.0003306   -0.0892030  
C    0.0000000    0.0000000    0.0000000  
H    2.9384091   -0.0000367    0.6389234  
H   -0.0296303   -0.0004086   -4.0327229  
H    2.7280482   -0.0013407   -3.5742119  
C    0.0000000    0.0000000    1.4700000  
C    1.0662921    0.0000102    2.3034270  
C    0.4961870   -0.0000064    3.6418889  
C   -0.9663858    0.0000850    3.4240247  
N   -1.2632773    0.0000084    2.1528658  
C   -1.8985362    0.0000517    4.5177257  
C   -1.3925775   -0.0004564    5.7720543  
O   -2.1456383   -0.0005410    6.8851312  
C    0.0786232   -0.0009323    6.0245000  
O    0.4683759   -0.0012588    7.1921102  
C    1.0143166   -0.0008442    4.8859032  
H    2.1107198   -0.0000632    2.0421868  
H   -2.9622183    0.0003270    4.3293377  
H   -1.5042274   -0.0009692    7.6184419  
H    2.0724152   -0.0013148    5.1109744  
