62

C    7.4245170   -0.0073517    2.4566577  
C    6.7509478   -0.0103920    3.6561421  
C    7.7366381   -0.0126724    4.6871660  
C    9.0043857   -0.0105789    4.0509770  
N    8.7786408   -0.0093146    2.6968527  
C   10.2077583   -0.0116580    4.7627946  
C   10.1299273   -0.0146028    6.1419646  
O   11.2742523   -0.0154202    6.8859623  
C    8.8744168   -0.0171003    6.7950382  
O    8.9639903   -0.0203133    8.1717396  
C    7.6868571   -0.0163108    6.0934497  
H    5.6808061   -0.0120085    3.7735620  
H    9.4912273    0.0028164    1.9897077  
H   11.1772051   -0.0102189    4.2838657  
H   10.9980547   -0.0178411    7.8116918  
H    8.0729215   -0.0218188    8.5345050  
H    6.7403300   -0.0184602    6.6212370  
C    6.9078739   -0.0046646    1.0804408  
C    5.6166932   -0.0033645    0.6749416  
C    5.6800152   -0.0008098   -0.7784970  
C    7.1258514   -0.0007965   -1.0885645  
N    7.8505605   -0.0031316   -0.0028482  
C    7.6141447    0.0013734   -2.4401011  
C    6.6996209    0.0030472   -3.4365839  
O    7.0134393    0.0051620   -4.7433182  
C    5.2335528    0.0027107   -3.1558600  
O    4.4582992    0.0044331   -4.1119979  
C    4.7577216    0.0005129   -1.7610467  
H    4.7307110   -0.0041440    1.2865874  
H    8.6761780    0.0015371   -2.6375709  
H    6.1552205    0.0059338   -5.2044175  
C    3.3041270    0.0001177   -1.5420435  
C    2.5845370   -0.0004780   -0.3695856  
C    1.2040004   -0.0000007   -0.7283590  
C    1.1422370    0.0006038   -2.1454373  
N    2.4348634    0.0026110   -2.6077469  
C   -0.0655187    0.0008799   -2.8497918  
C   -1.2321769    0.0002326   -2.1101398  
O   -2.4392822    0.0001149   -2.7472517  
C   -1.1911211   -0.0000007   -0.6955263  
O   -2.4371526   -0.0002319   -0.1032858  
C    0.0000000    0.0000000    0.0000000  
H    3.0031534   -0.0000661    0.6222578  
H    2.7054623   -0.0071098   -3.5745266  
H   -0.1193555    0.0014846   -3.9297472  
H   -3.1132992   -0.0000646   -2.0551783  
H   -2.3200279   -0.0004070    0.8516411  
C    2.5528530    2.1414826    2.8079335  
C    2.0663498    1.7338582    4.0032312  
C    0.9804344    0.8229586    3.6752840  
C    0.9495562    0.7966882    2.1971295  
N    1.8690446    1.5676019    1.6831036  
C    0.0000000    0.0000000    1.4700000  
C   -0.8785127   -0.7372425    2.1869543  
O   -1.8187535   -1.5261249    1.6395491  
C   -0.8723269   -0.7321790    3.6796354  
O   -1.7010379   -1.4274584    4.2670412  
C    0.1115397    0.0933559    4.4024240  
H    2.4028853    2.0163452    4.9860947  
H   -2.2861435   -1.9184361    2.3990168  
H    0.0832434    0.0693689    5.4835595  
H    3.3664920    2.8238276    2.6198634  
