62

C    9.7137216   -0.7117964    1.7436875  
C   11.0661591   -0.4613982    1.7698280  
C   11.3418632    0.4479818    0.7060547  
C   10.1084716    0.7193302    0.0602678  
N    9.1408954   -0.0023554    0.7141667  
C   10.0024254    1.5794198   -1.0369055  
C   11.1625681    2.1766973   -1.4902321  
O   11.1159744    3.0255968   -2.5580390  
C   12.4027455    1.9182276   -0.8593822  
O   13.4660624    2.5884040   -1.4282105  
C   12.5081501    1.0696298    0.2228830  
H   11.7678689   -0.8832442    2.4688579  
H    9.0653951    1.7902727   -1.5336110  
H   12.0216794    3.3268406   -2.7070889  
H   14.2647201    2.3588527   -0.9433869  
H   13.4718223    0.8908574    0.6853244  
H    9.1126048   -1.3414343    2.3770703  
C    6.6801374   -0.0033361    1.2661375  
C    7.7093289   -0.0019929    0.3802267  
C    7.1273479   -0.0004469   -0.9411860  
C    5.6642446   -0.0009740   -0.7511363  
N    5.4589565   -0.0031397    0.6092836  
C    4.7577216    0.0005129   -1.7610467  
C    5.2563291    0.0025581   -3.1263019  
O    4.5202037    0.0039402   -4.1042686  
C    6.8020686    0.0028975   -3.3510097  
O    7.2336221    0.0043062   -4.4960075  
C    7.6791157    0.0014557   -2.1828322  
H    8.7481212    0.0019071   -2.3470034  
H    6.7110430   -0.0046694    2.3436031  
H    4.5604252   -0.0024245    1.0561485  
C    3.3041270    0.0001177   -1.5420435  
C    2.5845370   -0.0004780   -0.3695856  
C    1.2040004   -0.0000007   -0.7283590  
C    1.1422370    0.0006038   -2.1454373  
N    2.4348634    0.0026110   -2.6077469  
C   -0.0655187    0.0008799   -2.8497918  
C   -1.2321769    0.0002326   -2.1101398  
O   -2.4392822    0.0001149   -2.7472517  
C   -1.1911211   -0.0000007   -0.6955263  
O   -2.4371526   -0.0002319   -0.1032858  
C    0.0000000    0.0000000    0.0000000  
H    3.0031534   -0.0000661    0.6222578  
H    2.7054623   -0.0071098   -3.5745266  
H   -0.1193555    0.0014846   -3.9297472  
H   -3.1132992   -0.0000646   -2.0551783  
H   -2.3200279   -0.0004070    0.8516411  
C    0.0000000    0.0000000    1.4700000  
C    1.0541688    0.0001722    2.3260392  
C    0.5103138    0.0000454    3.6635956  
C   -0.9576371   -0.0002459    3.5155732  
N   -1.2018458    0.0001392    2.1615969  
C   -1.8348311   -0.0008317    4.5510609  
C   -1.2972847   -0.0009736    5.9014604  
O   -2.0050672   -0.0014265    6.9001319  
C    0.2542623   -0.0004184    6.0817573  
O    0.7184670   -0.0002256    7.2139121  
C    1.0974552   -0.0000873    4.8889129  
H    2.0940752    0.0005483    2.0517982  
H   -2.9081052   -0.0011668    4.4207061  
H    2.1707277    0.0000911    5.0223670  
H   -2.1128194   -0.0014912    1.7406791  
