64

C   -0.6953593    0.7217275   -9.2996523  
C    0.3846981   -0.1074157   -9.4957774  
C    0.7123073   -0.0434370  -10.8825651  
C   -0.2099524    0.8485047  -11.4873814  
N   -1.0518238    1.2935342  -10.4985349  
C   -0.1842863    1.1525053  -12.8518279  
C    0.7903366    0.5452640  -13.6196479  
O    0.8609285    0.8069496  -14.9573885  
C    1.7192333   -0.3478475  -13.0345674  
O    2.6276986   -0.8712108  -13.9312982  
C    1.6943359   -0.6484240  -11.6886264  
H    0.8753143   -0.6878991   -8.7333291  
H   -1.8033520    1.9468095  -10.6266667  
H   -0.8844467    1.8313432  -13.3189019  
H    1.6008605    0.2878844  -15.2984707  
H    3.2179878   -1.4635021  -13.4555324  
H    2.4187869   -1.3364959  -11.2688571  
C   -0.2041200   -0.6662882   -5.1294034  
C   -1.2456329    0.0471727   -4.5828766  
C   -1.8465392    0.7861440   -5.6446832  
C   -1.1230378    0.4806689   -6.8258505  
N   -0.1315496   -0.4025058   -6.4771798  
C   -1.4397845    1.0325679   -8.0707872  
C   -2.5065207    1.9085700   -8.1243731  
O   -2.8591349    2.4760487   -9.3146018  
C   -3.2403714    2.2261135   -6.9567062  
O   -4.2735438    3.1142239   -7.1738685  
C   -2.9282859    1.6822356   -5.7281600  
H    0.5354757   -0.8056378   -7.1100648  
H   -3.6170354    3.0463500   -9.1312768  
H   -4.7175610    3.2751086   -6.3356749  
H   -3.5084503    1.9444471   -4.8511580  
H    0.4936106   -1.3413507   -4.6641918  
C    1.1243410    0.0099923   -0.7919003  
C    0.7474076    0.0234544   -2.1148543  
C   -0.6787381    0.0234490   -2.1414700  
C   -1.1201745    0.0098592   -0.7935546  
N    0.0000000    0.0000000    0.0000000  
C   -2.4730816    0.0063709   -0.4408240  
C   -3.3971958    0.0170982   -1.4675058  
O   -4.7313517    0.0146259   -1.1793471  
C   -2.9763648    0.0303504   -2.8186324  
O   -4.0166480    0.0395118   -3.7247624  
C   -1.6418562    0.0335260   -3.1673481  
H    1.4178717    0.0310972   -2.9571209  
H   -2.8160166   -0.0041111    0.5845966  
H   -5.1938818    0.0230867   -2.0274384  
H   -3.6464675    0.0482293   -4.6127343  
H    2.1062467    0.0052819   -0.3505407  
C    2.4951002    2.0940188    2.9809380  
C    1.9440701    1.6314916    1.8291961  
C    0.8759964    0.7350050    2.2038498  
C    0.8497377    0.7130254    3.6788474  
N    1.8560616    1.5571714    4.0882609  
C   -0.0205033   -0.0168748    4.4215661  
C   -0.9962600   -0.8356168    3.7214979  
O   -1.8224391   -1.5286685    4.3006425  
C   -0.9864710   -0.8277881    2.1595606  
O   -1.8030528   -1.5133726    1.5592035  
C    0.0000000    0.0000000    1.4700000  
H    2.2509283    1.8888011    0.8310761  
H   -0.0229599   -0.0187323    5.5027230  
H    3.3143982    2.7817323    3.1139444  
H    2.0889452    1.7545833    5.0442112  
