60

C    4.0593873    0.6998872   -7.3354700  
C    5.1445145   -0.1176609   -7.1196439  
C    5.9703278   -0.0282831   -8.2792317  
C    5.3327194    0.8664894   -9.1763179  
N    4.1741135    1.2886993   -8.5730021  
C    5.8673224    1.1931829  -10.4262219  
C    7.0676015    0.6061454  -10.7767843  
O    7.6342891    0.8904315  -11.9855265  
C    7.7188198   -0.2894203   -9.8954820  
O    8.9053697   -0.7909667  -10.3893390  
C    7.1918654   -0.6123785   -8.6623794  
H    5.3188125   -0.7069156   -6.2356796  
H    3.5178904    1.9382663   -8.9672285  
H    5.3862243    1.8743001  -11.1145717  
H    8.4550503    0.3827179  -12.0284653  
H    9.2802989   -1.3865313   -9.7333403  
H    7.7134289   -1.3017621   -8.0087738  
C    2.9127944   -0.7214799   -3.3153362  
C    3.5543783   -0.5031937   -4.4921099  
C    2.7457300    0.4250582   -5.2466113  
C    1.5720421    0.7318925   -4.4069087  
N    1.7334695    0.0049281   -3.2500363  
C    0.5691433    1.5730721   -4.7651200  
C    0.6510614    2.2191847   -6.0644901  
O   -0.2019642    2.9933461   -6.4784007  
C    1.8850636    1.9086368   -6.9703616  
O    1.9647773    2.4464641   -8.0665589  
C    2.9022258    0.9847052   -6.4747973  
H    4.4875220   -0.9424634   -4.7969035  
H   -0.2829827    1.7845577   -4.1341955  
H    3.2021859   -1.3520631   -2.4904075  
C    1.1319246    0.0015678   -0.8009268  
C    0.7969914    0.0034958   -2.1169401  
C   -0.6453340    0.0035696   -2.1842669  
C   -1.1266832    0.0015410   -0.7896025  
N    0.0000000    0.0000000    0.0000000  
C   -2.4346129    0.0013913   -0.4276292  
C   -3.4350111    0.0031335   -1.4820181  
O   -4.6384614    0.0030875   -1.2583914  
C   -2.9478961    0.0050442   -2.9661074  
O   -3.7809382    0.0062135   -3.8623773  
C   -1.5113825    0.0053055   -3.2312122  
H   -2.7664565    0.0000174    0.6013448  
H   -1.1823533    0.0068381   -4.2614848  
H    2.1104316    0.0009435   -0.3488059  
C    0.0000000    0.0000000    1.4700000  
C    1.0541688    0.0001722    2.3260392  
C    0.5103138    0.0000454    3.6635956  
C   -0.9576371   -0.0002459    3.5155732  
N   -1.2018458    0.0001392    2.1615969  
C   -1.8348311   -0.0008317    4.5510609  
C   -1.2972847   -0.0009736    5.9014604  
O   -2.0050672   -0.0014265    6.9001319  
C    0.2542623   -0.0004184    6.0817573  
O    0.7184670   -0.0002256    7.2139121  
C    1.0974552   -0.0000873    4.8889129  
H    2.0940752    0.0005483    2.0517982  
H   -2.9081052   -0.0011668    4.4207061  
H    2.1707277    0.0000911    5.0223670  
H   -2.1128194   -0.0014912    1.7406791  
