62

C    0.5323420    0.5336368   -9.3560348  
C    1.6118129   -0.3165310   -9.2895182  
C    2.2104884   -0.3313895  -10.5841100  
C    1.4465605    0.5363438  -11.4059243  
N    0.4342534    1.0434026  -10.6295595  
C    1.7501067    0.7656103  -12.7513187  
C    2.8449546    0.1071410  -13.2765854  
O    3.1862878    0.2951205  -14.5847018  
C    3.6192926   -0.7629023  -12.4726933  
O    4.6768095   -1.3438987  -13.1416082  
C    3.3202604   -0.9897619  -11.1454262  
H    1.9281132   -0.8600755   -8.4157297  
H   -0.2625057    1.6968418  -10.9386312  
H    1.1717614    1.4256381  -13.3830491  
H    3.9680594   -0.2496334  -14.7438919  
H    5.1476341   -1.9158552  -12.5277722  
H    3.9316325   -1.6618371  -10.5546494  
C    0.2574167   -0.6856119   -5.1816675  
C   -0.8287665    0.0000939   -4.7555305  
C   -1.2821020    0.7456926   -5.9196052  
C   -0.3285015    0.3820838   -6.9896608  
N    0.5761657   -0.4566991   -6.5630339  
C   -0.4351974    0.9186760   -8.3184836  
C   -1.4487061    1.7790894   -8.5671268  
O   -1.6679604    2.3556225   -9.7611028  
C   -2.4274561    2.1653064   -7.5083328  
O   -3.3248661    2.9536923   -7.8055247  
C   -2.2967102    1.6013191   -6.1530657  
H   -2.4560485    2.9123845   -9.6266159  
H   -3.0259295    1.9061167   -5.4144400  
H    0.8824806   -1.3579200   -4.6157427  
C    1.0672569   -0.0000698   -0.8321910  
C    0.0000000    0.0000000    0.0000000  
C   -1.1601223   -0.0000736   -0.8778472  
C   -0.5938729   -0.0000768   -2.2438435  
N    0.7113367   -0.0001553   -2.2234123  
C   -1.4286985   -0.0001877   -3.4135239  
C   -2.7683113   -0.0006798   -3.2270524  
O   -3.6653902   -0.0008302   -4.2276970  
C   -3.3702024   -0.0010610   -1.8610774  
O   -4.5974910   -0.0013779   -1.7662963  
C   -2.4926825   -0.0008943   -0.6770658  
H   -4.5324245   -0.0012258   -3.7833954  
H   -2.9677772   -0.0012974    0.2947961  
H    2.1134391   -0.0000547   -0.5705119  
C    2.5285572    2.1210227    2.9438989  
C    1.9331703    1.6216660    4.0790748  
C    0.8903039    0.7472258    3.6520102  
C    0.8972198    0.7527806    2.2336141  
N    1.9028376    1.5986179    1.8362361  
C    0.0000000    0.0000000    1.4700000  
C   -0.9207814   -0.7726952    2.1506477  
O   -1.8198395   -1.5274828    1.4542253  
C   -0.9436862   -0.7911793    3.5655508  
O   -1.9197945   -1.6098497    4.0950179  
C   -0.0590329   -0.0485852    4.3195194  
H    2.2150357    1.8593692    5.0905303  
H    2.1533708    1.7953814    0.8841339  
H   -2.3621246   -1.9821033    2.1118817  
H   -1.8668290   -1.5649508    5.0545920  
H   -0.1007624   -0.0827977    5.4019087  
H    3.3491200    2.8096064    2.8367138  
