60

C    9.6357767   -0.7105581    1.4300947  
C   10.9885659   -0.4606966    1.4310289  
C   11.2450464    0.4470421    0.3610623  
C   10.0001086    0.7179891   -0.2623502  
N    9.0444194   -0.0023487    0.4102494  
C    9.8742679    1.5765519   -1.3586271  
C   11.0261270    2.1726873   -1.8340467  
O   10.9602628    3.0200765   -2.9020380  
C   12.2775795    1.9145946   -1.2257117  
O   13.3305337    2.5835046   -1.8149391  
C   12.4025081    1.0675027   -0.1443447  
H   11.7028291   -0.8818391    2.1176577  
H    8.9283551    1.7870909   -1.8383399  
H   11.8631975    3.3207222   -3.0681326  
H   14.1378720    2.3543085   -1.3445374  
H   13.3744412    0.8889836    0.3005744  
H    9.0461459   -1.3390331    2.0753177  
C    6.5698745   -0.0006427    0.9721610  
C    7.6069601   -0.0018567    0.1026609  
C    6.9912940   -0.0024305   -1.2154645  
C    5.5370519   -0.0015107   -0.9475763  
N    5.2839240   -0.0003802    0.3330154  
C    4.5679461   -0.0016854   -2.0086701  
C    5.0305955   -0.0023425   -3.2796106  
O    4.2398095   -0.0025848   -4.3662099  
C    6.4922745   -0.0029069   -3.5823559  
O    6.8417597   -0.0036175   -4.7626441  
C    7.4664605   -0.0027580   -2.4765142  
H    4.8556974   -0.0030412   -5.1210838  
H    8.5162193   -0.0030654   -2.7377360  
H    6.6068538    0.0001032    2.0499390  
C    3.1301149   -0.0010311   -1.7028252  
C    2.5367768   -0.0002767   -0.4864665  
C    1.1089904    0.0001028   -0.7656183  
C    1.0177872   -0.0004148   -2.2415132  
N    2.1993578   -0.0011611   -2.7963820  
C   -0.2459209   -0.0002877   -2.9257118  
C   -1.3675319   -0.0000605   -2.1698524  
O   -2.6129313    0.0000867   -2.6748490  
C   -1.3083584    0.0000910   -0.6783232  
O   -2.3693261    0.0004206   -0.0541692  
C    0.0000000    0.0000000    0.0000000  
H    3.0096017   -0.0001007    0.4807525  
H   -0.2829630   -0.0004687   -4.0053125  
H   -3.1967441    0.0002094   -1.8949034  
C    2.5128556    2.1077716    2.9199648  
C    1.9592212    1.6432552    4.0696553  
C    0.8915788    0.7479214    3.6910360  
C    0.8684491    0.7287414    2.2159470  
N    1.8754542    1.5738793    1.8102719  
C    0.0000000    0.0000000    1.4700000  
C   -0.9772830   -0.8200135    2.1664417  
O   -1.8021297   -1.5120829    1.5842315  
C   -0.9711318   -0.8147624    3.7284083  
O   -1.7894187   -1.5009653    4.3257297  
C    0.0140216    0.0115358    4.4216297  
H    2.2638494    1.8988021    5.0689105  
H    0.0117648    0.0094386    5.5031631  
H    3.3327358    2.7953732    2.7900019  
H    2.1123206    1.7707734    0.8551938  
