60

C    1.9992302   -2.4125806   -7.1587697  
C    1.5672979   -1.1099752   -7.2542745  
C    2.3710180   -0.4766135   -8.2479979  
C    3.2836624   -1.4505584   -8.7280366  
N    3.0320112   -2.6140682   -8.0442719  
C    4.2309369   -1.1758948   -9.7190069  
C    4.2571809    0.1052175  -10.2349909  
O    5.1618647    0.4274681  -11.2048968  
C    3.3550073    1.0908476   -9.7686941  
O    3.5070166    2.3177647  -10.3809931  
C    2.4204137    0.8206650   -8.7909096  
H    3.5168189   -3.4828550   -8.1790028  
H    4.9293956   -1.9137376  -10.0890674  
H    5.0115599    1.3570912  -11.4204719  
H    2.8604989    2.9254679  -10.0090859  
H    1.7425688    1.5960781   -8.4536586  
H    1.6532670   -3.2134916   -6.5280478  
C    0.2315723   -0.7260311   -5.1498917  
C    0.4808492   -0.5092797   -6.4670686  
C   -0.5209820    0.4176779   -6.9381514  
C   -1.3804962    0.7254254   -5.7791354  
N   -0.8712826    0.0001710   -4.7267111  
C   -2.4455082    1.5658328   -5.8133230  
C   -2.7668039    2.2100917   -7.0759529  
O   -3.7062272    2.9834392   -7.2090649  
C   -1.8701936    1.8985508   -8.3164521  
O   -2.1311534    2.4348170   -9.3848989  
C   -0.7493924    0.9755930   -8.1558118  
H   -3.0629970    1.7780122   -4.9515819  
H   -0.1333322    0.7653440   -9.0195191  
H    0.7606230   -1.3553504   -4.4527891  
C    1.0965514    0.0001359   -0.8010305  
C    0.0000000    0.0000000    0.0000000  
C   -1.1546563    0.0001470   -0.8669513  
C   -0.6372014    0.0003519   -2.2486282  
N    0.7342871    0.0007337   -2.1395014  
C   -1.4147739    0.0001352   -3.3608717  
C   -2.8576049   -0.0001048   -3.1854462  
O   -3.6427779   -0.0002494   -4.1244907  
C   -3.4275840   -0.0000725   -1.7311666  
O   -4.6406831    0.0000333   -1.5710060  
C   -2.4891867   -0.0001091   -0.6116744  
H   -2.8919122   -0.0002918    0.3920866  
H    2.1388272    0.0000663   -0.5261648  
H    1.3735872   -0.0006099   -2.9130262  
C    2.4951002    2.0940188    2.9809380  
C    1.9440701    1.6314916    1.8291961  
C    0.8759964    0.7350050    2.2038498  
C    0.8497377    0.7130254    3.6788474  
N    1.8560616    1.5571714    4.0882609  
C   -0.0205033   -0.0168748    4.4215661  
C   -0.9962600   -0.8356168    3.7214979  
O   -1.8224391   -1.5286685    4.3006425  
C   -0.9864710   -0.8277881    2.1595606  
O   -1.8030528   -1.5133726    1.5592035  
C    0.0000000    0.0000000    1.4700000  
H    2.2509283    1.8888011    0.8310761  
H   -0.0229599   -0.0187323    5.5027230  
H    3.3143982    2.7817323    3.1139444  
H    2.0889452    1.7545833    5.0442112  
