62

C    6.5528281   -3.1967410   -4.9980993  
C    7.6452869   -3.1434361   -5.8324626  
C    7.7643970   -1.7932360   -6.2767276  
C    6.7080193   -1.0624112   -5.6751553  
N    5.9903381   -1.9450969   -4.9067699  
C    6.5164908    0.3057210   -5.8903761  
C    7.4077829    0.9478493   -6.7279014  
O    7.2672416    2.2833239   -6.9723775  
C    8.4679422    0.2358063   -7.3377169  
O    9.2698070    1.0161628   -8.1448101  
C    8.6573334   -1.1139564   -7.1260613  
H    8.2778088   -3.9756019   -6.0901641  
H    5.7132591    0.8684298   -5.4349877  
H    7.9826215    2.5275514   -7.5739169  
H    9.9601369    0.4591751   -8.5173857  
H    9.4783269   -1.6326363   -7.6071208  
H    6.1295133   -4.0288507   -4.4620426  
C    4.5310506   -2.0790480   -2.8543220  
C    4.8140929   -1.6029425   -4.0941952  
C    3.7433601   -0.7037140   -4.4544102  
C    2.8066152   -0.6948783   -3.3145761  
N    3.3414841   -1.5491127   -2.3780461  
C    1.6628945    0.0339172   -3.2649299  
C    1.3323529    0.8649110   -4.4106728  
O    0.3247031    1.5579299   -4.4623206  
C    2.3099258    0.8707265   -5.6289188  
O    2.0419947    1.5662241   -6.5993602  
C    3.5120771    0.0432793   -5.5655568  
H    4.1838703    0.0530795   -6.4130956  
H    5.0912893   -2.7726311   -2.2485463  
H    2.9319191   -1.7542582   -1.4851748  
C    1.1243410    0.0100105   -0.7919003  
C    0.7474072    0.0234665   -2.1148542  
C   -0.6787384    0.0234379   -2.1414698  
C   -1.1201748    0.0098411   -0.7935547  
N    0.0000000    0.0000000    0.0000000  
C   -2.4730818    0.0063307   -0.4408240  
C   -3.3971962    0.0170429   -1.4675058  
O   -4.7313520    0.0145490   -1.1793468  
C   -2.9763654    0.0303020   -2.8186325  
O   -4.0166484    0.0394464   -3.7247625  
C   -1.6418567    0.0334992   -3.1673480  
H   -2.8160166   -0.0041569    0.5845966  
H   -5.1938823    0.0230023   -2.0274386  
H   -3.6464680    0.0481700   -4.6127343  
H   -1.3497475    0.0435647   -4.2109234  
H    2.1062466    0.0053162   -0.3505405  
C    2.3971438    2.0127888    3.1728260  
C    1.9431056    1.6308205    1.9564670  
C    0.8496017    0.7127664    2.2356185  
C    0.7794028    0.6545384    3.7115134  
N    1.6840587    1.4146091    4.2663826  
C   -0.1885723   -0.1578550    4.3957118  
C   -1.0476298   -0.8789867    3.6398520  
O   -2.0015663   -1.6796266    4.1448486  
C   -1.0022026   -0.8410666    2.1483229  
O   -1.8147390   -1.5232959    1.5241687  
C    0.0000000    0.0000000    1.4700000  
H    2.3054237    1.9346118    0.9892483  
H   -0.2170646   -0.1815267    5.4753125  
H   -2.4487139   -2.0549881    3.3649027  
H    3.2048689    2.6911772    3.3971983  
