60

C    1.2912080   -1.1112778   -7.6752101  
C    2.3448068   -1.9956703   -7.6909086  
C    2.6509571   -2.2542919   -9.0598451  
C    1.7434847   -1.4931367   -9.8402697  
N    0.9306273   -0.8123469   -8.9682572  
C    1.7547736   -1.5037901  -11.2383210  
C    2.6995553   -2.2970449  -11.8598609  
O    2.7550351   -2.3442897  -13.2228371  
C    3.6133026   -3.0639676  -11.0984725  
O    4.4921098   -3.8024218  -11.8637990  
C    3.6025676   -3.0541520   -9.7192283  
H    2.8319832   -2.4049982   -6.8225177  
H    0.1951988   -0.1819470   -9.2323055  
H    1.0657541   -0.9260602  -11.8388894  
H    3.4747443   -2.9488346  -13.4460182  
H    5.0738227   -4.2905667  -11.2730977  
H    4.3148273   -3.6522220   -9.1629231  
C    0.8351684   -0.7268790   -5.2248488  
C    0.5760693   -0.5103271   -6.5401616  
C   -0.5290494    0.4167176   -6.6044789  
C   -0.8951502    0.7247332   -5.2088114  
N   -0.0307352   -0.0004646   -4.4215603  
C   -1.8962297    1.5652912   -4.8441106  
C   -2.6645207    2.2094403   -5.8964112  
O   -3.5858844    2.9829072   -5.6702737  
C   -2.2943326    1.8976154   -7.3815142  
O   -2.9343299    2.4337872   -8.2760453  
C   -1.1943970    0.9745150   -7.6496159  
H   -2.1484126    1.7776666   -3.8144454  
H   -0.9442717    0.7640695   -8.6805742  
H    1.5856934   -1.3561888   -4.7747704  
C    3.2573670   -0.0002920   -1.5109380  
C    2.5379468   -0.0001709   -0.3591961  
C    1.1435043    0.0000332   -0.7338500  
C    1.1092609   -0.0000082   -2.2088477  
N    2.4227562    0.0001909   -2.6182613  
C   -0.0265532   -0.0002522   -2.9515663  
C   -1.3003035   -0.0002639   -2.2514981  
O   -2.3786784   -0.0004131   -2.8306429  
C   -1.2877725    0.0000312   -0.6895608  
O   -2.3539958    0.0003307   -0.0892036  
C    0.0000000    0.0000000    0.0000000  
H    2.9384091   -0.0000369    0.6389239  
H    4.3270394   -0.0004765   -1.6439446  
H    2.7280494   -0.0013406   -3.5742113  
C    0.0000000    0.0000000    1.4700000  
C    1.0662921    0.0000102    2.3034270  
C    0.4961870   -0.0000064    3.6418889  
C   -0.9663858    0.0000850    3.4240247  
N   -1.2632773    0.0000084    2.1528658  
C   -1.8985362    0.0000517    4.5177257  
C   -1.3925775   -0.0004564    5.7720543  
O   -2.1456383   -0.0005410    6.8851312  
C    0.0786232   -0.0009323    6.0245000  
O    0.4683759   -0.0012588    7.1921102  
C    1.0143166   -0.0008442    4.8859032  
H    2.1107198   -0.0000632    2.0421868  
H   -2.9622183    0.0003270    4.3293377  
H   -1.5042274   -0.0009692    7.6184419  
H    2.0724152   -0.0013148    5.1109744  
