62

C    2.7080595   -3.3042284   -7.9278185  
C    2.2309525   -2.0432767   -7.6542542  
C    2.6671489   -1.1940694   -8.7140564  
C    3.4124305   -1.9994655   -9.6128427  
N    3.4192912   -3.2746822   -9.1045193  
C    3.9960606   -1.4916658  -10.7774480  
C    3.8239452   -0.1463785  -11.0396621  
O    4.3723186    0.4013224  -12.1631949  
C    3.0840010    0.6735862  -10.1548139  
O    3.0029227    1.9914453  -10.5548333  
C    2.5081858    0.1733621   -9.0055798  
H    3.8626263   -4.0675169   -9.5321264  
H    4.5653855   -2.1002074  -11.4664672  
H    4.1359883    1.3379767  -12.1536456  
H    2.4872170    2.4759726   -9.9030023  
H    1.9471622    0.8258390   -8.3467898  
H    2.5985010   -4.2220432   -7.3759388  
C    1.5730419   -2.0888202   -5.2039074  
C    1.4267859   -1.6687785   -6.4820906  
C    0.2928029   -0.7579751   -6.4501588  
C   -0.1353499   -0.7453433   -5.0348459  
N    0.6114415   -1.5235254   -4.2995057  
C   -1.2456329    0.0471727   -4.5828766  
C   -1.8982730    0.7934562   -5.5029073  
O   -2.9511437    1.5798092   -5.2215673  
C   -1.4899800    0.8022327   -6.9386581  
O   -2.1295865    1.5052151   -7.7209243  
C   -0.3478308   -0.0192632   -7.3774789  
H   -3.1964700    1.9804400   -6.0750677  
H   -0.0836672    0.0148374   -8.4259470  
H    2.3057726   -2.7751200   -4.8101162  
C    1.1243410    0.0099923   -0.7919003  
C    0.7474076    0.0234544   -2.1148543  
C   -0.6787381    0.0234490   -2.1414700  
C   -1.1201745    0.0098592   -0.7935546  
N    0.0000000    0.0000000    0.0000000  
C   -2.4730816    0.0063709   -0.4408240  
C   -3.3971958    0.0170982   -1.4675058  
O   -4.7313517    0.0146259   -1.1793471  
C   -2.9763648    0.0303504   -2.8186324  
O   -4.0166480    0.0395118   -3.7247624  
C   -1.6418562    0.0335260   -3.1673481  
H    1.4178717    0.0310972   -2.9571209  
H   -2.8160166   -0.0041111    0.5845966  
H   -5.1938818    0.0230867   -2.0274384  
H   -3.6464675    0.0482293   -4.6127343  
H    2.1062467    0.0052819   -0.3505407  
C    2.5128556    2.1077716    2.9199648  
C    1.9592212    1.6432552    4.0696553  
C    0.8915788    0.7479214    3.6910360  
C    0.8684491    0.7287414    2.2159470  
N    1.8754542    1.5738793    1.8102719  
C    0.0000000    0.0000000    1.4700000  
C   -0.9772830   -0.8200135    2.1664417  
O   -1.8021297   -1.5120829    1.5842315  
C   -0.9711318   -0.8147624    3.7284083  
O   -1.7894187   -1.5009653    4.3257297  
C    0.0140216    0.0115358    4.4216297  
H    2.2638494    1.8988021    5.0689105  
H    0.0117648    0.0094386    5.5031631  
H    3.3327358    2.7953732    2.7900019  
H    2.1123206    1.7707734    0.8551938  
