64

C    0.0180933    0.5684667   -9.3654999  
C    1.1059623   -0.2709197   -9.4321227  
C    1.5685319   -0.2467084  -10.7812125  
C    0.7167527    0.6326492  -11.4975426  
N   -0.2147368    1.1087535  -10.6085716  
C    0.8784446    0.8988483  -12.8605475  
C    1.9191422    0.2660447  -13.5122261  
O    2.1226061    0.4904655  -14.8431099  
C    2.7794553   -0.6150575  -12.8148471  
O    3.7675916   -1.1672481  -13.6035265  
C    2.6203688   -0.8783471  -11.4702662  
H    1.5150513   -0.8325360   -8.6097928  
H   -0.9451677    1.7618429  -10.8274923  
H    0.2325802    1.5679144  -13.4122844  
H    2.8885390   -0.0413267  -15.0957148  
H    4.3039114   -1.7490362  -13.0562719  
H    3.2949788   -1.5580617  -10.9629523  
C    0.0902054   -0.6999990   -5.1620326  
C   -0.9736297    0.0040464   -4.6965763  
C   -1.5078550    0.7471498   -5.8133736  
C   -0.6620036    0.4159214   -6.9759627  
N    0.2881867   -0.4654796   -6.5142698  
C   -0.8409755    0.9165753   -8.2245697  
C   -1.9398964    1.8436896   -8.4375675  
O   -2.1836151    2.3491293   -9.5254243  
C   -2.8482823    2.2087973   -7.2204661  
O   -3.7763822    2.9885178   -7.3875806  
C   -2.5561680    1.6045643   -5.9229974  
H   -3.1899797    1.8623995   -5.0854250  
H    0.7463586   -1.3702751   -4.6309184  
H    1.0125328   -0.8767605   -7.0739277  
C    1.1188642    0.0008222   -0.8003808  
C    0.0000000    0.0000000    0.0000000  
C   -1.1323862    0.0008899   -0.8673528  
C   -0.6382663    0.0019679   -2.1969280  
N    0.7324016    0.0038481   -2.1202242  
C   -1.4770914    0.0027318   -3.3154808  
C   -2.8395473    0.0020945   -3.0876857  
O   -3.7039201    0.0024425   -4.1440349  
C   -3.3517868    0.0013931   -1.7684331  
O   -4.7300497    0.0012366   -1.7073121  
C   -2.5248543    0.0009123   -0.6644817  
H    1.3576314   -0.0056167   -2.9057046  
H   -4.5940032    0.0021826   -3.7685128  
H   -4.9934602    0.0007259   -0.7819913  
H   -2.9462577    0.0005603    0.3339659  
H    2.1619895    0.0009355   -0.5342068  
C    2.5311839    2.1237619    3.0120429  
C    1.9795631    1.6616747    1.8395852  
C    0.9223175    0.7739173    2.1983588  
C    0.8753926    0.7337535    3.6154372  
N    1.8668922    1.5631002    4.0777464  
C   -0.0496243   -0.0427881    4.3197917  
C   -0.9437528   -0.7922060    3.5801400  
O   -1.8685244   -1.5680278    4.2172520  
C   -0.9124520   -0.7656372    2.1655264  
O   -1.8671164   -1.5663939    1.5732860  
C    0.0000000    0.0000000    1.4700000  
H    2.3005065    1.9304404    0.8477417  
H    2.0679347    1.7444845    5.0445261  
H   -0.0904770   -0.0778569    5.3997470  
H   -2.3849669   -2.0011402    3.5251786  
H   -1.7775064   -1.4909735    0.6183591  
H    3.3468514    2.8078103    3.1724291  
