64

C    5.7550658    0.7173086   -6.3183961  
C    6.8155224   -0.0017288   -5.8175125  
C    7.3771233   -0.7297103   -6.9080382  
C    6.6112246   -0.4120926   -8.0588838  
N    5.6333996    0.4674263   -7.6652837  
C    6.8822573   -0.9511299   -9.3201408  
C    7.9460230   -1.8265156   -9.4215323  
O    8.2548837   -2.3816947  -10.6295862  
C    8.7217683   -2.1560620   -8.2846789  
O    9.7460337   -3.0418705   -8.5484332  
C    8.4547936   -1.6248765   -7.0400530  
H    4.9439292    0.8770470   -8.2692883  
H    6.3022249   -0.7131900  -10.2011338  
H    9.0187488   -2.9538422  -10.4798482  
H   10.2202033   -3.2113759   -7.7286554  
H    9.0663962   -1.8961013   -6.1874930  
H    5.0749701    1.3875303   -5.8211725  
C    4.5679461   -0.0016854   -2.0086701  
C    5.6536976   -0.0029096   -1.1639161  
C    6.8200673   -0.0036910   -1.9850016  
C    6.3798481   -0.0025969   -3.3333827  
N    5.0072029   -0.0033438   -3.3118968  
C    7.2630028   -0.0026617   -4.4172768  
C    8.6151887   -0.0035460   -4.1348426  
O    9.5213679   -0.0032988   -5.1555548  
C    9.0739282   -0.0050196   -2.7960472  
O   10.4486141   -0.0061822   -2.6795165  
C    8.2032437   -0.0052295   -1.7262645  
H    5.6103771   -0.0043086   -0.0882233  
H    4.4140948    0.0077040   -4.1218859  
H   10.3956197   -0.0043278   -4.7445217  
H   10.6745772   -0.0071109   -1.7443460  
H    8.5841288   -0.0065539   -0.7116693  
C    3.1301149   -0.0010311   -1.7028252  
C    2.5367768   -0.0002767   -0.4864665  
C    1.1089904    0.0001028   -0.7656183  
C    1.0177872   -0.0004148   -2.2415132  
N    2.1993578   -0.0011611   -2.7963820  
C   -0.2459209   -0.0002877   -2.9257118  
C   -1.3675319   -0.0000605   -2.1698524  
O   -2.6129313    0.0000867   -2.6748490  
C   -1.3083584    0.0000910   -0.6783232  
O   -2.3693261    0.0004206   -0.0541692  
C    0.0000000    0.0000000    0.0000000  
H    3.0096017   -0.0001007    0.4807525  
H   -0.2829630   -0.0004687   -4.0053125  
H   -3.1967441    0.0002094   -1.8949034  
C    0.8676693    0.7151171    2.2619005  
C    0.5875920    0.4624972    3.5848544  
C   -0.5048400   -0.4542819    3.6114698  
C   -0.8517165   -0.7276451    2.2635546  
N    0.0000000    0.0000000    1.4700000  
C   -1.8902865   -1.5946756    1.9108239  
C   -2.5912627   -2.1969500    2.9375057  
O   -3.6148162   -3.0527051    2.6493466  
C   -2.2603868   -1.9365747    4.2886322  
O   -3.0513550   -2.6123276    5.1947621  
C   -1.2361111   -1.0811317    4.6373480  
H    1.1060808    0.8876438    4.4271209  
H   -2.1597133   -1.8070987    0.8854031  
H   -3.9636755   -3.3565188    3.4974381  
H   -2.7621927   -2.3810384    6.0827341  
H   -1.0058879   -0.9010589    5.6809233  
H    1.6167816    1.3499334    1.8205408  
