62

C    3.3003551    0.0005273   -1.4738980  
C    2.5232817    0.0003495   -2.6090742  
C    1.1623205   -0.0001322   -2.1820097  
C    1.1711885    0.0000583   -0.7636133  
N    2.4852300   -0.0014918   -0.3662348  
C    0.0000000    0.0000000    0.0000000  
C   -1.2020380    0.0000519   -0.6806476  
O   -2.3759248    0.0003494    0.0157746  
C   -1.2314652   -0.0005116   -2.0955505  
O   -2.5054382   -0.0008041   -2.6250180  
C   -0.0764512   -0.0007276   -2.8495190  
H    2.8919959   -0.0005621   -3.6205292  
H    2.8036266    0.0088182    0.5858668  
H   -3.0835635    0.0000347   -0.6418814  
H   -2.4360042   -0.0011531   -3.5845920  
H    4.3715554    0.0004892   -1.3667125  
C    0.6503163   -0.7058452   -5.1591991  
C   -0.1496408   -0.0015618   -4.3176954  
C   -1.0769611    0.7392926   -5.1399165  
C   -0.7493485    0.4064845   -6.5394519  
N    0.3066322   -0.4735904   -6.4823313  
C   -1.4003392    0.9048513   -7.6209079  
C   -2.4966963    1.8309946   -7.3911364  
O   -3.1448378    2.3343938   -8.2993228  
C   -2.8607656    2.1977437   -5.9171102  
O   -3.7817296    2.9766668   -5.7112824  
C   -2.0864145    1.5959452   -4.8344878  
H   -2.3449678    1.8549049   -3.8167383  
H    1.4621440   -1.3748332   -4.9240819  
H    0.7568416   -0.8854591   -7.2790263  
C   -0.7007503   -0.6765505   -9.4565947  
C   -1.0521078    0.5552085   -9.0056043  
C   -1.0166179    1.4454669  -10.1418339  
C   -0.6129167    0.6255108  -11.3000587  
N   -0.4364469   -0.6507890  -10.8175582  
C   -0.4641419    1.0992815  -12.5630362  
C   -0.7183889    2.5110366  -12.7972194  
O   -0.6116935    3.0332353  -13.8991381  
C   -1.1467956    3.3981858  -11.5850973  
O   -1.3632659    4.5882328  -11.7700017  
C   -1.2738489    2.7733719  -10.2708226  
H   -0.1672850    0.4807783  -13.3986434  
H   -1.5711096    3.3945001   -9.4368210  
H   -0.6124535   -1.6009081   -8.9091863  
H   -0.1603571   -1.4421125  -11.3694892  
C    2.5285572    2.1210227    2.9438989  
C    1.9331703    1.6216660    4.0790748  
C    0.8903039    0.7472258    3.6520102  
C    0.8972198    0.7527806    2.2336141  
N    1.9028376    1.5986179    1.8362361  
C    0.0000000    0.0000000    1.4700000  
C   -0.9207814   -0.7726952    2.1506477  
O   -1.8198395   -1.5274828    1.4542253  
C   -0.9436862   -0.7911793    3.5655508  
O   -1.9197945   -1.6098497    4.0950179  
C   -0.0590329   -0.0485852    4.3195194  
H    2.2150357    1.8593692    5.0905303  
H    2.1533708    1.7953814    0.8841339  
H   -2.3621246   -1.9821033    2.1118817  
H   -1.8668290   -1.5649508    5.0545920  
H   -0.1007624   -0.0827977    5.4019087  
H    3.3491200    2.8096064    2.8367138  
