64

C    4.7795897    0.0008677   -1.0815734  
C    5.8357356    0.0020744   -1.9630617  
C    7.0295758    0.0025515   -1.1824547  
C    6.6358516    0.0012983    0.1802287  
N    5.2632778    0.0022472    0.2058247  
C    7.5556546    0.0010564    1.2332010  
C    8.8973609    0.0017917    0.9045653  
O    9.8380083    0.0012449    1.8936042  
C    9.3099223    0.0034199   -0.4491726  
O   10.6798043    0.0044032   -0.6127735  
C    8.4030671    0.0039327   -1.4884696  
H    5.7555553    0.0036574   -3.0366361  
H    4.6982919   -0.0088487    1.0356736  
H    7.2620119    0.0002476    2.2738623  
H   10.6976510    0.0022152    1.4528342  
H   10.8735684    0.0054539   -1.5551421  
H    8.7489362    0.0053697   -2.5155286  
C    3.3321166    0.0004717   -1.3379342  
C    2.6974176    0.0000121   -2.5332317  
C    1.2800432   -0.0002115   -2.2052842  
C    1.2395033    0.0000645   -0.7271297  
N    2.4394059    0.0005461   -0.2131042  
C    0.0000000    0.0000000    0.0000000  
C   -1.1468704    0.0000636   -0.7169540  
O   -2.3742206    0.0000073   -0.1695488  
C   -1.1388774    0.0001610   -2.2096351  
O   -2.2206238    0.0000908   -2.7970408  
C    0.1454514    0.0001820   -2.9324241  
H    3.1367977   -0.0000646   -3.5160953  
H   -2.9844351    0.0001027   -0.9290163  
C    2.5715456   -2.1234220   -6.0298475  
C    2.0605222   -1.6614582   -4.8390864  
C    0.9917280   -0.7734878   -5.1612466  
C    0.8962441   -0.7330728   -6.5758759  
N    1.8711841   -1.5624814   -7.0720511  
C   -0.0522662    0.0437226   -7.2479663  
C   -0.9203941    0.7931407   -6.4779637  
O   -1.8663535    1.5692047   -7.0828595  
C   -0.8406075    0.7663233   -5.0652597  
O   -1.7742830    1.5671143   -4.4404973  
C    0.0950440    0.0004357   -4.4015596  
H    2.4152481   -1.9304409   -3.8588769  
H    2.0389299   -1.7437276   -8.0451865  
H   -0.1301221    0.0789836   -8.3258795  
H   -2.3586960    2.0022713   -6.3734119  
H   -1.6519917    1.4915163   -3.4892176  
H    3.3811317   -2.8075594   -6.2182237  
C    0.8676693    0.7151171    2.2619005  
C    0.5875920    0.4624972    3.5848544  
C   -0.5048400   -0.4542819    3.6114698  
C   -0.8517165   -0.7276451    2.2635546  
N    0.0000000    0.0000000    1.4700000  
C   -1.8902865   -1.5946756    1.9108239  
C   -2.5912627   -2.1969500    2.9375057  
O   -3.6148162   -3.0527051    2.6493466  
C   -2.2603868   -1.9365747    4.2886322  
O   -3.0513550   -2.6123276    5.1947621  
C   -1.2361111   -1.0811317    4.6373480  
H    1.1060808    0.8876438    4.4271209  
H   -2.1597133   -1.8070987    0.8854031  
H   -3.9636755   -3.3565188    3.4974381  
H   -2.7621927   -2.3810384    6.0827341  
H   -1.0058879   -0.9010589    5.6809233  
H    1.6167816    1.3499334    1.8205408  
