62

C    3.3854269   -3.0285937   -6.1897748  
C    4.2032810   -3.6789172   -5.2949782  
C    5.1105494   -4.4706780   -6.0595557  
C    4.7958275   -4.2609889   -7.4266352  
N    3.7425298   -3.3816182   -7.4700866  
C    5.4907130   -4.8851092   -8.4670185  
C    6.5222931   -5.7361817   -8.1210502  
O    7.2339950   -6.3713822   -9.0972731  
C    6.8511282   -5.9585365   -6.7626534  
O    7.9025023   -6.8332072   -6.5812500  
C    6.1658598   -5.3433748   -5.7357602  
H    4.1515284   -3.5940329   -4.2230131  
H    3.3081409   -3.0372802   -8.3071766  
H    5.2556644   -4.7296021   -9.5109402  
H    7.8969209   -6.9096273   -8.6455136  
H    8.0598269   -6.9279665   -5.6368595  
H    6.4404141   -5.5333213   -4.7047321  
C    2.2783844   -2.0910254   -5.9524496  
C    1.7853124   -1.6292409   -4.7744381  
C    0.6997746   -0.7327358   -5.0949402  
C    0.6001061   -0.7099358   -6.5667882  
N    1.5849247   -1.5536729   -7.0262771  
C   -0.3061446    0.0202239   -7.2648431  
C   -1.2459586    0.8383999   -6.5165965  
O   -2.1000525    1.5316277   -7.0534947  
C   -1.1584128    0.8296992   -4.9570884  
O   -1.9441938    1.5148019   -4.3164298  
C   -0.1387079    0.0017019   -4.3179684  
H    2.1415246   -1.8870539   -3.7929808  
H   -0.3624287    0.0226859   -8.3445354  
H    1.7699531   -1.7505084   -7.9927486  
C    3.3041273    0.0001178   -1.5420428  
C    2.5845373   -0.0004780   -0.3695851  
C    1.2040007   -0.0000007   -0.7283589  
C    1.1422374    0.0006038   -2.1454372  
N    2.4348641    0.0026111   -2.6077464  
C   -0.0655179    0.0008799   -2.8497918  
C   -1.2321766    0.0002325   -2.1101402  
O   -2.4392814    0.0001148   -2.7472522  
C   -1.1911209   -0.0000007   -0.6955266  
O   -2.4371528   -0.0002320   -0.1032862  
C    0.0000000    0.0000000    0.0000000  
H    3.0031533   -0.0000660    0.6222584  
H    2.7054631   -0.0071097   -3.5745261  
H   -3.1132988   -0.0000648   -2.0551787  
H   -2.3200282   -0.0004072    0.8516409  
H    4.3686625    0.0004073   -1.7024290  
C    0.8681109    0.7263879    2.2709268  
C    0.6127770    0.5096195    3.5869401  
C   -0.4920590   -0.4175482    3.6542670  
C   -0.8620974   -0.7254003    2.2596025  
N    0.0000000    0.0000000    1.4700000  
C   -1.8641242   -1.5660088    1.8976294  
C   -2.6293522   -2.2103885    2.9520183  
O   -3.5512764   -2.9839180    2.7283916  
C   -2.2549728   -1.8987399    4.4361073  
O   -2.8923672   -2.4351063    5.3323774  
C   -1.1543735   -0.9755647    4.7012123  
H    1.1382914    0.9492124    4.4159191  
H   -2.1192137   -1.7782617    0.8686553  
H   -0.9013378   -0.7652422    5.7314848  
H    1.6172880    1.3558399    1.8188057  
