62

C    0.6675599   -0.7200189   -5.1594013  
C   -0.1496426   -0.0015617   -4.3176960  
C   -1.0591328    0.7259461   -5.1412001  
C   -0.7463754    0.4086505   -6.4878378  
N    0.3079380   -0.4702285   -6.4630981  
C   -1.4437241    0.9473687   -7.5733226  
C   -2.4757934    1.8220988   -7.2942917  
O   -3.1898683    2.3769422   -8.3166711  
C   -2.8026938    2.1513147   -5.9572915  
O   -3.8548535    3.0364713   -5.8441467  
C   -2.1149953    1.6204442   -4.8859502  
H    0.7413906   -0.8795062   -7.2709297  
H   -1.2101819    0.7096716   -8.6019917  
H   -3.8527242    2.9486458   -7.9079640  
H   -4.0107587    3.2057906   -4.9100012  
H   -2.3881064    1.8914032   -3.8728017  
H    1.4794294   -1.3897680   -4.9329880  
C    3.3003539    0.0005272   -1.4738994  
C    2.5232807    0.0003493   -2.6090753  
C    1.1623195   -0.0001323   -2.1820106  
C    1.1711880    0.0000582   -0.7636143  
N    2.4852298   -0.0014922   -0.3662365  
C    0.0000000    0.0000000    0.0000000  
C   -1.2020387    0.0000519   -0.6806475  
O   -2.3759248    0.0003494    0.0157747  
C   -1.2314661   -0.0005114   -2.0955507  
O   -2.5054400   -0.0008040   -2.6250174  
C   -0.0764524   -0.0007276   -2.8495195  
H    2.8919944   -0.0005625   -3.6205309  
H    2.8036264    0.0088180    0.5858657  
H   -3.0835644    0.0000351   -0.6418811  
H   -2.4360058   -0.0011530   -3.5845915  
C    6.5323586    0.0028791   -4.4466891  
C    7.6043829    0.0021976   -3.6131194  
C    7.0889164    0.0013210   -2.2643684  
C    5.6181651    0.0015200   -2.3813353  
N    5.3453968    0.0028759   -3.7298476  
C    4.7630501    0.0004753   -1.3275413  
C    5.3290148   -0.0007135    0.0111961  
O    4.6424950   -0.0016458    1.0246018  
C    6.8840253   -0.0006924    0.1586634  
O    7.3720526   -0.0013809    1.2807551  
C    7.7018215    0.0002119   -1.0517335  
H    8.6382615    0.0024800   -3.9092756  
H    8.7776747    0.0000150   -0.9409910  
H    6.5095788    0.0036003   -5.5243580  
H    4.4257312    0.0017700   -4.1314206  
C    2.5128556    2.1077716    2.9199648  
C    1.9592212    1.6432552    4.0696553  
C    0.8915788    0.7479214    3.6910360  
C    0.8684491    0.7287414    2.2159470  
N    1.8754542    1.5738793    1.8102719  
C    0.0000000    0.0000000    1.4700000  
C   -0.9772830   -0.8200135    2.1664417  
O   -1.8021297   -1.5120829    1.5842315  
C   -0.9711318   -0.8147624    3.7284083  
O   -1.7894187   -1.5009653    4.3257297  
C    0.0140216    0.0115358    4.4216297  
H    2.2638494    1.8988021    5.0689105  
H    0.0117648    0.0094386    5.5031631  
H    3.3327358    2.7953732    2.7900019  
H    2.1123206    1.7707734    0.8551938  
