64

C    8.4742170   -3.1077178   -3.9341831  
C    9.5483143   -2.3072840   -4.2473746  
C    9.0471405   -0.9813052   -4.4061376  
C    7.6486107   -1.0345551   -4.1754783  
N    7.3335037   -2.3406066   -3.8934233  
C    6.8266707    0.0941484   -4.2478085  
C    7.4275312    1.2986014   -4.5583519  
O    6.6717643    2.4321331   -4.6416344  
C    8.8213528    1.3719113   -4.7922430  
O    9.2688174    2.6423547   -5.0907250  
C    9.6327866    0.2587758   -4.7213228  
H   10.5674884   -2.6385649   -4.3499911  
H    6.4146326   -2.6820888   -3.6765193  
H    7.2788972    3.1492051   -4.8662717  
H   10.2193436    2.6040981   -5.2343898  
H   10.6971752    0.3457752   -4.9056770  
H    8.4313350   -4.1653815   -3.7380552  
C    4.3304652   -2.1219081   -1.2732983  
C    5.3835929   -1.6226234   -2.0041219  
C    4.8312743   -0.7479116   -2.9861724  
C    3.4245697   -0.7532339   -2.8042903  
N    3.1541560   -1.5991997   -1.7574688  
C    2.5562217   -0.0001543   -3.6003001  
C    3.1181948    0.7726066   -4.5978997  
O    2.3162989    1.5276822   -5.4040242  
C    4.5194625    0.7908619   -4.7952149  
O    4.9245920    1.6096335   -5.8290562  
C    5.3766900    0.0479727   -4.0104838  
H    6.4220549   -1.8605475   -1.8492577  
H    2.2402070   -1.7958547   -1.3914015  
H    2.9021001    1.9822993   -6.0232374  
H    5.8833598    1.5645665   -5.8949077  
H    4.3252215   -2.8106323   -0.4458983  
C    0.0000000    0.0000000    0.0000000  
C    1.0541688   -0.0001719   -0.8560391  
C    0.5103141   -0.0000449   -2.1935955  
C   -0.9576367    0.0002461   -2.0455733  
N   -1.2018459   -0.0001392   -0.6915970  
C   -1.8348306    0.0008319   -3.0810611  
C   -1.2972842    0.0009739   -4.4314605  
O   -2.0050664    0.0014267   -5.4301321  
C    0.2542628    0.0004190   -4.6117571  
O    0.7184677    0.0002263   -5.7439119  
C    1.0974556    0.0000880   -3.4189127  
H    2.0940752   -0.0005479   -0.5817978  
H   -2.9081050    0.0011669   -2.9507065  
H   -2.1128195    0.0014911   -0.2706793  
C    3.3041272   -0.0001177    3.0120429  
C    2.5845372    0.0004780    1.8395852  
C    1.2040006    0.0000008    2.1983588  
C    1.1422373   -0.0006037    3.6154372  
N    2.4348639   -0.0026109    4.0777464  
C   -0.0655181   -0.0008797    4.3197917  
C   -1.2321768   -0.0002324    3.5801400  
O   -2.4392816   -0.0001146    4.2172520  
C   -1.1911209    0.0000007    2.1655264  
O   -2.4371527    0.0002320    1.5732860  
C    0.0000000    0.0000000    1.4700000  
H    3.0031534    0.0000661    0.8477417  
H    2.7054629    0.0071099    5.0445261  
H   -0.1193549   -0.0014844    5.3997470  
H   -3.1132988    0.0000648    3.5251786  
H   -2.3200282    0.0004071    0.6183591  
H    4.3686625   -0.0004071    3.1724291  
