64

C    0.2443743   -0.3711451   -9.6993824  
C    0.9263554   -0.2227269  -10.8848546  
C    0.8276078    1.1518708  -11.2527262  
C    0.0675555    1.7988685  -10.2449357  
N   -0.2722898    0.8449768   -9.3179982  
C   -0.2291825    3.1646743  -10.2811421  
C    0.2503366    3.8906222  -11.3541007  
O   -0.0098724    5.2278207  -11.4389828  
C    1.0101736    3.2629527  -12.3697257  
O    1.4153525    4.1208510  -13.3713160  
C    1.3030660    1.9155403  -12.3347950  
H    1.4317910   -1.0087583  -11.4193471  
H   -0.8080732    3.6637257   -9.5162663  
H    0.4096973    5.5365240  -12.2525728  
H    1.9221368    3.6178303  -14.0160987  
H    1.8871913    1.4625515  -13.1273079  
H    0.0844063   -1.2485527   -9.0964519  
C    0.1130344   -0.7103197   -5.1440032  
C    0.3029068   -0.4565304   -6.4826615  
C   -0.7146636    0.4602188   -6.8810608  
C   -1.5023063    0.7323593   -5.7332431  
N   -0.9736297    0.0040464   -4.6965763  
C   -2.5991773    1.5990231   -5.7568324  
C   -2.9063420    2.2021812   -6.9610034  
O   -3.9669852    3.0576283   -7.0401255  
C   -2.1326370    1.9430309   -8.1173074  
O   -2.5656650    2.6195549   -9.2389782  
C   -1.0505750    1.0879501   -8.0948320  
H    1.0786564   -0.8808980   -7.0967606  
H   -3.2035814    1.8105160   -4.8855297  
H   -4.0043898    3.3621836   -7.9561559  
H   -1.9897869    2.3890746   -9.9744010  
H    0.6659033   -1.3454936   -4.4732951  
C    1.1188642    0.0008222   -0.8003808  
C    0.0000000    0.0000000    0.0000000  
C   -1.1323862    0.0008899   -0.8673528  
C   -0.6382663    0.0019679   -2.1969280  
N    0.7324016    0.0038481   -2.1202242  
C   -1.4770914    0.0027318   -3.3154808  
C   -2.8395473    0.0020945   -3.0876857  
O   -3.7039201    0.0024425   -4.1440349  
C   -3.3517868    0.0013931   -1.7684331  
O   -4.7300497    0.0012366   -1.7073121  
C   -2.5248543    0.0009123   -0.6644817  
H    1.3576314   -0.0056167   -2.9057046  
H   -4.5940032    0.0021826   -3.7685128  
H   -4.9934602    0.0007259   -0.7819913  
H   -2.9462577    0.0005603    0.3339659  
H    2.1619895    0.0009355   -0.5342068  
C    2.5528530    2.1414826    2.8079335  
C    2.0663498    1.7338582    4.0032312  
C    0.9804344    0.8229586    3.6752840  
C    0.9495562    0.7966882    2.1971295  
N    1.8690446    1.5676019    1.6831036  
C    0.0000000    0.0000000    1.4700000  
C   -0.8785127   -0.7372425    2.1869543  
O   -1.8187535   -1.5261249    1.6395491  
C   -0.8723269   -0.7321790    3.6796354  
O   -1.7010379   -1.4274584    4.2670412  
C    0.1115397    0.0933559    4.4024240  
H    2.4028853    2.0163452    4.9860947  
H   -2.2861435   -1.9184361    2.3990168  
H    0.0832434    0.0693689    5.4835595  
H    3.3664920    2.8238276    2.6198634  
