60

C    2.7830093   -5.4787793   -8.9015126  
C    2.9571690   -5.0108076  -10.1833623  
C    2.6553478   -3.6168703  -10.1623113  
C    2.3005042   -3.2879394   -8.8289635  
N    2.3865956   -4.4416684   -8.0899672  
C    1.9416131   -1.9941028   -8.4391276  
C    1.9412156   -1.0144119   -9.4129772  
O    1.5991577    0.2660807   -9.0868650  
C    2.2918924   -1.3230640  -10.7488581  
O    2.2429309   -0.2391755  -11.6009903  
C    2.6457920   -2.5993025  -11.1342107  
H    3.2629482   -5.6016914  -11.0297358  
H    2.2027116   -4.5155172   -7.1057346  
H    1.6631394    0.7816449   -9.9013366  
H    2.4935365   -0.5333870  -12.4820353  
H    2.9093958   -2.8055920  -12.1649559  
H    2.9088107   -6.4705905   -8.5022110  
C    2.1650264   -2.1089225   -5.9297635  
C    1.5723604   -1.6445161   -7.0598730  
C    0.5184570   -0.7489598   -6.6450207  
C    0.5459257   -0.7295295   -5.1700098  
N    1.5661287   -1.5747495   -4.7989582  
C   -0.2963293   -0.0005341   -4.3948471  
C   -1.2968019    0.8195084   -5.0575088  
O   -2.1010999    1.5117980   -4.4474755  
C   -1.3442161    0.8139948   -6.6187671  
O   -2.1824061    1.5002194   -7.1877956  
C   -0.3835315   -0.0125661   -7.3452196  
H   -0.4228732   -0.0106495   -8.4260400  
H    2.9887823   -2.7966239   -5.8278731  
H    1.8355780   -1.7715191   -3.8525303  
C    3.1301146   -0.0010313   -1.7028256  
C    2.5367765   -0.0002766   -0.4864669  
C    1.1089901    0.0001027   -0.7656184  
C    1.0177865   -0.0004150   -2.2415133  
N    2.1993571   -0.0011612   -2.7963824  
C   -0.2459219   -0.0002879   -2.9257116  
C   -1.3675326   -0.0000606   -2.1698520  
O   -2.6129318    0.0000865   -2.6748483  
C   -1.3083588    0.0000910   -0.6783229  
O   -2.3693264    0.0004206   -0.0541685  
C    0.0000000    0.0000000    0.0000000  
H    3.0096016   -0.0001007    0.4807518  
H   -3.1967444    0.0002093   -1.8949026  
H    4.1849275   -0.0015114   -1.9271979  
C    2.5528530    2.1414826    2.8079335  
C    2.0663498    1.7338582    4.0032312  
C    0.9804344    0.8229586    3.6752840  
C    0.9495562    0.7966882    2.1971295  
N    1.8690446    1.5676019    1.6831036  
C    0.0000000    0.0000000    1.4700000  
C   -0.8785127   -0.7372425    2.1869543  
O   -1.8187535   -1.5261249    1.6395491  
C   -0.8723269   -0.7321790    3.6796354  
O   -1.7010379   -1.4274584    4.2670412  
C    0.1115397    0.0933559    4.4024240  
H    2.4028853    2.0163452    4.9860947  
H   -2.2861435   -1.9184361    2.3990168  
H    0.0832434    0.0693689    5.4835595  
H    3.3664920    2.8238276    2.6198634  
