62

C    0.1741724    0.7212893   -7.3443371  
C    1.1793678    0.0025944   -7.9489253  
C    0.5838542   -0.7248480   -9.0216741  
C   -0.7985598   -0.4072693   -9.0230276  
N   -1.0137956    0.4717080   -7.9907048  
C   -1.6973581   -0.9458522   -9.9487048  
C   -1.1913463   -1.8207352  -10.8903566  
O   -2.0248924   -2.3754572  -11.8179877  
C    0.1848931   -2.1502346  -10.9049671  
O    0.5339176   -3.0355150  -11.9038681  
C    1.0721084   -1.6194970   -9.9918992  
H   -1.8988895    0.8811797   -7.7521218  
H   -2.7521376   -0.7079395   -9.9549646  
H   -1.4764063   -2.9473024  -12.3706374  
H    1.4790229   -3.2050246  -11.8434782  
H    2.1207554   -1.8906731  -10.0276984  
H    0.2103698    1.3910754   -6.5022948  
C    3.1006060    0.0006268   -3.9654947  
C    4.4058790   -0.0003346   -4.3999234  
C    4.3701024   -0.0003774   -5.8258687  
C    3.0041049    0.0008756   -6.2079354  
N    2.2602341   -0.0004912   -5.0541280  
C    2.5925321    0.0014921   -7.5441226  
C    3.5778761    0.0011383   -8.5122515  
O    3.2316408    0.0020604   -9.8325298  
C    4.9461768   -0.0004834   -8.1509106  
O    5.8059950   -0.0010616   -9.2298265  
C    5.3529312   -0.0013652   -6.8329293  
H    5.2766923   -0.0020369   -3.7669344  
H    1.2572718    0.0105050   -5.0102246  
H    4.0587365    0.0013142  -10.3317066  
H    6.7093478   -0.0021360   -8.8988329  
H    6.4083295   -0.0027870   -6.5867369  
C    3.2798085    0.0005859   -1.4499648  
C    2.5571146    0.0005569   -2.5996553  
C    1.1637437    0.0001551   -2.2210359  
C    1.1336966   -0.0000198   -0.7459471  
N    2.4483513   -0.0001427   -0.3402720  
C    0.0000000    0.0000000    0.0000000  
C   -1.2757366   -0.0000185   -0.6964416  
O   -2.3524595   -0.0000640   -0.1142313  
C   -1.2676493   -0.0000870   -2.2584084  
O   -2.3355759   -0.0004098   -2.8557296  
C    0.0181563    0.0001763   -2.9516295  
H    0.0150795    0.0003323   -4.0331630  
H    4.3498549    0.0008614   -1.3200020  
H    2.7563627    0.0012824    0.6148062  
C    0.0000000    0.0000000    1.4700000  
C    1.0541688    0.0001722    2.3260392  
C    0.5103138    0.0000454    3.6635956  
C   -0.9576371   -0.0002459    3.5155732  
N   -1.2018458    0.0001392    2.1615969  
C   -1.8348311   -0.0008317    4.5510609  
C   -1.2972847   -0.0009736    5.9014604  
O   -2.0050672   -0.0014265    6.9001319  
C    0.2542623   -0.0004184    6.0817573  
O    0.7184670   -0.0002256    7.2139121  
C    1.0974552   -0.0000873    4.8889129  
H    2.0940752    0.0005483    2.0517982  
H   -2.9081052   -0.0011668    4.4207061  
H    2.1707277    0.0000911    5.0223670  
H   -2.1128194   -0.0014912    1.7406791  
