64

C    2.0773321   -4.6161025   -6.5985291  
C    1.3222869   -3.5098742   -6.2844690  
C    1.7610465   -2.4514337   -7.1340535  
C    2.7943008   -2.9756379   -7.9522964  
N    2.9624340   -4.2917558   -7.5998992  
C    3.4604507   -2.2090482   -8.9132198  
C    3.0763341   -0.8893164   -9.0508437  
O    3.6935028   -0.0959606   -9.9742639  
C    2.0477993   -0.3479478   -8.2434712  
O    1.7808637    0.9810059   -8.5003179  
C    1.3903781   -1.1035500   -7.2951091  
H    0.5509926   -3.4703269   -5.5344464  
H    3.6199391   -4.9250111   -8.0178171  
H    4.2488683   -2.6026003   -9.5398907  
H    3.2802483    0.7745812   -9.9061255  
H    1.0749538    1.2684260   -7.9132195  
H    2.0555165   -5.6104332   -6.1864742  
C    0.1164998   -0.7216400   -5.1523583  
C    0.3272678   -0.5036903   -6.4760463  
C   -0.6879590    0.4235563   -6.9169129  
C   -1.5133671    0.7301674   -5.7330708  
N   -0.9736297    0.0040464   -4.6965763  
C   -2.5790089    1.5704692   -5.7354640  
C   -2.9370249    2.2158046   -6.9876223  
O   -3.8800066    2.9891499   -7.0926168  
C   -2.0769102    1.9054768   -8.2539972  
O   -2.3689469    2.4426557   -9.3139092  
C   -0.9518103    0.9825202   -8.1269043  
H   -3.1711467    1.7818063   -4.8559076  
H   -0.3611580    0.7731148   -9.0083816  
H    0.6657026   -1.3515088   -4.4715271  
C    1.1188642    0.0008222   -0.8003808  
C    0.0000000    0.0000000    0.0000000  
C   -1.1323862    0.0008899   -0.8673528  
C   -0.6382663    0.0019679   -2.1969280  
N    0.7324016    0.0038481   -2.1202242  
C   -1.4770914    0.0027318   -3.3154808  
C   -2.8395473    0.0020945   -3.0876857  
O   -3.7039201    0.0024425   -4.1440349  
C   -3.3517868    0.0013931   -1.7684331  
O   -4.7300497    0.0012366   -1.7073121  
C   -2.5248543    0.0009123   -0.6644817  
H    1.3576314   -0.0056167   -2.9057046  
H   -4.5940032    0.0021826   -3.7685128  
H   -4.9934602    0.0007259   -0.7819913  
H   -2.9462577    0.0005603    0.3339659  
H    2.1619895    0.0009355   -0.5342068  
C    2.5285572    2.1210227    2.9438989  
C    1.9331703    1.6216660    4.0790748  
C    0.8903039    0.7472258    3.6520102  
C    0.8972198    0.7527806    2.2336141  
N    1.9028376    1.5986179    1.8362361  
C    0.0000000    0.0000000    1.4700000  
C   -0.9207814   -0.7726952    2.1506477  
O   -1.8198395   -1.5274828    1.4542253  
C   -0.9436862   -0.7911793    3.5655508  
O   -1.9197945   -1.6098497    4.0950179  
C   -0.0590329   -0.0485852    4.3195194  
H    2.2150357    1.8593692    5.0905303  
H    2.1533708    1.7953814    0.8841339  
H   -2.3621246   -1.9821033    2.1118817  
H   -1.8668290   -1.5649508    5.0545920  
H   -0.1007624   -0.0827977    5.4019087  
H    3.3491200    2.8096064    2.8367138  
