64

C   -2.4861723   -0.0028427   -3.7159923  
C   -3.5192700   -0.0034901   -2.8076001  
C   -4.7328130   -0.0050762   -3.5572067  
C   -4.3743080   -0.0056192   -4.9295769  
N   -3.0028519   -0.0022812   -4.9905081  
C   -5.3209189   -0.0074425   -5.9585150  
C   -6.6537171   -0.0090482   -5.5954394  
O   -7.6195174   -0.0112138   -6.5599278  
C   -7.0312839   -0.0081627   -4.2315260  
O   -8.3964989   -0.0095664   -4.0327047  
C   -6.0979688   -0.0060910   -3.2159256  
H   -3.4114733   -0.0017874   -1.7364465  
H   -2.4594037   -0.0123786   -5.8346315  
H   -8.4675263   -0.0117475   -6.0971681  
H   -8.5659330   -0.0088702   -3.0856591  
H   -6.4172794   -0.0052748   -2.1803008  
C    0.0000000    0.0000000    0.0000000  
C   -1.0521655   -0.0019335   -0.8862343  
C   -0.4917230   -0.0002641   -2.1979132  
C    0.9187403    0.0024127   -2.0478682  
N    1.1833092    0.0044540   -0.7007915  
C    1.7951652    0.0042944   -3.1372092  
C    1.2375800    0.0031516   -4.4010424  
O    2.0474166    0.0045422   -5.4997579  
C   -0.1673613    0.0008597   -4.5711967  
O   -0.5673559    0.0003843   -5.8915554  
C   -1.0325791   -0.0007242   -3.4969893  
H   -2.0953050   -0.0031555   -0.6200560  
H    2.0989990   -0.0040058   -0.2891825  
H    2.8710864    0.0064815   -3.0295515  
H    1.4634843    0.0036949   -6.2693593  
H   -1.5290736   -0.0012242   -5.9180046  
C   -2.1414474   -2.1255843   -8.1863655  
C   -2.4390550   -1.6273771   -9.4336369  
C   -3.5562067   -0.7543280   -9.2775687  
C   -3.8994081   -0.7595073   -7.9013014  
N   -3.0217770   -1.6037947   -7.2676137  
C   -4.9582778   -0.0078213   -7.3830823  
C   -5.6837162    0.7633731   -8.2703116  
O   -6.7277936    1.5170460   -7.8176620  
C   -5.3568883    0.7814596   -9.6471462  
O   -6.1733003    1.5985885  -10.4015439  
C   -4.3125897    0.0399446  -10.1591251  
H   -1.9160644   -1.8649352  -10.3441534  
H   -3.0136039   -1.7999522   -6.2830140  
H   -7.0916834    1.9707166   -8.5890458  
H   -5.8851906    1.5535186  -11.3183679  
H   -4.0860554    0.0738180  -11.2183759  
H   -1.3717724   -2.8129592   -7.8796487  
C    1.1319247   -0.0015655    2.2709268  
C    0.7969915   -0.0034943    3.5869401  
C   -0.6453339   -0.0035710    3.6542670  
C   -1.1266833   -0.0015433    2.2596025  
N    0.0000000    0.0000000    1.4700000  
C   -2.4346130   -0.0013964    1.8976294  
C   -3.4350110   -0.0031408    2.9520183  
O   -4.6384611   -0.0030974    2.7283916  
C   -2.9478959   -0.0050506    4.4361073  
O   -3.7809380   -0.0062218    5.3323774  
C   -1.5113823   -0.0053090    4.7012123  
H    1.4821238   -0.0045407    4.4159191  
H   -2.7664565   -0.0000232    0.8686553  
H   -1.1823530   -0.0068408    5.7314848  
H    2.1104316   -0.0009391    1.8188057  
