60

C   -1.7181985    2.1213879   -6.1152974  
C   -0.4264250    1.6586511   -6.0169957  
C   -0.2180141    0.7698302   -7.1129713  
C   -1.4279120    0.7297169   -7.8522023  
N   -2.3183782    1.5601167   -7.2180699  
C   -1.5853013   -0.0477281   -9.0035480  
C   -0.5014647   -0.7981181   -9.4163324  
O   -0.6004656   -1.5748479  -10.5343233  
C    0.7139825   -0.7716159   -8.6918986  
O    1.6993625   -1.5733966   -9.2299660  
C    0.8698757   -0.0050876   -7.5558273  
H    0.2785499    1.9276780   -5.2491227  
H   -3.2585605    1.7417751   -7.5197964  
H   -2.5048579   -0.0827637   -9.5713425  
H    0.2560027   -2.0085403  -10.6422049  
H    2.4861232   -1.4979507   -8.6814050  
H   -2.2593801    2.8062873   -5.4852225  
C    1.6707638   -0.0012342   -3.2725973  
C    3.0236194   -0.0024591   -3.2357227  
C    3.4368536   -0.0041813   -4.6306186  
C    2.1706892   -0.0038457   -5.3944323  
N    1.1320373   -0.0020398   -4.6037431  
C    2.1489264   -0.0051902   -6.8313076  
C    3.3380085   -0.0064082   -7.4758355  
O    3.4666346   -0.0077442   -8.8135556  
C    4.6328546   -0.0064066   -6.7331821  
O    5.6771187   -0.0076791   -7.3848966  
C    4.6287467   -0.0050571   -5.2594432  
H    3.6622535   -0.0021326   -2.3689922  
H    4.4282060   -0.0083574   -8.9701849  
H    5.5877287   -0.0049857   -4.7588595  
C    1.0965515    0.0001359   -0.8010305  
C    0.0000000    0.0000000    0.0000000  
C   -1.1546564    0.0001470   -0.8669509  
C   -0.6372018    0.0003521   -2.2486279  
N    0.7342868    0.0007339   -2.1395011  
C   -1.4147743    0.0001355   -3.3608714  
C   -2.8576049   -0.0001046   -3.1854455  
O   -3.6427782   -0.0002491   -4.1244898  
C   -3.4275842   -0.0000725   -1.7311664  
O   -4.6406831    0.0000334   -1.5710053  
C   -2.4891868   -0.0001091   -0.6116742  
H   -1.0150456    0.0001619   -4.3654242  
H   -2.8919123   -0.0002920    0.3920869  
H    2.1388270    0.0000663   -0.5261648  
C    2.4951002    2.0940188    2.9809380  
C    1.9440701    1.6314916    1.8291961  
C    0.8759964    0.7350050    2.2038498  
C    0.8497377    0.7130254    3.6788474  
N    1.8560616    1.5571714    4.0882609  
C   -0.0205033   -0.0168748    4.4215661  
C   -0.9962600   -0.8356168    3.7214979  
O   -1.8224391   -1.5286685    4.3006425  
C   -0.9864710   -0.8277881    2.1595606  
O   -1.8030528   -1.5133726    1.5592035  
C    0.0000000    0.0000000    1.4700000  
H    2.2509283    1.8888011    0.8310761  
H   -0.0229599   -0.0187323    5.5027230  
H    3.3143982    2.7817323    3.1139444  
H    2.0889452    1.7545833    5.0442112  
