60

C    6.4003169   -0.0080183   -6.6705639  
C    7.0773894   -0.0071772   -5.4730499  
C    8.4699058   -0.0091134   -5.7820729  
C    8.5824574   -0.0108197   -7.1960225  
N    7.3072439   -0.0120515   -7.7043988  
C    9.8146995   -0.0126611   -7.8566025  
C   10.9540766   -0.0124750   -7.0755792  
O   12.1832570   -0.0138722   -7.6689829  
C   10.8623070   -0.0111597   -5.6633495  
O   12.0862932   -0.0115675   -5.0267956  
C    9.6470049   -0.0096161   -5.0109953  
H    6.6234654   -0.0064934   -4.4968601  
H    7.0715056   -0.0028120   -8.6802701  
H    9.9072387   -0.0141113   -8.9339302  
H   12.8320163   -0.0137633   -6.9531776  
H   11.9349921   -0.0105846   -4.0766847  
H    9.6081323   -0.0088143   -3.9279600  
C    2.8699641   -0.0020527   -4.0185824  
C    4.1345929   -0.0036615   -4.5133415  
C    4.0234321   -0.0055090   -5.9529508  
C    2.5800296   -0.0048105   -6.2585311  
N    1.9354846   -0.0030990   -5.0430271  
C    2.0594337   -0.0056968   -7.5118002  
C    2.9823235   -0.0076822   -8.6346561  
O    2.6119089   -0.0086661   -9.8013149  
C    4.5151781   -0.0087041   -8.3343879  
O    5.3018076   -0.0106821   -9.2716564  
C    4.9555132   -0.0073188   -6.9415652  
H    5.0417776   -0.0037476   -3.9357352  
H    0.9973750   -0.0050302   -7.7141401  
H    0.9396388   -0.0007138   -4.9192032  
C    3.2573673   -0.0002921   -1.5109381  
C    2.5379469   -0.0001710   -0.3591962  
C    1.1435042    0.0000332   -0.7338498  
C    1.1092607   -0.0000083   -2.2088474  
N    2.4227562    0.0001908   -2.6182610  
C   -0.0265532   -0.0002523   -2.9515663  
C   -1.3003033   -0.0002639   -2.2514979  
O   -2.3786784   -0.0004132   -2.8306425  
C   -1.2877726    0.0000312   -0.6895609  
O   -2.3539956    0.0003308   -0.0892035  
C    0.0000000    0.0000000    0.0000000  
H    2.9384091   -0.0000368    0.6389240  
H   -0.0296292   -0.0004086   -4.0327231  
H    4.3270395   -0.0004765   -1.6439444  
C    0.0000000    0.0000000    1.4700000  
C    1.0541688    0.0001722    2.3260392  
C    0.5103138    0.0000454    3.6635956  
C   -0.9576371   -0.0002459    3.5155732  
N   -1.2018458    0.0001392    2.1615969  
C   -1.8348311   -0.0008317    4.5510609  
C   -1.2972847   -0.0009736    5.9014604  
O   -2.0050672   -0.0014265    6.9001319  
C    0.2542623   -0.0004184    6.0817573  
O    0.7184670   -0.0002256    7.2139121  
C    1.0974552   -0.0000873    4.8889129  
H    2.0940752    0.0005483    2.0517982  
H   -2.9081052   -0.0011668    4.4207061  
H    2.1707277    0.0000911    5.0223670  
H   -2.1128194   -0.0014912    1.7406791  
