62

C    8.2871483    0.0114109   -2.1338434  
C    8.5645252    0.0137111   -3.4812571  
C    9.9846372    0.0300829   -3.6139773  
C   10.5251652    0.0369524   -2.3026006  
N    9.4672282    0.0272412   -1.4277910  
C   11.9004916    0.0526817   -2.0515595  
C   12.7455529    0.0613326   -3.1442500  
O   14.0973765    0.0763946   -2.9562111  
C   12.2253282    0.0550613   -4.4603592  
O   13.1951999    0.0655447   -5.4414715  
C   10.8686456    0.0398181   -4.7087642  
H    7.8332536    0.0058028   -4.2713027  
H    9.5420776    0.0185168   -0.4266406  
H   12.3187888    0.0581317   -1.0544636  
H   14.4954569    0.0805375   -3.8364274  
H   12.7599643    0.0603562   -6.2994614  
H   10.4996722    0.0355220   -5.7277429  
C    5.7628303    0.0000250   -2.0437091  
C    4.7795901    0.0008674   -1.0815733  
C    5.4361691    0.0004496    0.1847221  
C    6.8315417   -0.0003744   -0.0699541  
N    6.9950514   -0.0025640   -1.4329939  
C    7.7866665   -0.0006604    0.9510869  
C    7.3247567    0.0002026    2.2529380  
O    8.2141755    0.0003209    3.2882866  
C    5.9363881    0.0006567    2.5272563  
O    5.6358413    0.0010869    3.8737390  
C    4.9935669    0.0006658    1.5204720  
H    8.8515839   -0.0014319    0.7635961  
H    7.6891821    0.0006671    4.0992406  
H    4.6787634    0.0014035    3.9717415  
H    3.9369291    0.0008378    1.7612934  
H    5.6826514   -0.0003796   -3.1172687  
C    3.3321168    0.0004716   -1.3379341  
C    2.6974177    0.0000118   -2.5332316  
C    1.2800432   -0.0002116   -2.2052842  
C    1.2395033    0.0000644   -0.7271298  
N    2.4394059    0.0005460   -0.2131041  
C    0.0000000    0.0000000    0.0000000  
C   -1.1468704    0.0000635   -0.7169542  
O   -2.3742206    0.0000074   -0.1695488  
C   -1.1388774    0.0001608   -2.2096352  
O   -2.2206238    0.0000906   -2.7970409  
C    0.1454514    0.0001818   -2.9324241  
H    3.1367978   -0.0000649   -3.5160956  
H   -2.9844350    0.0001027   -0.9290164  
H    0.1083567    0.0003684   -4.0135594  
C    0.0000000    0.0000000    1.4700000  
C    1.0541688    0.0001722    2.3260392  
C    0.5103138    0.0000454    3.6635956  
C   -0.9576371   -0.0002459    3.5155732  
N   -1.2018458    0.0001392    2.1615969  
C   -1.8348311   -0.0008317    4.5510609  
C   -1.2972847   -0.0009736    5.9014604  
O   -2.0050672   -0.0014265    6.9001319  
C    0.2542623   -0.0004184    6.0817573  
O    0.7184670   -0.0002256    7.2139121  
C    1.0974552   -0.0000873    4.8889129  
H    2.0940752    0.0005483    2.0517982  
H   -2.9081052   -0.0011668    4.4207061  
H    2.1707277    0.0000911    5.0223670  
H   -2.1128194   -0.0014912    1.7406791  
