62

C    4.5679461   -0.0016852   -2.0086700  
C    5.6536973   -0.0029014   -1.1639159  
C    6.8200667   -0.0036869   -1.9850012  
C    6.3798480   -0.0026034   -3.3333826  
N    5.0072030   -0.0033524   -3.3118967  
C    7.2630035   -0.0026748   -4.4172766  
C    8.6151888   -0.0035546   -4.1348421  
O    9.5213679   -0.0033135   -5.1555544  
C    9.0739280   -0.0050175   -2.7960467  
O   10.4486148   -0.0061771   -2.6795160  
C    8.2032430   -0.0052211   -1.7262640  
H    5.6103768   -0.0042925   -0.0882232  
H    4.4140950    0.0076885   -4.1218859  
H    6.9338469   -0.0019967   -5.4472563  
H   10.3956196   -0.0043378   -4.7445211  
H   10.6745780   -0.0070988   -1.7443458  
H    8.5841289   -0.0065375   -0.7116693  
C    3.1301152   -0.0010311   -1.7028251  
C    2.5367770   -0.0002766   -0.4864665  
C    1.1089905    0.0001028   -0.7656183  
C    1.0177873   -0.0004148   -2.2415130  
N    2.1993580   -0.0011610   -2.7963820  
C   -0.2459208   -0.0002877   -2.9257119  
C   -1.3675318   -0.0000605   -2.1698523  
O   -2.6129310    0.0000866   -2.6748492  
C   -1.3083584    0.0000911   -0.6783232  
O   -2.3693259    0.0004206   -0.0541692  
C    0.0000000    0.0000000    0.0000000  
H    3.0096019   -0.0001007    0.4807529  
H   -3.1967440    0.0002093   -1.8949035  
C   -0.2963281   -0.0005339   -4.3948471  
C    0.7248300   -0.0020291   -5.3166395  
C    0.1197363   -0.0021709   -6.6083290  
C   -1.2847535   -0.0004254   -6.4100072  
N   -1.5029801   -0.0014163   -5.0546494  
C   -2.1980195    0.0002428   -7.4686541  
C   -1.6840989   -0.0005645   -8.7508642  
O   -2.5311358    0.0003856   -9.8211632  
C   -0.2858184   -0.0026811   -8.9690939  
O    0.0686646   -0.0036738  -10.3023926  
C    0.6157270   -0.0036145   -7.9251871  
H    1.7764827   -0.0040145   -5.0863876  
H   -2.4039862    0.0099672   -4.6118861  
H   -3.2696182    0.0014278   -7.3241655  
H   -1.9739367   -0.0007165  -10.6103357  
H    1.0289104   -0.0050680  -10.3618040  
H    1.6811980   -0.0054207   -8.1232952  
C    2.4951002    2.0940188    2.9809380  
C    1.9440701    1.6314916    1.8291961  
C    0.8759964    0.7350050    2.2038498  
C    0.8497377    0.7130254    3.6788474  
N    1.8560616    1.5571714    4.0882609  
C   -0.0205033   -0.0168748    4.4215661  
C   -0.9962600   -0.8356168    3.7214979  
O   -1.8224391   -1.5286685    4.3006425  
C   -0.9864710   -0.8277881    2.1595606  
O   -1.8030528   -1.5133726    1.5592035  
C    0.0000000    0.0000000    1.4700000  
H    2.2509283    1.8888011    0.8310761  
H   -0.0229599   -0.0187323    5.5027230  
H    3.3143982    2.7817323    3.1139444  
H    2.0889452    1.7545833    5.0442112  
