64

C    0.5142035    0.7198295   -7.3732007  
C    1.5437654    0.0011124   -7.9352640  
C    0.9935167   -0.7265408   -9.0317795  
C   -0.3876611   -0.4090621   -9.0907858  
N   -0.6457831    0.4700613   -8.0684683  
C   -1.2470717   -0.9478548  -10.0530249  
C   -0.7022046   -1.8228487  -10.9726345  
O   -1.4963372   -2.3777759  -11.9341043  
C    0.6734699   -2.1522509  -10.9298337  
O    1.0638723   -3.0376625  -11.9131826  
C    1.5218335   -1.6213065   -9.9806744  
H   -1.5400766    0.8795065   -7.8670385  
H   -2.3006899   -0.7100191  -10.1032685  
H   -0.9252618   -2.9496680  -12.4633281  
H    2.0056515   -3.2070945  -11.8134368  
H    2.5710793   -1.8924126   -9.9727035  
H    0.5152387    1.3897499   -6.5304883  
C    3.2973507   -0.0000930   -3.8752373  
C    4.6195923   -0.0010282   -4.2548995  
C    4.6432640   -0.0012968   -5.6810972  
C    3.2943730   -0.0002022   -6.1197516  
N    2.5030707   -0.0014420   -4.9979422  
C    2.9388348    0.0001754   -7.4719280  
C    3.9636637   -0.0002588   -8.3981581  
O    3.6727434    0.0004316   -9.7317169  
C    5.3157196   -0.0017253   -7.9801154  
O    6.2197480   -0.0024104   -9.0222667  
C    5.6672022   -0.0023714   -6.6463297  
H    5.4632736   -0.0025686   -3.5861744  
H    1.4991494    0.0094887   -4.9958708  
H    4.5199209   -0.0003331  -10.1959961  
H    7.1085242   -0.0033678   -8.6539189  
H    6.7114253   -0.0036785   -6.3563739  
C    3.3321175    0.0004715   -1.3379331  
C    2.6974186    0.0000117   -2.5332308  
C    1.2800441   -0.0002117   -2.2052838  
C    1.2395036    0.0000644   -0.7271292  
N    2.4394065    0.0005460   -0.2131033  
C    0.0000000    0.0000000    0.0000000  
C   -1.1468701    0.0000635   -0.7169542  
O   -2.3742199    0.0000073   -0.1695491  
C   -1.1388766    0.0001607   -2.2096354  
O   -2.2206227    0.0000905   -2.7970412  
C    0.1454526    0.0001817   -2.9324239  
H   -2.9844344    0.0001026   -0.9290168  
H    0.1083579    0.0003683   -4.0135594  
H    4.3940038    0.0007619   -1.1498630  
C    2.5311839    2.1237619    3.0120429  
C    1.9795631    1.6616747    1.8395852  
C    0.9223175    0.7739173    2.1983588  
C    0.8753926    0.7337535    3.6154372  
N    1.8668922    1.5631002    4.0777464  
C   -0.0496243   -0.0427881    4.3197917  
C   -0.9437528   -0.7922060    3.5801400  
O   -1.8685244   -1.5680278    4.2172520  
C   -0.9124520   -0.7656372    2.1655264  
O   -1.8671164   -1.5663939    1.5732860  
C    0.0000000    0.0000000    1.4700000  
H    2.3005065    1.9304404    0.8477417  
H    2.0679347    1.7444845    5.0445261  
H   -0.0904770   -0.0778569    5.3997470  
H   -2.3849669   -2.0011402    3.5251786  
H   -1.7775064   -1.4909735    0.6183591  
H    3.3468514    2.8078103    3.1724291  
