64

C    9.1522031   -0.0000270   -0.9838771  
C   10.1710852    0.0009291   -1.9081846  
C   11.3961116    0.0006314   -1.1774922  
C   11.0589375   -0.0008143    0.2002734  
N    9.6885884    0.0007702    0.2824714  
C   12.0213962   -0.0017779    1.2144042  
C   13.3484043   -0.0015800    0.8306987  
O   14.3290502   -0.0028406    1.7800899  
C   13.7047674    0.0002295   -0.5389066  
O   15.0667348    0.0006167   -0.7588803  
C   12.7558104    0.0014542   -1.5399075  
H   10.0466845    0.0028463   -2.9775368  
H    9.1583132   -0.0102907    1.1349189  
H   11.7709334   -0.0027371    2.2662929  
H   15.1697790   -0.0021508    1.3042321  
H   15.2214583    0.0018373   -1.7084397  
H   13.0590160    0.0030132   -2.5803601  
C    6.4260942    0.0030632   -4.5098896  
C    7.5522593    0.0028889   -3.7593365  
C    7.0848231    0.0018025   -2.3816563  
C    5.6099772    0.0015410   -2.4884881  
N    5.2179714    0.0021962   -3.7336068  
C    4.7630507    0.0004755   -1.3275395  
C    5.3622564   -0.0006826   -0.1149860  
O    4.6953711   -0.0017512    1.0517634  
C    6.8483164   -0.0008252    0.0256772  
O    7.3251007   -0.0017844    1.1605324  
C    7.6953859    0.0003256   -1.1803064  
H    8.5739863    0.0033404   -4.0986751  
H    5.3903103   -0.0024424    1.7345610  
H    6.3446838    0.0037693   -5.5852243  
C    3.3003548    0.0005276   -1.4738982  
C    2.5232817    0.0003497   -2.6090743  
C    1.1623204   -0.0001319   -2.1820101  
C    1.1711886    0.0000583   -0.7636140  
N    2.4852302   -0.0014919   -0.3662356  
C    0.0000000    0.0000000    0.0000000  
C   -1.2020379    0.0000520   -0.6806479  
O   -2.3759249    0.0003495    0.0157742  
C   -1.2314652   -0.0005112   -2.0955511  
O   -2.5054384   -0.0008036   -2.6250184  
C   -0.0764510   -0.0007271   -2.8495195  
H    2.8919962   -0.0005619   -3.6205297  
H    2.8036267    0.0088181    0.5858667  
H   -3.0835636    0.0000348   -0.6418823  
H   -2.4360038   -0.0011526   -3.5845925  
H   -0.1304090   -0.0013420   -3.9319089  
C    2.5285572    2.1210227    2.9438989  
C    1.9331703    1.6216660    4.0790748  
C    0.8903039    0.7472258    3.6520102  
C    0.8972198    0.7527806    2.2336141  
N    1.9028376    1.5986179    1.8362361  
C    0.0000000    0.0000000    1.4700000  
C   -0.9207814   -0.7726952    2.1506477  
O   -1.8198395   -1.5274828    1.4542253  
C   -0.9436862   -0.7911793    3.5655508  
O   -1.9197945   -1.6098497    4.0950179  
C   -0.0590329   -0.0485852    4.3195194  
H    2.2150357    1.8593692    5.0905303  
H    2.1533708    1.7953814    0.8841339  
H   -2.3621246   -1.9821033    2.1118817  
H   -1.8668290   -1.5649508    5.0545920  
H   -0.1007624   -0.0827977    5.4019087  
H    3.3491200    2.8096064    2.8367138  
