62

C    4.7390844    0.0009612   -1.2727295  
C    5.7457114    0.0027391   -2.2103679  
C    6.9802491    0.0028874   -1.4958638  
C    6.6612413    0.0008544   -0.1137797  
N    5.2920917    0.0016753   -0.0135510  
C    7.6369665    0.0001118    0.8875944  
C    8.9588074    0.0011387    0.4864546  
O    9.9518658    0.0001278    1.4228549  
C    9.2971110    0.0035435   -0.8877220  
O   10.6560644    0.0047303   -1.1256038  
C    8.3350583    0.0045506   -1.8761448  
H    5.6072448    0.0049039   -3.2779894  
H    4.7730889   -0.0099227    0.8457994  
H    7.4003706   -0.0012921    1.9426884  
H   10.7862571    0.0014113    0.9359723  
H   10.7982738    0.0063138   -2.0771173  
H    8.6245433    0.0065795   -2.9204976  
C    3.2798077    0.0005856   -1.4499659  
C    2.5571132    0.0005565   -2.5996562  
C    1.1637425    0.0001548   -2.2210364  
C    1.1336957   -0.0000200   -0.7459472  
N    2.4483508   -0.0001429   -0.3402728  
C    0.0000000    0.0000000    0.0000000  
C   -1.2757370   -0.0000187   -0.6964410  
O   -2.3524597   -0.0000640   -0.1142306  
C   -1.2676501   -0.0000873   -2.2584079  
O   -2.3355772   -0.0004101   -2.8557287  
C    0.0181552    0.0001759   -2.9516296  
H    2.9547343    0.0006074   -3.5989115  
H    2.7563624    0.0012823    0.6148054  
C    2.5229081   -2.1069159   -5.8790370  
C    1.9659570   -1.6422907   -7.0270805  
C    0.8993044   -0.7471215   -6.6452956  
C    0.8803702   -0.7281566   -5.1701439  
N    1.8886122   -1.5732491   -4.7674581  
C    0.0139724    0.0003878   -4.4216237  
C   -0.9653725    0.8204011   -5.1151632  
O   -1.7886303    1.5123016   -4.5305084  
C   -0.9636653    0.8153758   -6.6771420  
O   -1.7837190    1.5015806   -7.2720336  
C    0.0195963   -0.0107209   -7.3732829  
H    2.2677669   -1.8976620   -8.0272354  
H    0.0142618   -0.0084680   -8.4548052  
H    3.3432254   -2.7944518   -5.7515069  
H    2.1282155   -1.7702565   -3.8130863  
C    0.0000000    0.0000000    1.4700000  
C    1.0521667    0.0011902    2.3562342  
C    0.4917218    0.0011957    3.6679131  
C   -0.9187428   -0.0003148    3.5178682  
N   -1.1833171    0.0009411    2.1707914  
C   -1.7951701   -0.0010350    4.6072090  
C   -1.2375837   -0.0005224    5.8710424  
O   -2.0474215   -0.0015360    6.9697579  
C    0.1673580    0.0013566    6.0411963  
O    0.5673524    0.0020687    7.3615553  
C    1.0325770    0.0023412    4.9669890  
H    2.0953057    0.0030649    2.0900562  
H   -2.0989778   -0.0102372    1.7591824  
H   -2.8710934   -0.0020419    4.4995513  
H   -1.4634884   -0.0006497    7.7393593  
H    1.5290710    0.0033153    7.3880045  
H    2.1042148    0.0039609    5.1284455  
