60

C    6.3382017   -2.0009474   -7.0705740  
C    7.4223731   -2.8407546   -7.1790314  
C    7.8297483   -2.8203518   -8.5458633  
C    6.9496636   -1.9427766   -9.2294120  
N    6.0551157   -1.4640256   -8.3046437  
C    7.0558699   -1.6803579  -10.5985890  
C    8.0691607   -2.3151801  -11.2902697  
O    8.2184056   -2.0944610  -12.6289342  
C    8.9570016   -3.1945536  -10.6259977  
O    9.9122165   -3.7491274  -11.4526512  
C    8.8526504   -3.4541136   -9.2753443  
H    7.8644754   -3.4002005   -6.3724591  
H    5.3164645   -0.8113785   -8.4955018  
H    6.3881949   -1.0126676  -11.1254683  
H    8.9733837   -2.6271148  -12.9109849  
H   10.4702650   -4.3295290  -10.9260388  
H    9.5472415   -4.1325817   -8.7939888  
C    5.7035982   -2.1123455   -4.6323632  
C    5.5262381   -1.6495157   -5.8966447  
C    4.3945374   -0.7534732   -5.8620419  
C    3.9237595   -0.7320392   -4.4639368  
N    4.7591257   -1.5766814   -3.7699387  
C    2.8699641   -0.0020530   -4.0185824  
C    2.1513543    0.8170174   -4.9804865  
O    1.1888858    1.5100763   -4.6777910  
C    2.6323970    0.8093817   -6.4665363  
O    2.0350148    1.4947730   -7.2854586  
C    3.7812680   -0.0180952   -6.8260217  
H    4.1081467   -0.0176484   -7.8569791  
H    6.4446785   -2.7998488   -4.2581603  
H    4.6940932   -1.7721468   -2.7877926  
C    3.2573670   -0.0002921   -1.5109382  
C    2.5379468   -0.0001711   -0.3591962  
C    1.1435043    0.0000330   -0.7338498  
C    1.1092608   -0.0000085   -2.2088474  
N    2.4227562    0.0001906   -2.6182610  
C   -0.0265533   -0.0002525   -2.9515663  
C   -1.3003033   -0.0002641   -2.2514979  
O   -2.3786785   -0.0004132   -2.8306425  
C   -1.2877724    0.0000310   -0.6895608  
O   -2.3539956    0.0003306   -0.0892035  
C    0.0000000    0.0000000    0.0000000  
H    2.9384091   -0.0000370    0.6389240  
H   -0.0296290   -0.0004088   -4.0327231  
H    4.3270394   -0.0004767   -1.6439445  
C    2.5128556    2.1077716    2.9199648  
C    1.9592212    1.6432552    4.0696553  
C    0.8915788    0.7479214    3.6910360  
C    0.8684491    0.7287414    2.2159470  
N    1.8754542    1.5738793    1.8102719  
C    0.0000000    0.0000000    1.4700000  
C   -0.9772830   -0.8200135    2.1664417  
O   -1.8021297   -1.5120829    1.5842315  
C   -0.9711318   -0.8147624    3.7284083  
O   -1.7894187   -1.5009653    4.3257297  
C    0.0140216    0.0115358    4.4216297  
H    2.2638494    1.8988021    5.0689105  
H    0.0117648    0.0094386    5.5031631  
H    3.3327358    2.7953732    2.7900019  
H    2.1123206    1.7707734    0.8551938  
