62

C    7.1743021   -3.6316483   -3.4715559  
C    8.2576131   -4.4428512   -3.7182430  
C    8.5237764   -4.3679475   -5.1175806  
C    7.5624059   -3.4881344   -5.6775999  
N    6.7573605   -3.0605423   -4.6511094  
C    7.5241800   -3.1780896   -7.0403919  
C    8.4739392   -3.7667010   -7.8525948  
O    8.4824074   -3.4983693   -9.1908532  
C    9.4411024   -4.6474970   -7.3125859  
O   10.3178823   -5.1527470   -8.2503093  
C    9.4792408   -4.9540291   -5.9682984  
H    8.7897844   -5.0187033   -2.9805562  
H    6.7939588   -2.5084272   -7.4734399  
H    9.2148478   -4.0042901   -9.5661419  
H   10.9373790   -5.7376414   -7.8034024  
H   10.2318212   -5.6323452   -5.5836055  
H    6.6651657   -3.4163703   -2.5477625  
C    5.6351514   -2.1207163   -4.7862945  
C    4.7953959   -1.6469393   -3.8300404  
C    3.8703594   -0.7538889   -4.4870061  
C    4.2426837   -0.7461856   -5.9146289  
N    5.3197297   -1.5944759   -6.0298054  
C    3.6068913   -0.0233210   -6.8711523  
C    2.4808708    0.8023738   -6.4676170  
O    1.8433179    1.4899660   -7.2544102  
C    2.0692938    0.8096662   -4.9608468  
O    1.1230561    1.5012096   -4.6091894  
C    2.8310662   -0.0116220   -4.0232752  
H    4.8211529   -1.8946398   -2.7838119  
H    3.8959297   -0.0319308   -7.9129258  
H    5.8010901   -1.8011849   -6.8857326  
C    3.3041270    0.0001177   -1.5420434  
C    2.5845372   -0.0004781   -0.3695856  
C    1.2040006   -0.0000008   -0.7283592  
C    1.1422371    0.0006037   -2.1454375  
N    2.4348636    0.0026109   -2.6077467  
C   -0.0655183    0.0008798   -2.8497920  
C   -1.2321770    0.0002326   -2.1101400  
O   -2.4392818    0.0001147   -2.7472520  
C   -1.1911210   -0.0000007   -0.6955263  
O   -2.4371527   -0.0002320   -0.1032859  
C    0.0000000    0.0000000    0.0000000  
H    3.0031533   -0.0000660    0.6222577  
H   -0.1193553    0.0014844   -3.9297472  
H   -3.1132989   -0.0000648   -2.0551784  
H   -2.3200282   -0.0004069    0.8516410  
H    4.3686624    0.0004070   -1.7024294  
C    0.8175213    0.6860729    2.3021913  
C    0.0000000    0.0000000    1.4700000  
C   -0.8887526   -0.7456559    2.3478473  
C   -0.4549825   -0.3816753    3.7138435  
N    0.5448156    0.4573574    3.6934124  
C   -1.0945674   -0.9182058    4.8835240  
C   -2.1210866   -1.7789155    4.6970523  
O   -2.8083856   -2.3554314    5.6976972  
C   -2.5824069   -2.1655116    3.3310774  
O   -3.5227682   -2.9541547    3.2362962  
C   -1.9100805   -1.6015804    2.1470656  
H   -0.7567140   -0.6349833    5.8697035  
H   -3.4728268   -2.9124471    5.2533954  
H   -2.2742832   -1.9066565    1.1752040  
H    1.6189533    1.3585343    2.0405121  
