60

C   -0.0541964   -0.8925999   -9.6456330  
C   -0.2258923    0.1910652   -8.8157785  
C   -0.4469843    1.3251215   -9.6522211  
C   -0.3989782    0.8681986  -10.9941753  
N   -0.1568891   -0.4825127  -10.9543080  
C   -0.5765619    1.7187785  -12.0895135  
C   -0.8071040    3.0549067  -11.8253373  
O   -0.9877152    3.9291921  -12.8578190  
C   -0.8581872    3.5299603  -10.4932223  
O   -1.0958707    4.8854092  -10.3951957  
C   -0.6828164    2.6914598   -9.4121631  
H   -0.0805966   -1.0823431  -11.7557842  
H   -0.5409926    1.3767782  -13.1146830  
H   -1.1315478    4.7971029  -12.4586853  
H   -1.1150717    5.1242258   -9.4634222  
H   -0.7271577    3.0842263   -8.4030813  
H    0.1348169   -1.9253502   -9.4075996  
C    2.4064704   -2.0119089   -6.1315527  
C    1.9558553   -1.6301625   -4.9138521  
C    0.8614673   -0.7121809   -5.1897589  
C    0.7870640   -0.6537475   -6.6654397  
N    1.6902156   -1.4136448   -7.2229901  
C   -0.1829370    0.1586449   -7.3467641  
C   -1.0399147    0.8795790   -6.5883597  
O   -1.9953662    1.6801933   -7.0905244  
C   -0.9902404    0.8414487   -5.0969710  
O   -1.8010679    1.5235043   -4.4704093  
C    0.0139741    0.0003876   -4.4216236  
H    2.3209548   -1.9340559   -3.9477120  
H   -2.4403315    2.0553965   -6.3092554  
H    3.2136235   -2.6901819   -6.3583201  
C    3.2798085    0.0005853   -1.4499648  
C    2.5571144    0.0005562   -2.5996554  
C    1.1637436    0.0001546   -2.2210360  
C    1.1336965   -0.0000201   -0.7459470  
N    2.4483513   -0.0001430   -0.3402717  
C    0.0000000    0.0000000    0.0000000  
C   -1.2757367   -0.0000188   -0.6964414  
O   -2.3524597   -0.0000640   -0.1142313  
C   -1.2676494   -0.0000875   -2.2584081  
O   -2.3355762   -0.0004102   -2.8557294  
C    0.0181562    0.0001757   -2.9516296  
H    2.9547357    0.0006072   -3.5989105  
H    4.3498550    0.0008609   -1.3200021  
H    2.7563627    0.0012824    0.6148063  
C    2.5128556    2.1077716    2.9199648  
C    1.9592212    1.6432552    4.0696553  
C    0.8915788    0.7479214    3.6910360  
C    0.8684491    0.7287414    2.2159470  
N    1.8754542    1.5738793    1.8102719  
C    0.0000000    0.0000000    1.4700000  
C   -0.9772830   -0.8200135    2.1664417  
O   -1.8021297   -1.5120829    1.5842315  
C   -0.9711318   -0.8147624    3.7284083  
O   -1.7894187   -1.5009653    4.3257297  
C    0.0140216    0.0115358    4.4216297  
H    2.2638494    1.8988021    5.0689105  
H    0.0117648    0.0094386    5.5031631  
H    3.3327358    2.7953732    2.7900019  
H    2.1123206    1.7707734    0.8551938  
