62

C    9.0809566   -0.0033888    0.9221619  
C    9.6533714   -0.0058487    2.1730823  
C   11.0671797   -0.0059381    1.9840120  
C   11.2999785   -0.0031678    0.5848251  
N   10.0727993   -0.0036252   -0.0305178  
C   12.5840960   -0.0021688    0.0318059  
C   13.6526699   -0.0036928    0.9072055  
O   14.9280042   -0.0024608    0.4208562  
C   13.4407242   -0.0068355    2.3064502  
O   14.6059282   -0.0084495    3.0451259  
C   12.1741880   -0.0080958    2.8527189  
H    9.1178039   -0.0084945    3.1069735  
H    9.9211849    0.0085048   -1.0229123  
H   12.7682285   -0.0002038   -1.0336953  
H   15.5133163   -0.0041702    1.1894084  
H   14.3741036   -0.0105227    3.9788589  
H   12.0430393   -0.0106929    3.9284840  
C    6.5771489   -0.0035573    1.3345537  
C    7.6645478   -0.0027623    0.5288604  
C    7.1290977   -0.0009891   -0.8238367  
C    5.6614000   -0.0010506   -0.6437063  
N    5.3318744   -0.0024721    0.6193853  
C    4.7577216    0.0005129   -1.7610467  
C    5.2958116    0.0024559   -3.0019292  
O    4.5716628    0.0040579   -4.1340275  
C    6.7730250    0.0029427   -3.2164071  
O    7.1927149    0.0046215   -4.3735926  
C    7.6790894    0.0012687   -2.0540948  
H    5.2317436    0.0052550   -4.8505779  
H    8.7426331    0.0018005   -2.2518447  
H    6.5493794   -0.0048794    2.4126074  
C    3.3041270    0.0001177   -1.5420435  
C    2.5845370   -0.0004780   -0.3695856  
C    1.2040004   -0.0000007   -0.7283590  
C    1.1422370    0.0006038   -2.1454373  
N    2.4348634    0.0026110   -2.6077469  
C   -0.0655187    0.0008799   -2.8497918  
C   -1.2321769    0.0002326   -2.1101398  
O   -2.4392822    0.0001149   -2.7472517  
C   -1.1911211   -0.0000007   -0.6955263  
O   -2.4371526   -0.0002319   -0.1032858  
C    0.0000000    0.0000000    0.0000000  
H    3.0031534   -0.0000661    0.6222578  
H    2.7054623   -0.0071098   -3.5745266  
H   -0.1193555    0.0014846   -3.9297472  
H   -3.1132992   -0.0000646   -2.0551783  
H   -2.3200279   -0.0004070    0.8516411  
C    0.8175213    0.6860729    2.3021913  
C    0.0000000    0.0000000    1.4700000  
C   -0.8887526   -0.7456559    2.3478473  
C   -0.4549825   -0.3816753    3.7138435  
N    0.5448156    0.4573574    3.6934124  
C   -1.0945674   -0.9182058    4.8835240  
C   -2.1210866   -1.7789155    4.6970523  
O   -2.8083856   -2.3554314    5.6976972  
C   -2.5824069   -2.1655116    3.3310774  
O   -3.5227682   -2.9541547    3.2362962  
C   -1.9100805   -1.6015804    2.1470656  
H   -0.7567140   -0.6349833    5.8697035  
H   -3.4728268   -2.9124471    5.2533954  
H   -2.2742832   -1.9066565    1.1752040  
H    1.6189533    1.3585343    2.0405121  
