64

C   10.8874451    2.1261917   -2.8450369  
C   11.9054132    1.6276534   -2.0655071  
C   11.3081470    0.7527014   -1.1103469  
C    9.9115292    0.7571148   -1.3580703  
N    9.6900299    1.6027940   -2.4165514  
C    9.0072401    0.0035745   -0.6035994  
C    9.5222416   -0.7687207    0.4193913  
O    8.6838579   -1.5242139    1.1870861  
C   10.9127124   -0.7860687    0.6822777  
O   11.2693710   -1.6044695    1.7341130  
C   11.8053707   -0.0427248   -0.0614475  
H   12.9498518    1.8662168   -2.1714809  
H    8.7941510    1.7988308   -2.8251505  
H    9.2402263   -1.9783920    1.8331817  
H   12.2239626   -1.5587893    1.8448975  
H   12.8649729   -0.0760722    0.1635136  
H   10.9206203    2.8148206   -3.6718666  
C    6.6001506    0.0019434   -4.3713014  
C    7.6333543    0.0021445   -3.4630303  
C    7.0453162    0.0020497   -2.1634877  
C    5.6383364    0.0015001   -2.3433062  
N    5.4022893    0.0033999   -3.6956728  
C    4.7390840    0.0009613   -1.2727298  
C    5.2698382    0.0006706    0.0026046  
O    4.4369625   -0.0002077    1.0839605  
C    6.6708713    0.0015853    0.2024108  
O    7.0428744    0.0015759    1.5309279  
C    7.5585984    0.0023904   -0.8532721  
H    8.6818863    0.0034411   -3.7071040  
H    4.4955245   -0.0070443   -4.1265437  
H    5.0045013    0.0000322    1.8657303  
H    8.0038195    0.0021938    1.5776951  
H    6.6229005    0.0023217   -5.4476109  
C    3.2798077    0.0005856   -1.4499661  
C    2.5571132    0.0005565   -2.5996564  
C    1.1637425    0.0001547   -2.2210366  
C    1.1336959   -0.0000200   -0.7459475  
N    2.4483509   -0.0001429   -0.3402730  
C    0.0000000    0.0000000    0.0000000  
C   -1.2757370   -0.0000187   -0.6964411  
O   -2.3524597   -0.0000640   -0.1142306  
C   -1.2676502   -0.0000874   -2.2584078  
O   -2.3355774   -0.0004102   -2.8557287  
C    0.0181551    0.0001758   -2.9516297  
H    2.9547342    0.0006074   -3.5989118  
H    0.0150776    0.0003317   -4.0331632  
H    2.7563626    0.0012823    0.6148051  
C    0.0000000    0.0000000    1.4700000  
C    1.0521667    0.0011902    2.3562342  
C    0.4917218    0.0011957    3.6679131  
C   -0.9187428   -0.0003148    3.5178682  
N   -1.1833171    0.0009411    2.1707914  
C   -1.7951701   -0.0010350    4.6072090  
C   -1.2375837   -0.0005224    5.8710424  
O   -2.0474215   -0.0015360    6.9697579  
C    0.1673580    0.0013566    6.0411963  
O    0.5673524    0.0020687    7.3615553  
C    1.0325770    0.0023412    4.9669890  
H    2.0953057    0.0030649    2.0900562  
H   -2.0989778   -0.0102372    1.7591824  
H   -2.8710934   -0.0020419    4.4995513  
H   -1.4634884   -0.0006497    7.7393593  
H    1.5290710    0.0033153    7.3880045  
H    2.1042148    0.0039609    5.1284455  
