62

C    3.4023840   -3.6113972   -3.6034983  
C    4.5137905   -4.4168706   -3.6954558  
C    4.9823193   -4.3280137   -5.0397714  
C    4.1097440   -3.4459855   -5.7272053  
N    3.1607235   -3.0305526   -4.8264327  
C    4.2707716   -3.1232904   -7.0780306  
C    5.3321692   -3.7012941   -7.7470046  
O    5.5359653   -3.4203948   -9.0670697  
C    6.2134186   -4.5840993   -7.0785205  
O    7.2206993   -5.0777956   -7.8816366  
C    6.0550076   -4.9031086   -5.7459799  
H    4.9343694   -4.9979566   -2.8926817  
H    3.6091180   -2.4518738   -7.6077620  
H    6.3178446   -3.9204880   -9.3350966  
H    7.7704167   -5.6649235   -7.3537209  
H    6.7459204   -5.5826553   -5.2608672  
H    2.7620939   -3.4063824   -2.7626916  
C    2.0663726   -2.0930015   -5.1167679  
C    1.0931320   -1.6308350   -4.2901598  
C    0.2706806   -0.7345477   -5.0680275  
C    0.8486728   -0.7122919   -6.4253121  
N    1.9347259   -1.5561040   -6.3884400  
C    0.3570939    0.0175295   -7.4584690  
C   -0.8196668    0.8358896   -7.2175208  
O   -1.3377664    1.5288425   -8.0833667  
C   -1.4481804    0.8277638   -5.7875872  
O   -2.4388906    1.5130257   -5.5727150  
C   -0.8287665    0.0000939   -4.7555305  
H    0.9660025   -1.8882581   -3.2537310  
H    0.7960886    0.0195937   -8.4464917  
H    2.5375329   -1.7532734   -7.1661261  
C    1.0672569   -0.0000698   -0.8321910  
C    0.0000000    0.0000000    0.0000000  
C   -1.1601223   -0.0000736   -0.8778472  
C   -0.5938729   -0.0000768   -2.2438435  
N    0.7113367   -0.0001553   -2.2234123  
C   -1.4286985   -0.0001877   -3.4135239  
C   -2.7683113   -0.0006798   -3.2270524  
O   -3.6653902   -0.0008302   -4.2276970  
C   -3.3702024   -0.0010610   -1.8610774  
O   -4.5974910   -0.0013779   -1.7662963  
C   -2.4926825   -0.0008943   -0.6770658  
H   -4.5324245   -0.0012258   -3.7833954  
H   -2.9677772   -0.0012974    0.2947961  
H    2.1134391   -0.0000547   -0.5705119  
C    2.5311839    2.1237619    3.0120429  
C    1.9795631    1.6616747    1.8395852  
C    0.9223175    0.7739173    2.1983588  
C    0.8753926    0.7337535    3.6154372  
N    1.8668922    1.5631002    4.0777464  
C   -0.0496243   -0.0427881    4.3197917  
C   -0.9437528   -0.7922060    3.5801400  
O   -1.8685244   -1.5680278    4.2172520  
C   -0.9124520   -0.7656372    2.1655264  
O   -1.8671164   -1.5663939    1.5732860  
C    0.0000000    0.0000000    1.4700000  
H    2.3005065    1.9304404    0.8477417  
H    2.0679347    1.7444845    5.0445261  
H   -0.0904770   -0.0778569    5.3997470  
H   -2.3849669   -2.0011402    3.5251786  
H   -1.7775064   -1.4909735    0.6183591  
H    3.3468514    2.8078103    3.1724291  
