60

C    0.5627357   -3.2779531  -10.3845314  
C    0.3942232   -2.4880787  -11.4981604  
C    0.1689716   -1.1579268  -11.0349575  
C    0.2118415   -1.1978659   -9.6177439  
N    0.4508281   -2.5003483   -9.2557464  
C    0.0298374   -0.0618533   -8.8233015  
C   -0.1993215    1.1363577   -9.4713400  
O   -0.3833944    2.2765683   -8.7439807  
C   -0.2460400    1.1963913  -10.8845039  
O   -0.4836889    2.4620203  -11.3795285  
C   -0.0668447    0.0760393  -11.6688669  
H    0.4282438   -2.8288978  -12.5187867  
H    0.5440741   -2.8329257   -8.3130487  
H   -0.5260924    2.9875536   -9.3822613  
H   -0.4997628    2.4147490  -12.3403143  
H   -0.1082450    0.1528862  -12.7490792  
H    0.7524764   -4.3347411  -10.3060741  
C    2.5185220   -2.1418782   -5.7664424  
C    2.0285782   -1.7344766   -6.9604095  
C    0.9435063   -0.8236411   -6.6295061  
C    0.9168306   -0.7971604   -5.1512739  
N    1.8378571   -1.5679055   -4.6397540  
C   -0.0307352   -0.0004646   -4.4215603  
C   -0.9113598    0.7365842   -5.1361191  
O   -1.8501208    1.5254492   -4.5861545  
C   -0.9094201    0.7313057   -6.6288110  
O   -1.7398704    1.4264151   -7.2139569  
C    0.0724715   -0.0942327   -7.3542764  
H    2.3623455   -2.0170710   -7.9441861  
H   -2.3197100    1.9176027   -5.3443463  
H    3.3327631   -2.8241128   -5.5805892  
C    3.2573670   -0.0002920   -1.5109380  
C    2.5379468   -0.0001709   -0.3591961  
C    1.1435043    0.0000332   -0.7338500  
C    1.1092609   -0.0000082   -2.2088477  
N    2.4227562    0.0001909   -2.6182613  
C   -0.0265532   -0.0002522   -2.9515663  
C   -1.3003035   -0.0002639   -2.2514981  
O   -2.3786784   -0.0004131   -2.8306429  
C   -1.2877725    0.0000312   -0.6895608  
O   -2.3539958    0.0003307   -0.0892036  
C    0.0000000    0.0000000    0.0000000  
H    2.9384091   -0.0000369    0.6389239  
H    4.3270394   -0.0004765   -1.6439446  
H    2.7280494   -0.0013406   -3.5742113  
C    2.5128556    2.1077716    2.9199648  
C    1.9592212    1.6432552    4.0696553  
C    0.8915788    0.7479214    3.6910360  
C    0.8684491    0.7287414    2.2159470  
N    1.8754542    1.5738793    1.8102719  
C    0.0000000    0.0000000    1.4700000  
C   -0.9772830   -0.8200135    2.1664417  
O   -1.8021297   -1.5120829    1.5842315  
C   -0.9711318   -0.8147624    3.7284083  
O   -1.7894187   -1.5009653    4.3257297  
C    0.0140216    0.0115358    4.4216297  
H    2.2638494    1.8988021    5.0689105  
H    0.0117648    0.0094386    5.5031631  
H    3.3327358    2.7953732    2.7900019  
H    2.1123206    1.7707734    0.8551938  
