66

C    4.4042992   -0.3059341   -7.6263029  
C    5.4271897   -0.1505999   -8.5329640  
C    5.4515450    1.2272363   -8.9011679  
C    4.4117366    1.8689894   -8.1808352  
N    3.7945315    0.9090096   -7.4178712  
C    4.1431257    3.2361239   -8.2973720  
C    4.9388829    3.9688161   -9.1565050  
O    4.7203257    5.3075972   -9.3078684  
C    5.9809910    3.3464539   -9.8841681  
O    6.6837399    4.2107973  -10.6980459  
C    6.2463767    1.9977362   -9.7698996  
H    6.0752848   -0.9342095   -8.8864079  
H    3.3520237    3.7312018   -7.7512428  
H    5.3765652    5.6212175   -9.9436806  
H    7.3683669    3.7110599  -11.1531872  
H    7.0512536    1.5489197  -10.3401774  
H    4.0605184   -1.1875166   -7.1128970  
C    2.8346678   -0.6808642   -3.3508547  
C    3.4395408   -0.4171309   -4.5579338  
C    2.6017454    0.5065025   -5.2504656  
C    1.4909975    0.7723999   -4.4093564  
N    1.6628945    0.0339172   -3.2649299  
C    0.4590751    1.6432593   -4.7720251  
C    0.5502565    2.2571090   -6.0061449  
O   -0.4297068    3.1170602   -6.4100863  
C    1.6504902    2.0043202   -6.8596089  
O    1.5962129    2.6913398   -8.0547661  
C    2.6687331    1.1451067   -6.5025923  
H    4.3695927   -0.8394532   -4.8979944  
H   -0.3902557    1.8500368   -4.1355645  
H   -0.1743650    3.4290316   -7.2880038  
H    2.3753774    2.4645997   -8.5715789  
H    3.1456627   -1.3233883   -2.5449985  
C    1.1243410    0.0100105   -0.7919003  
C    0.7474072    0.0234665   -2.1148542  
C   -0.6787384    0.0234379   -2.1414698  
C   -1.1201748    0.0098411   -0.7935547  
N    0.0000000    0.0000000    0.0000000  
C   -2.4730818    0.0063307   -0.4408240  
C   -3.3971962    0.0170429   -1.4675058  
O   -4.7313520    0.0145490   -1.1793468  
C   -2.9763654    0.0303020   -2.8186325  
O   -4.0166484    0.0394464   -3.7247625  
C   -1.6418567    0.0334992   -3.1673480  
H   -2.8160166   -0.0041569    0.5845966  
H   -5.1938823    0.0230023   -2.0274386  
H   -3.6464680    0.0481700   -4.6127343  
H   -1.3497475    0.0435647   -4.2109234  
H    2.1062466    0.0053162   -0.3505405  
C    0.0000000    0.0000000    1.4700000  
C    1.0521667    0.0011902    2.3562342  
C    0.4917218    0.0011957    3.6679131  
C   -0.9187428   -0.0003148    3.5178682  
N   -1.1833171    0.0009411    2.1707914  
C   -1.7951701   -0.0010350    4.6072090  
C   -1.2375837   -0.0005224    5.8710424  
O   -2.0474215   -0.0015360    6.9697579  
C    0.1673580    0.0013566    6.0411963  
O    0.5673524    0.0020687    7.3615553  
C    1.0325770    0.0023412    4.9669890  
H    2.0953057    0.0030649    2.0900562  
H   -2.0989778   -0.0102372    1.7591824  
H   -2.8710934   -0.0020419    4.4995513  
H   -1.4634884   -0.0006497    7.7393593  
H    1.5290710    0.0033153    7.3880045  
H    2.1042148    0.0039609    5.1284455  
