60

C    8.3402116   -3.2242712   -4.4164239  
C    9.4200227   -2.4565561   -4.7866802  
C    8.9499627   -1.1172168   -4.9274423  
C    7.5636645   -1.1289731   -4.6275012  
N    7.2254891   -2.4242320   -4.3232658  
C    6.7719812    0.0228168   -4.6650012  
C    7.3910990    1.2081196   -5.0113081  
O    6.6650753    2.3627732   -5.0630510  
C    8.7731132    1.2400510   -5.3143499  
O    9.2415875    2.4958132   -5.6413605  
C    9.5546867    0.1041221   -5.2778203  
H   10.4228807   -2.8176638   -4.9379059  
H    6.3090775   -2.7380678   -4.0592992  
H    7.2806909    3.0610533   -5.3212868  
H   10.1823077    2.4294375   -5.8317352  
H   10.6106659    0.1594875   -5.5151386  
H    8.2766949   -4.2794801   -4.2128118  
C    4.4498803   -2.0927816   -1.5965443  
C    3.2085346   -1.6305559   -1.8956810  
C    3.3524545   -0.7335191   -3.0179321  
C    4.7897030   -0.7108882   -3.3504909  
N    5.3998262   -1.5552207   -2.4517466  
C    5.3348522    0.0196505   -4.3558915  
C    4.4468030    0.8384415   -5.1642761  
O    4.8411384    1.5320446   -6.0925625  
C    2.9210858    0.8299298   -4.8297316  
O    2.1637303    1.5155489   -5.5032295  
C    2.4521483    0.0014840   -3.7217481  
H    2.2961914   -1.8884110   -1.3879859  
H    4.7506785   -2.7807341   -0.8231548  
H    6.3833793   -1.7523012   -2.4229400  
C    0.0000000    0.0000000    0.0000000  
C    1.0662923   -0.0000101   -0.8334270  
C    0.4961873    0.0000065   -2.1718887  
C   -0.9663854   -0.0000848   -1.9540250  
N   -1.2632773   -0.0000083   -0.6828660  
C   -1.8985359   -0.0000514   -3.0477261  
C   -1.3925770    0.0004566   -4.3020547  
O   -2.1456378    0.0005414   -5.4151314  
C    0.0786240    0.0009326   -4.5545000  
O    0.4683767    0.0012591   -5.7221100  
C    1.0143171    0.0008444   -3.4159031  
H    2.1107200    0.0000633   -0.5721865  
H   -2.9622181   -0.0003268   -2.8593381  
H   -1.5042265    0.0009697   -6.1484419  
C    1.0965515   -0.0001358    2.2710304  
C    0.0000000    0.0000000    1.4700000  
C   -1.1546562   -0.0001469    2.3369512  
C   -0.6372014   -0.0003519    3.7186280  
N    0.7342871   -0.0007337    3.6095011  
C   -1.4147739   -0.0001353    4.8308716  
C   -2.8576048    0.0001048    4.6554461  
O   -3.6427778    0.0002493    5.5944904  
C   -3.4275839    0.0000726    3.2011665  
O   -4.6406829   -0.0000333    3.0410059  
C   -2.4891866    0.0001091    2.0816745  
H   -1.0150448   -0.0001615    5.8354244  
H   -2.8919121    0.0002919    1.0779135  
H    2.1388271   -0.0000662    1.9961646  
H    1.3735872    0.0006099    4.3830260  
