64

C    1.1188642    0.0008260   -0.8003807  
C    0.0000000    0.0000000    0.0000000  
C   -1.1323859    0.0008858   -0.8673528  
C   -0.6382662    0.0019654   -2.1969279  
N    0.7324018    0.0038503   -2.1202241  
C   -1.4770916    0.0027262   -3.3154807  
C   -2.8395477    0.0020839   -3.0876858  
O   -3.7039197    0.0024290   -4.1440346  
C   -3.3517868    0.0013808   -1.7684330  
O   -4.7300496    0.0012196   -1.7073117  
C   -2.5248539    0.0009033   -0.6644820  
H   -1.1067568    0.0036942   -4.3313810  
H   -4.5940032    0.0021660   -3.7685128  
H   -4.9934601    0.0007085   -0.7819912  
H   -2.9462574    0.0005498    0.3339654  
H    2.1619895    0.0009428   -0.5342069  
C    2.8254844   -0.7379357   -3.3478732  
C    3.4453611   -0.5353376   -4.5389995  
C    2.6233064    0.3835518   -5.2904673  
C    1.4654083    0.7019891   -4.4333442  
N    1.6478435   -0.0100047   -3.2703000  
C    0.4564042    1.5390767   -4.7839138  
C    0.5146164    2.1682244   -6.0928523  
O   -0.3455921    2.9374835   -6.5009978  
C    1.7315981    1.8451780   -7.0171907  
O    1.7913080    2.3686871   -8.1215610  
C    2.7573620    0.9271184   -6.5284908  
H   -0.3838700    1.7592632   -4.1402006  
H    3.5968388    0.7088361   -7.1745215  
H    3.1297830   -1.3579433   -2.5202967  
C    5.0920873   -2.4413351   -4.7284795  
C    6.3415305   -2.6564793   -5.2624001  
C    6.7546625   -1.4301926   -5.8625192  
C    5.7075481   -0.4947971   -5.6612448  
N    4.7127109   -1.1419087   -4.9711995  
C    5.7721068    0.8235142   -6.1224126  
C    6.9146618    1.2045760   -6.7988282  
O    7.0301934    2.4802574   -7.2703186  
C    7.9700394    0.2856380   -7.0098945  
O    9.0397769    0.8167925   -7.7004601  
C    7.9069194   -1.0151416   -6.5554569  
H    6.8875066   -3.5835738   -5.2250099  
H    4.9774038    1.5412447   -5.9723721  
H    7.8915243    2.5339289   -7.7044778  
H    9.7077727    0.1316513   -7.8002927  
H    8.7310004   -1.6963854   -6.7323062  
H    4.4409178   -3.1123876   -4.1949760  
C    0.8576279    0.7185626    2.2703808  
C    0.0000000    0.0000000    1.4700000  
C   -0.8668858   -0.7285659    2.3373528  
C   -0.4876752   -0.4117774    3.6669281  
N    0.5635254    0.4678311    3.5902241  
C   -1.1297612   -0.9515493    4.7854808  
C   -2.1738724   -1.8268314    4.5576857  
O   -2.8357962   -2.3827064    5.6140350  
C   -2.5667212   -2.1555554    3.2384331  
O   -3.6226318   -3.0413663    3.1773122  
C   -1.9335634   -1.6236449    2.1344818  
H    1.0363952    0.8769718    4.3757045  
H   -0.8454472   -0.7142436    5.8013813  
H   -3.5178062   -2.9546422    5.2385129  
H   -3.8247440   -3.2102924    2.2519915  
H   -2.2566033   -1.8942483    1.1360343  
H    1.6567807    1.3889844    2.0042067  
