60

C    9.0444195   -0.0023488    0.4102499  
C    9.6908754   -0.0026720    1.6245651  
C   11.0907872   -0.0037364    1.3509880  
C   11.2391954   -0.0037356   -0.0596508  
N    9.9772985   -0.0048332   -0.6002347  
C   12.4878092   -0.0043492   -0.6887392  
C   13.6069943   -0.0046683    0.1209542  
O   14.8508411   -0.0049180   -0.4410576  
C   13.4794050   -0.0050504    1.5304000  
O   14.6868395   -0.0057621    2.1978174  
C   12.2479355   -0.0047185    2.1516954  
H    9.2123187   -0.0033040    2.5889181  
H    9.7664029    0.0054702   -1.5817630  
H   12.6076656   -0.0044963   -1.7633724  
H   15.4812220   -0.0054161    0.2909842  
H   14.5114698   -0.0059539    3.1437824  
H   12.1815842   -0.0052071    3.2333953  
C    6.5698736   -0.0006427    0.9721617  
C    7.6069601   -0.0018568    0.1026612  
C    6.9912936   -0.0024306   -1.2154640  
C    5.5370515   -0.0015107   -0.9475760  
N    5.2839240   -0.0003803    0.3330154  
C    4.5679461   -0.0016854   -2.0086701  
C    5.0305955   -0.0023425   -3.2796103  
O    4.2398100   -0.0025848   -4.3662100  
C    6.4922750   -0.0029068   -3.5823558  
O    6.8417603   -0.0036172   -4.7626437  
C    7.4664606   -0.0027580   -2.4765138  
H    4.8556979   -0.0030411   -5.1210837  
H    8.5162194   -0.0030655   -2.7377355  
H    6.6068533    0.0001031    2.0499391  
C    3.1301149   -0.0010311   -1.7028252  
C    2.5367768   -0.0002767   -0.4864665  
C    1.1089904    0.0001028   -0.7656183  
C    1.0177872   -0.0004148   -2.2415132  
N    2.1993578   -0.0011611   -2.7963820  
C   -0.2459209   -0.0002877   -2.9257118  
C   -1.3675319   -0.0000605   -2.1698524  
O   -2.6129313    0.0000867   -2.6748490  
C   -1.3083584    0.0000910   -0.6783232  
O   -2.3693261    0.0004206   -0.0541692  
C    0.0000000    0.0000000    0.0000000  
H    3.0096017   -0.0001007    0.4807525  
H   -0.2829630   -0.0004687   -4.0053125  
H   -3.1967441    0.0002094   -1.8949034  
C    2.5528530    2.1414826    2.8079335  
C    2.0663498    1.7338582    4.0032312  
C    0.9804344    0.8229586    3.6752840  
C    0.9495562    0.7966882    2.1971295  
N    1.8690446    1.5676019    1.6831036  
C    0.0000000    0.0000000    1.4700000  
C   -0.8785127   -0.7372425    2.1869543  
O   -1.8187535   -1.5261249    1.6395491  
C   -0.8723269   -0.7321790    3.6796354  
O   -1.7010379   -1.4274584    4.2670412  
C    0.1115397    0.0933559    4.4024240  
H    2.4028853    2.0163452    4.9860947  
H   -2.2861435   -1.9184361    2.3990168  
H    0.0832434    0.0693689    5.4835595  
H    3.3664920    2.8238276    2.6198634  
