66

C    5.3267036   -1.0701852   -6.6315997  
C    6.3278996   -1.9558130   -6.3064278  
C    7.0614790   -2.2124107   -7.5025123  
C    6.4567282   -1.4488047   -8.5335837  
N    5.4053133   -0.7685636   -7.9710750  
C    6.9209838   -1.4570299   -9.8523675  
C    8.0158593   -2.2503317  -10.1353808  
O    8.5105142   -2.2952625  -11.4067226  
C    8.6327177   -3.0196792   -9.1202913  
O    9.7118693   -3.7578501   -9.5606070  
C    8.1750880   -3.0122596   -7.8191206  
H    6.5067494   -2.3672413   -5.3277893  
H    4.7956932   -0.1368211   -8.4581536  
H    6.4644128   -0.8774255  -10.6428128  
H    9.2633567   -2.9002803  -11.3855645  
H   10.0701909   -4.2477238   -8.8141270  
H    8.6679912   -3.6121548   -7.0630455  
C    4.1066124   -0.7198886   -4.4477717  
C    3.0267438   -0.0008951   -3.9901699  
C    2.5093617    0.7266865   -5.1026180  
C    3.3209996    0.4088812   -6.2216217  
N    4.2823367   -0.4703596   -5.7887433  
C    3.1008514    0.9475210   -7.4929164  
C    2.0418866    1.8226954   -7.6372801  
O    1.7817967    2.3774851   -8.8569416  
C    1.2209707    2.1524235   -6.5326559  
O    0.2080046    3.0379821   -6.8376635  
C    1.4377317    1.6216302   -5.2781441  
H    3.7159027    0.7094369   -8.3497888  
H    1.0124325    2.9495423   -8.7382249  
H   -0.2987947    3.2076338   -6.0376788  
H    0.7922746    1.8929862   -4.4509625  
H    4.7662577   -1.3898546   -3.9233937  
C    3.3003547    0.0005277   -1.4738986  
C    2.5232816    0.0003497   -2.6090746  
C    1.1623203   -0.0001319   -2.1820102  
C    1.1711884    0.0000584   -0.7636141  
N    2.4852301   -0.0014919   -0.3662359  
C    0.0000000    0.0000000    0.0000000  
C   -1.2020383    0.0000520   -0.6806479  
O   -2.3759248    0.0003493    0.0157745  
C   -1.2314655   -0.0005115   -2.0955511  
O   -2.5054388   -0.0008040   -2.6250184  
C   -0.0764513   -0.0007274   -2.8495195  
H    2.8036266    0.0088183    0.5858662  
H   -3.0835639    0.0000346   -0.6418822  
H   -2.4360043   -0.0011529   -3.5845924  
H   -0.1304091   -0.0013423   -3.9319089  
H    4.3715553    0.0004897   -1.3667133  
C    2.5311839    2.1237619    3.0120429  
C    1.9795631    1.6616747    1.8395852  
C    0.9223175    0.7739173    2.1983588  
C    0.8753926    0.7337535    3.6154372  
N    1.8668922    1.5631002    4.0777464  
C   -0.0496243   -0.0427881    4.3197917  
C   -0.9437528   -0.7922060    3.5801400  
O   -1.8685244   -1.5680278    4.2172520  
C   -0.9124520   -0.7656372    2.1655264  
O   -1.8671164   -1.5663939    1.5732860  
C    0.0000000    0.0000000    1.4700000  
H    2.3005065    1.9304404    0.8477417  
H    2.0679347    1.7444845    5.0445261  
H   -0.0904770   -0.0778569    5.3997470  
H   -2.3849669   -2.0011402    3.5251786  
H   -1.7775064   -1.4909735    0.6183591  
H    3.3468514    2.8078103    3.1724291  
