62

C   -6.5599413    0.0018041    0.0678360  
C   -5.5102994    0.0016774    0.9570598  
C   -6.0744728    0.0022244    2.2671392  
C   -7.4845054    0.0023860    2.1130822  
N   -7.7452453    0.0040739    0.7652585  
C   -8.3640286    0.0025989    3.1999257  
C   -7.8100400    0.0023424    4.4653400  
O   -8.6229999    0.0021826    5.5617472  
C   -6.4055862    0.0025539    4.6394897  
O   -6.0093487    0.0026772    5.9609814  
C   -5.5373146    0.0026173    3.5677487  
H   -4.4664061    0.0023492    0.6938502  
H   -8.6597437   -0.0059907    0.3510456  
H   -9.4396411    0.0028670    3.0892080  
H   -8.0412581    0.0023132    6.3330069  
H   -5.0477084    0.0027904    5.9901666  
H   -4.4661393    0.0029623    3.7322527  
C   -3.2941076    0.0012874   -2.9038237  
C   -4.0168015    0.0014137   -1.7541332  
C   -5.4101727    0.0018621   -2.1327521  
C   -5.4402197    0.0019581   -3.6078411  
N   -4.1255649    0.0019955   -4.0135163  
C   -6.5739167    0.0019522   -4.3537877  
C   -7.8496528    0.0020701   -3.6573459  
O   -8.9263767    0.0021357   -4.2395556  
C   -7.8415653    0.0022233   -2.0953791  
O   -8.9094925    0.0026300   -1.4980574  
C   -6.5557596    0.0019358   -1.4021581  
H   -3.6191800    0.0013980   -0.7548779  
H   -6.5739168    0.0018934   -5.4349496  
H   -3.8175540    0.0005036   -4.9685944  
C    0.0000000    0.0000000    0.0000000  
C    1.0541688   -0.0001722   -0.8560393  
C    0.5103135   -0.0000454   -2.1935957  
C   -0.9576374    0.0002459   -2.0455730  
N   -1.2018460   -0.0001391   -0.6915968  
C   -1.8348314    0.0008317   -3.0810607  
C   -1.2972851    0.0009737   -4.4314604  
O   -2.0050676    0.0014265   -5.4301315  
C    0.2542619    0.0004184   -4.6117571  
O    0.7184666    0.0002257   -5.7439121  
C    1.0974550    0.0000874   -3.4189130  
H    2.0940752   -0.0005483   -0.5817984  
H    2.1707276   -0.0000911   -3.5523671  
H   -2.1128194    0.0014912   -0.2706789  
C    3.3041272   -0.0001177    3.0120429  
C    2.5845372    0.0004780    1.8395852  
C    1.2040006    0.0000008    2.1983588  
C    1.1422373   -0.0006037    3.6154372  
N    2.4348639   -0.0026109    4.0777464  
C   -0.0655181   -0.0008797    4.3197917  
C   -1.2321768   -0.0002324    3.5801400  
O   -2.4392816   -0.0001146    4.2172520  
C   -1.1911209    0.0000007    2.1655264  
O   -2.4371527    0.0002320    1.5732860  
C    0.0000000    0.0000000    1.4700000  
H    3.0031534    0.0000661    0.8477417  
H    2.7054629    0.0071099    5.0445261  
H   -0.1193549   -0.0014844    5.3997470  
H   -3.1132988    0.0000648    3.5251786  
H   -2.3200282    0.0004071    0.6183591  
H    4.3686625   -0.0004071    3.1724291  
