62

C    0.0139748    0.0003878   -4.4216235  
C    1.0636167    0.0005122   -5.3108477  
C    0.4994429    0.0000636   -6.6209271  
C   -0.9105895   -0.0000385   -6.4668698  
N   -1.1713294   -0.0017871   -5.1190459  
C   -1.7901128   -0.0001499   -7.5537132  
C   -1.2361239    0.0001487   -8.8191271  
O   -2.0490844    0.0004072   -9.9155342  
C    0.1683294   -0.0001210   -8.9932775  
O    0.5645665   -0.0001916  -10.3147688  
C    1.0366014   -0.0002845   -7.9215365  
H    2.1075102   -0.0002242   -5.0476380  
H   -2.0858272    0.0082990   -4.7048324  
H   -2.8657257   -0.0003722   -7.4429955  
H   -1.4673427    0.0002905  -10.6867940  
H    1.5262067   -0.0003495  -10.3439542  
H    2.1077765   -0.0006721   -8.0860403  
C    3.2798089    0.0005856   -1.4499642  
C    2.5571149    0.0005566   -2.5996548  
C    1.1637440    0.0001548   -2.2210358  
C    1.1336966   -0.0000200   -0.7459468  
N    2.4483517   -0.0001428   -0.3402714  
C    0.0000000    0.0000000    0.0000000  
C   -1.2757362   -0.0000187   -0.6964415  
O   -2.3524596   -0.0000640   -0.1142317  
C   -1.2676489   -0.0000874   -2.2584083  
O   -2.3355758   -0.0004101   -2.8557300  
C    0.0181567    0.0001759   -2.9516296  
H    2.9547363    0.0006074   -3.5989101  
H    2.7563627    0.0012824    0.6148067  
C    5.6706444   -0.0000108   -2.2998280  
C    6.9366752   -0.0017182   -1.8086679  
C    6.8296116   -0.0022728   -0.3687469  
C    5.3870846   -0.0007668   -0.0590620  
N    4.7390854    0.0009614   -1.2727274  
C    4.8700559   -0.0011614    1.1956833  
C    5.7961363   -0.0029797    2.3159095  
O    5.4290421   -0.0034066    3.4836178  
C    7.3281303   -0.0043429    2.0112831  
O    8.1174233   -0.0055710    2.9463102  
C    7.7645009   -0.0040405    0.6172125  
H    7.8422134   -0.0023175   -2.3888531  
H    3.8085778   -0.0001652    1.4010438  
H    8.8269282   -0.0051960    0.4148021  
H    5.3397995    0.0008359   -3.3257084  
C    2.5285572    2.1210227    2.9438989  
C    1.9331703    1.6216660    4.0790748  
C    0.8903039    0.7472258    3.6520102  
C    0.8972198    0.7527806    2.2336141  
N    1.9028376    1.5986179    1.8362361  
C    0.0000000    0.0000000    1.4700000  
C   -0.9207814   -0.7726952    2.1506477  
O   -1.8198395   -1.5274828    1.4542253  
C   -0.9436862   -0.7911793    3.5655508  
O   -1.9197945   -1.6098497    4.0950179  
C   -0.0590329   -0.0485852    4.3195194  
H    2.2150357    1.8593692    5.0905303  
H    2.1533708    1.7953814    0.8841339  
H   -2.3621246   -1.9821033    2.1118817  
H   -1.8668290   -1.5649508    5.0545920  
H   -0.1007624   -0.0827977    5.4019087  
H    3.3491200    2.8096064    2.8367138  
