60

C    4.7916548   -0.6823169   -7.4087082  
C    4.2303297    0.5703295   -7.3178294  
C    5.0222937    1.4409342   -8.1237083  
C    6.0614677    0.6565499   -8.6865433  
N    5.8930502   -0.6272823   -8.2304426  
C    7.0338926    1.1886596   -9.5386228  
C    6.9556764    2.5371040   -9.8280324  
O    7.8794615    3.1081459  -10.6548004  
C    5.9265039    3.3363347   -9.2759003  
O    5.9848485    4.6603954   -9.6590480  
C    4.9670057    2.8121224   -8.4350126  
H    6.4749938   -1.4094343   -8.4703633  
H    7.8285525    0.5962097   -9.9707367  
H    7.6447735    4.0428335  -10.7222158  
H    5.2554689    5.1298733   -9.2428759  
H    4.1908447    3.4490853   -8.0271771  
H    4.4943542   -1.6103773   -6.9512430  
C    2.8912669   -0.6998115   -3.3332351  
C    1.7334695    0.0049281   -3.2500363  
C    1.6041102    0.7488995   -4.4807305  
C    2.7899385    0.4174236   -5.2935812  
N    3.5303612   -0.4649349   -4.5411803  
C    3.0393026    0.9187046   -6.5298013  
C    2.0755510    1.8468028   -7.0975619  
O    2.2101249    2.3528611   -8.2039503  
C    0.8125767    2.2121885   -6.2542380  
O   -0.0056406    2.9927353   -6.7217081  
C    0.6534234    1.6072169   -4.9341882  
H   -0.2239001    1.8652504   -4.3567402  
H    3.3315067   -1.3708305   -2.6136436  
H    4.3999325   -0.8765954   -4.8265370  
C    1.1319246    0.0015678   -0.8009268  
C    0.7969914    0.0034958   -2.1169401  
C   -0.6453340    0.0035696   -2.1842669  
C   -1.1266832    0.0015410   -0.7896025  
N    0.0000000    0.0000000    0.0000000  
C   -2.4346129    0.0013913   -0.4276292  
C   -3.4350111    0.0031335   -1.4820181  
O   -4.6384614    0.0030875   -1.2583914  
C   -2.9478961    0.0050442   -2.9661074  
O   -3.7809382    0.0062135   -3.8623773  
C   -1.5113825    0.0053055   -3.2312122  
H   -2.7664565    0.0000174    0.6013448  
H   -1.1823533    0.0068381   -4.2614848  
H    2.1104316    0.0009435   -0.3488059  
C    2.5528530    2.1414826    2.8079335  
C    2.0663498    1.7338582    4.0032312  
C    0.9804344    0.8229586    3.6752840  
C    0.9495562    0.7966882    2.1971295  
N    1.8690446    1.5676019    1.6831036  
C    0.0000000    0.0000000    1.4700000  
C   -0.8785127   -0.7372425    2.1869543  
O   -1.8187535   -1.5261249    1.6395491  
C   -0.8723269   -0.7321790    3.6796354  
O   -1.7010379   -1.4274584    4.2670412  
C    0.1115397    0.0933559    4.4024240  
H    2.4028853    2.0163452    4.9860947  
H   -2.2861435   -1.9184361    2.3990168  
H    0.0832434    0.0693689    5.4835595  
H    3.3664920    2.8238276    2.6198634  
