62

C    9.6743546   -0.7141238    1.6633810  
C   11.0270250   -0.4658154    1.6303151  
C   11.2573361    0.4431131    0.5554171  
C    9.9972967    0.7163524   -0.0358241  
N    9.0581380   -0.0038221    0.6598386  
C    9.8446854    1.5765797   -1.1273863  
C   10.9848082    2.1720533   -1.6310811  
O   10.8928598    3.0209992   -2.6959048  
C   12.2509933    1.9116817   -1.0550607  
O   13.2894425    2.5802013   -1.6699176  
C   12.4023289    1.0629471    0.0216349  
H   11.7579895   -0.8887290    2.2980188  
H    8.8871507    1.7888688   -1.5826471  
H   11.7916415    3.3208395   -2.8844568  
H   14.1081889    2.3494270   -1.2204729  
H   13.3850321    0.8826963    0.4414958  
H    9.1005485   -1.3428175    2.3225090  
C    6.6174608   -0.0017047    1.3537077  
C    5.3857492   -0.0012517    0.7819025  
C    5.5854749   -0.0008504   -0.6481131  
C    7.0449748   -0.0011379   -0.8640996  
N    7.6133361   -0.0012550    0.3888389  
C    7.6418659   -0.0012962   -2.0828801  
C    6.7899755   -0.0009491   -3.2605124  
O    7.2316300   -0.0009954   -4.4021087  
C    5.2415215   -0.0003890   -3.0553446  
O    4.5141875    0.0002132   -4.0393395  
C    4.7161325   -0.0005435   -1.6923264  
H    4.4446710   -0.0010219    1.3024657  
H    8.7143807   -0.0016369   -2.2193398  
H    6.8814411   -0.0021126    2.3987935  
C    3.2573665   -0.0002920   -1.5109385  
C    2.5379463   -0.0001709   -0.3591964  
C    1.1435038    0.0000331   -0.7338500  
C    1.1092599   -0.0000083   -2.2088477  
N    2.4227553    0.0001909   -2.6182613  
C   -0.0265539   -0.0002524   -2.9515660  
C   -1.3003040   -0.0002640   -2.2514977  
O   -2.3786790   -0.0004133   -2.8306421  
C   -1.2877727    0.0000311   -0.6895603  
O   -2.3539959    0.0003306   -0.0892030  
C    0.0000000    0.0000000    0.0000000  
H    2.9384091   -0.0000367    0.6389234  
H   -0.0296303   -0.0004086   -4.0327229  
H    2.7280482   -0.0013407   -3.5742119  
C    0.0000000    0.0000000    1.4700000  
C    1.0521667    0.0011902    2.3562342  
C    0.4917218    0.0011957    3.6679131  
C   -0.9187428   -0.0003148    3.5178682  
N   -1.1833171    0.0009411    2.1707914  
C   -1.7951701   -0.0010350    4.6072090  
C   -1.2375837   -0.0005224    5.8710424  
O   -2.0474215   -0.0015360    6.9697579  
C    0.1673580    0.0013566    6.0411963  
O    0.5673524    0.0020687    7.3615553  
C    1.0325770    0.0023412    4.9669890  
H    2.0953057    0.0030649    2.0900562  
H   -2.0989778   -0.0102372    1.7591824  
H   -2.8710934   -0.0020419    4.4995513  
H   -1.4634884   -0.0006497    7.7393593  
H    1.5290710    0.0033153    7.3880045  
H    2.1042148    0.0039609    5.1284455  
