64

C    0.2443743   -0.3711451   -9.6993824  
C    0.9263554   -0.2227269  -10.8848546  
C    0.8276078    1.1518708  -11.2527262  
C    0.0675555    1.7988685  -10.2449357  
N   -0.2722898    0.8449768   -9.3179982  
C   -0.2291825    3.1646743  -10.2811421  
C    0.2503366    3.8906222  -11.3541007  
O   -0.0098724    5.2278207  -11.4389828  
C    1.0101736    3.2629527  -12.3697257  
O    1.4153525    4.1208510  -13.3713160  
C    1.3030660    1.9155403  -12.3347950  
H    1.4317910   -1.0087583  -11.4193471  
H   -0.8080732    3.6637257   -9.5162663  
H    0.4096973    5.5365240  -12.2525728  
H    1.9221368    3.6178303  -14.0160987  
H    1.8871913    1.4625515  -13.1273079  
H    0.0844063   -1.2485527   -9.0964519  
C    0.1130344   -0.7103197   -5.1440032  
C    0.3029068   -0.4565304   -6.4826615  
C   -0.7146636    0.4602188   -6.8810608  
C   -1.5023063    0.7323593   -5.7332431  
N   -0.9736297    0.0040464   -4.6965763  
C   -2.5991773    1.5990231   -5.7568324  
C   -2.9063420    2.2021812   -6.9610034  
O   -3.9669852    3.0576283   -7.0401255  
C   -2.1326370    1.9430309   -8.1173074  
O   -2.5656650    2.6195549   -9.2389782  
C   -1.0505750    1.0879501   -8.0948320  
H    1.0786564   -0.8808980   -7.0967606  
H   -3.2035814    1.8105160   -4.8855297  
H   -4.0043898    3.3621836   -7.9561559  
H   -1.9897869    2.3890746   -9.9744010  
H    0.6659033   -1.3454936   -4.4732951  
C    1.1188642    0.0008222   -0.8003808  
C    0.0000000    0.0000000    0.0000000  
C   -1.1323862    0.0008899   -0.8673528  
C   -0.6382663    0.0019679   -2.1969280  
N    0.7324016    0.0038481   -2.1202242  
C   -1.4770914    0.0027318   -3.3154808  
C   -2.8395473    0.0020945   -3.0876857  
O   -3.7039201    0.0024425   -4.1440349  
C   -3.3517868    0.0013931   -1.7684331  
O   -4.7300497    0.0012366   -1.7073121  
C   -2.5248543    0.0009123   -0.6644817  
H    1.3576314   -0.0056167   -2.9057046  
H   -4.5940032    0.0021826   -3.7685128  
H   -4.9934602    0.0007259   -0.7819913  
H   -2.9462577    0.0005603    0.3339659  
H    2.1619895    0.0009355   -0.5342068  
C    0.0000000    0.0000000    1.4700000  
C    1.0541688    0.0001722    2.3260392  
C    0.5103138    0.0000454    3.6635956  
C   -0.9576371   -0.0002459    3.5155732  
N   -1.2018458    0.0001392    2.1615969  
C   -1.8348311   -0.0008317    4.5510609  
C   -1.2972847   -0.0009736    5.9014604  
O   -2.0050672   -0.0014265    6.9001319  
C    0.2542623   -0.0004184    6.0817573  
O    0.7184670   -0.0002256    7.2139121  
C    1.0974552   -0.0000873    4.8889129  
H    2.0940752    0.0005483    2.0517982  
H   -2.9081052   -0.0011668    4.4207061  
H    2.1707277    0.0000911    5.0223670  
H   -2.1128194   -0.0014912    1.7406791  
