62

C    6.7270326   -2.1230172   -6.7640562  
C    7.8083113   -2.9734405   -6.7732246  
C    8.3135436   -2.9901947   -8.1070380  
C    7.4933821   -2.1233008   -8.8736908  
N    6.5388737   -1.6148977   -8.0280812  
C    7.7006777   -1.8959030  -10.2375484  
C    8.7553153   -2.5554124  -10.8383534  
O    9.0029398   -2.3692642  -12.1676542  
C    9.5845879   -3.4246430  -10.0903147  
O   10.5918052   -4.0068566  -10.8318570  
C    9.3805081   -3.6496593   -8.7448615  
H    8.1857383   -3.5159349   -5.9233754  
H    5.8220730   -0.9616442   -8.2877686  
H    7.0790816   -1.2365235  -10.8274980  
H    9.7713116   -2.9144763  -12.3812279  
H   11.1049014   -4.5781542  -10.2522403  
H   10.0321366   -4.3211506   -8.1980914  
C    5.8833910   -2.1427757   -4.3709413  
C    5.8356979   -1.7363037   -5.6609352  
C    4.7031567   -0.8254393   -5.7255534  
C    4.1678916   -0.7979259   -4.3473961  
N    4.8557055   -1.5681394   -3.5488520  
C    3.0267438   -0.0008951   -3.9901699  
C    2.4469279    0.7354871   -4.9653052  
O    1.3760860    1.5245623   -4.7737366  
C    2.9639697    0.7291612   -6.3655867  
O    2.3865737    1.4237043   -7.2019146  
C    4.1358656   -0.0967026   -6.7069579  
H    1.1970821    1.9160958   -5.6476998  
H    4.4795604   -0.0736393   -7.7324191  
H    6.5833958   -2.8247270   -3.9149713  
C    3.3003547    0.0005277   -1.4738986  
C    2.5232816    0.0003497   -2.6090746  
C    1.1623203   -0.0001319   -2.1820102  
C    1.1711884    0.0000584   -0.7636141  
N    2.4852301   -0.0014919   -0.3662359  
C    0.0000000    0.0000000    0.0000000  
C   -1.2020383    0.0000520   -0.6806479  
O   -2.3759248    0.0003493    0.0157745  
C   -1.2314655   -0.0005115   -2.0955511  
O   -2.5054388   -0.0008040   -2.6250184  
C   -0.0764513   -0.0007274   -2.8495195  
H    2.8036266    0.0088183    0.5858662  
H   -3.0835639    0.0000346   -0.6418822  
H   -2.4360043   -0.0011529   -3.5845924  
H   -0.1304091   -0.0013423   -3.9319089  
H    4.3715553    0.0004897   -1.3667133  
C    0.8175213    0.6860729    2.3021913  
C    0.0000000    0.0000000    1.4700000  
C   -0.8887526   -0.7456559    2.3478473  
C   -0.4549825   -0.3816753    3.7138435  
N    0.5448156    0.4573574    3.6934124  
C   -1.0945674   -0.9182058    4.8835240  
C   -2.1210866   -1.7789155    4.6970523  
O   -2.8083856   -2.3554314    5.6976972  
C   -2.5824069   -2.1655116    3.3310774  
O   -3.5227682   -2.9541547    3.2362962  
C   -1.9100805   -1.6015804    2.1470656  
H   -0.7567140   -0.6349833    5.8697035  
H   -3.4728268   -2.9124471    5.2533954  
H   -2.2742832   -1.9066565    1.1752040  
H    1.6189533    1.3585343    2.0405121  
