62

C    3.3041274    0.0001179   -1.5420433  
C    2.5845371   -0.0004779   -0.3695858  
C    1.2040005   -0.0000006   -0.7283592  
C    1.1422373    0.0006039   -2.1454373  
N    2.4348640    0.0026112   -2.6077467  
C   -0.0655182    0.0008800   -2.8497919  
C   -1.2321769    0.0002326   -2.1101401  
O   -2.4392816    0.0001150   -2.7472518  
C   -1.1911210   -0.0000006   -0.6955265  
O   -2.4371524   -0.0002319   -0.1032861  
C    0.0000000    0.0000000    0.0000000  
H    3.0031535   -0.0000660    0.6222576  
H    2.7054629   -0.0071095   -3.5745261  
H   -3.1132987   -0.0000647   -2.0551788  
H   -2.3200280   -0.0004071    0.8516404  
H    4.3686622    0.0004075   -1.7024295  
C    2.2991554   -2.1048093   -5.8924434  
C    1.6888956   -1.6397490   -7.0128794  
C    0.6412938   -0.7448179   -6.5810648  
C    0.6916334   -0.7264669   -5.1066426  
N    1.7177150   -1.5716516   -4.7520883  
C   -0.1387083    0.0017020   -4.3179686  
C   -1.1495780    0.8219302   -4.9644228  
O   -1.9445181    1.5135266   -4.3414739  
C   -1.2212027    0.8175538   -6.5247613  
O   -2.0683182    1.5039444   -7.0802106  
C   -0.2716616   -0.0081806   -7.2666418  
H    1.9434326   -1.8946826   -8.0262072  
H    3.1245931   -2.7923368   -5.8038529  
H    2.0018700   -1.7690376   -3.8101002  
C    0.1614899   -3.2824045  -10.1090592  
C   -0.0111292   -2.6544755  -11.2954345  
C   -0.2403461   -1.2595667  -10.9516493  
C   -0.1704342   -1.2232886   -9.4750375  
N    0.0649669   -2.4060994   -8.9755033  
C   -0.3479155   -0.0045086   -8.7346584  
C   -0.5841024    1.1266796   -9.4374836  
O   -0.7687890    2.3339419   -8.8767257  
C   -0.6600497    1.1225537  -10.9282465  
O   -0.8783447    2.1892642  -11.5024393  
C   -0.4746059   -0.1403871  -11.6648036  
H    0.0140727   -3.0847158  -12.2820113  
H   -0.9140044    2.9367672   -9.6281682  
H   -0.5369429   -0.1011247  -12.7440641  
H    0.3558396   -4.3285220   -9.9334466  
C    2.5311839    2.1237619    3.0120429  
C    1.9795631    1.6616747    1.8395852  
C    0.9223175    0.7739173    2.1983588  
C    0.8753926    0.7337535    3.6154372  
N    1.8668922    1.5631002    4.0777464  
C   -0.0496243   -0.0427881    4.3197917  
C   -0.9437528   -0.7922060    3.5801400  
O   -1.8685244   -1.5680278    4.2172520  
C   -0.9124520   -0.7656372    2.1655264  
O   -1.8671164   -1.5663939    1.5732860  
C    0.0000000    0.0000000    1.4700000  
H    2.3005065    1.9304404    0.8477417  
H    2.0679347    1.7444845    5.0445261  
H   -0.0904770   -0.0778569    5.3997470  
H   -2.3849669   -2.0011402    3.5251786  
H   -1.7775064   -1.4909735    0.6183591  
H    3.3468514    2.8078103    3.1724291  
