60

C    4.6433372   -2.1183124    0.5949199  
C    5.5777119   -1.6192228    1.4725992  
C    6.4241131   -0.7457630    0.7274338  
C    5.9535305   -0.7516126   -0.6106411  
N    4.8726237   -1.5966764   -0.6567477  
C    6.5521053    0.0002407   -1.6261280  
C    7.6454649    0.7722948   -1.2845503  
O    8.2677606    1.5261675   -2.2371457  
C    8.1300231    0.7910589    0.0449871  
O    9.2262386    1.6090088    0.2255805  
C    7.5401752    0.0493795    1.0472428  
H    5.6420907   -1.8564715    2.5207227  
H    4.3242432   -1.7934276   -1.4743956  
H    8.9956972    1.9804651   -1.7933126  
H    9.4900889    1.5643585    1.1496976  
H    7.9337486    0.0837859    2.0563976  
H    3.8323578   -2.8062186    0.7624189  
C    2.5562217   -0.0001551   -3.6003001  
C    3.5148523   -0.0005089   -2.6449955  
C    4.7727382   -0.0006031   -3.3759000  
C    4.3760686   -0.0003763   -4.8004127  
N    3.0779899   -0.0000325   -4.9381841  
C    5.3463911   -0.0003437   -5.8603948  
C    6.6535655   -0.0001401   -5.5130774  
O    7.6652141   -0.0000938   -6.3977289  
C    7.0856176    0.0000101   -4.0842692  
O    8.2923980    0.0000686   -3.8415698  
C    6.0711797   -0.0000707   -3.0152321  
H    3.3844828   -0.0005938   -1.5763142  
H    5.0281922   -0.0003826   -6.8927024  
H    8.4720664    0.0000892   -5.8517046  
C    0.0000000    0.0000000    0.0000000  
C    1.0541688   -0.0001722   -0.8560390  
C    0.5103141   -0.0000453   -2.1935955  
C   -0.9576367    0.0002460   -2.0455731  
N   -1.2018459   -0.0001392   -0.6915969  
C   -1.8348307    0.0008318   -3.0810611  
C   -1.2972843    0.0009738   -4.4314606  
O   -2.0050665    0.0014267   -5.4301321  
C    0.2542628    0.0004186   -4.6117570  
O    0.7184676    0.0002258   -5.7439117  
C    1.0974555    0.0000874   -3.4189127  
H    2.0940752   -0.0005483   -0.5817978  
H   -2.9081051    0.0011670   -2.9507061  
H   -2.1128194    0.0014912   -0.2706792  
C    1.0965515   -0.0001358    2.2710304  
C    0.0000000    0.0000000    1.4700000  
C   -1.1546562   -0.0001469    2.3369512  
C   -0.6372014   -0.0003519    3.7186280  
N    0.7342871   -0.0007337    3.6095011  
C   -1.4147739   -0.0001353    4.8308716  
C   -2.8576048    0.0001048    4.6554461  
O   -3.6427778    0.0002493    5.5944904  
C   -3.4275839    0.0000726    3.2011665  
O   -4.6406829   -0.0000333    3.0410059  
C   -2.4891866    0.0001091    2.0816745  
H   -1.0150448   -0.0001615    5.8354244  
H   -2.8919121    0.0002919    1.0779135  
H    2.1388271   -0.0000662    1.9961646  
H    1.3735872    0.0006099    4.3830260  
