60

C    0.7413082    0.0196744   -8.8437866  
C    1.8165734   -0.6557752   -9.3729749  
C    1.8991615   -0.2933744  -10.7500900  
C    0.8392528    0.6138314  -11.0060153  
N    0.1546660    0.7805277   -9.8278102  
C    0.6152477    1.1794387  -12.2648636  
C    1.4770938    0.8229642  -13.2838467  
O    1.3041876    1.3460249  -14.5326557  
C    2.5402366   -0.0809401  -13.0482587  
O    3.3103801   -0.3362066  -14.1640806  
C    2.7616557   -0.6395218  -11.8066923  
H    2.4613556   -1.3279559   -8.8331393  
H   -0.6428308    1.3767439   -9.6993340  
H   -0.1908535    1.8713693  -12.4664460  
H    2.0029116    0.9714738  -15.0847086  
H    4.0050584   -0.9550787  -13.9190842  
H    3.5841123   -1.3290743  -11.6564898  
C    2.0060354   -2.0933382   -5.2079950  
C    1.0681400   -1.6309435   -4.3416125  
C    0.2140993   -0.7346500   -5.0846522  
C    0.7350365   -0.7126395   -6.4648448  
N    1.8215801   -1.5565850   -6.4731480  
C    0.2009229    0.0171138   -7.4767177  
C   -0.9646761    0.8356538   -7.1870525  
O   -1.5183198    1.5285630   -8.0306496  
C   -1.5330620    0.8277891   -5.7321707  
O   -2.5138752    1.5132041   -5.4762939  
C   -0.8712826    0.0001710   -4.7267111  
H    0.9842757   -1.8882192   -3.3007524  
H    2.8165826   -2.7808930   -5.0286319  
H    2.3914343   -1.7539294   -7.2752499  
C    1.0965514    0.0001359   -0.8010305  
C    0.0000000    0.0000000    0.0000000  
C   -1.1546563    0.0001470   -0.8669513  
C   -0.6372014    0.0003519   -2.2486282  
N    0.7342871    0.0007337   -2.1395014  
C   -1.4147739    0.0001352   -3.3608717  
C   -2.8576049   -0.0001048   -3.1854462  
O   -3.6427779   -0.0002494   -4.1244907  
C   -3.4275840   -0.0000725   -1.7311666  
O   -4.6406831    0.0000333   -1.5710060  
C   -2.4891867   -0.0001091   -0.6116744  
H   -2.8919122   -0.0002918    0.3920866  
H    2.1388272    0.0000663   -0.5261648  
H    1.3735872   -0.0006099   -2.9130262  
C    0.8681109    0.7263879    2.2709268  
C    0.6127770    0.5096195    3.5869401  
C   -0.4920590   -0.4175482    3.6542670  
C   -0.8620974   -0.7254003    2.2596025  
N    0.0000000    0.0000000    1.4700000  
C   -1.8641242   -1.5660088    1.8976294  
C   -2.6293522   -2.2103885    2.9520183  
O   -3.5512764   -2.9839180    2.7283916  
C   -2.2549728   -1.8987399    4.4361073  
O   -2.8923672   -2.4351063    5.3323774  
C   -1.1543735   -0.9755647    4.7012123  
H    1.1382914    0.9492124    4.4159191  
H   -2.1192137   -1.7782617    0.8686553  
H   -0.9013378   -0.7652422    5.7314848  
H    1.6172880    1.3558399    1.8188057  
