62

C    0.9757159   -1.0721211   -9.5475654  
C    0.5183080    0.0274013   -8.8588733  
C    0.6278793    1.1448936   -9.7385355  
C    1.1627665    0.6619896  -10.9602664  
N    1.3640959   -0.6875931  -10.8095663  
C    1.4060561    1.4910439  -12.0594784  
C    1.1035912    2.8319616  -11.9229747  
O    1.3211185    3.6859375  -12.9652910  
C    0.5695828    3.3328003  -10.7118560  
O    0.3216891    4.6898014  -10.7328120  
C    0.3295666    2.5155444   -9.6269536  
H    1.7256264   -1.3028593  -11.5157705  
H    1.8136970    1.1291940  -12.9933391  
H    1.0465056    4.5613842  -12.6628923  
H   -0.0370933    4.9466781   -9.8778898  
H   -0.0799735    2.9278347   -8.7122023  
H    1.0569888   -2.0999723   -9.2379265  
C    1.8886554   -2.0886686   -5.2633577  
C    0.9763566   -1.6271610   -4.3696034  
C    0.1009362   -0.7303189   -5.0866450  
C    0.5814328   -0.7070199   -6.4814108  
N    1.6673588   -1.5508189   -6.5221211  
C    0.0179872    0.0235611   -7.4766416  
C   -1.1387598    0.8416956   -7.1524079  
O   -1.7168203    1.5352810   -7.9788982  
C   -1.6645101    0.8324701   -5.6815895  
O   -2.6375203    1.5175331   -5.3966331  
C   -0.9736297    0.0040464   -4.6965763  
H    0.9228833   -1.8853691   -3.3269707  
H    2.7041548   -2.7762787   -5.1083002  
H    2.2136191   -1.7473804   -7.3406622  
C    1.1188642    0.0008222   -0.8003808  
C    0.0000000    0.0000000    0.0000000  
C   -1.1323862    0.0008899   -0.8673528  
C   -0.6382663    0.0019679   -2.1969280  
N    0.7324016    0.0038481   -2.1202242  
C   -1.4770914    0.0027318   -3.3154808  
C   -2.8395473    0.0020945   -3.0876857  
O   -3.7039201    0.0024425   -4.1440349  
C   -3.3517868    0.0013931   -1.7684331  
O   -4.7300497    0.0012366   -1.7073121  
C   -2.5248543    0.0009123   -0.6644817  
H    1.3576314   -0.0056167   -2.9057046  
H   -4.5940032    0.0021826   -3.7685128  
H   -4.9934602    0.0007259   -0.7819913  
H   -2.9462577    0.0005603    0.3339659  
H    2.1619895    0.0009355   -0.5342068  
C    2.5528530    2.1414826    2.8079335  
C    2.0663498    1.7338582    4.0032312  
C    0.9804344    0.8229586    3.6752840  
C    0.9495562    0.7966882    2.1971295  
N    1.8690446    1.5676019    1.6831036  
C    0.0000000    0.0000000    1.4700000  
C   -0.8785127   -0.7372425    2.1869543  
O   -1.8187535   -1.5261249    1.6395491  
C   -0.8723269   -0.7321790    3.6796354  
O   -1.7010379   -1.4274584    4.2670412  
C    0.1115397    0.0933559    4.4024240  
H    2.4028853    2.0163452    4.9860947  
H   -2.2861435   -1.9184361    2.3990168  
H    0.0832434    0.0693689    5.4835595  
H    3.3664920    2.8238276    2.6198634  
