64

C   -3.3003562   -0.0019863   -1.4738947  
C   -2.5232848   -0.0014650   -2.6090718  
C   -1.1623235   -0.0003819   -2.1820087  
C   -1.1711899   -0.0005760   -0.7636127  
N   -2.4852317    0.0003935   -0.3662329  
C    0.0000000    0.0000000    0.0000000  
C    1.2020371    0.0004793   -0.6806495  
O    2.3759233    0.0007007    0.0157714  
C    1.2314617    0.0010554   -2.0955526  
O    2.5054344    0.0019110   -2.6250211  
C    0.0764466    0.0007609   -2.8495197  
H   -2.8920006   -0.0007164   -3.6205269  
H   -2.8036222   -0.0100573    0.5858694  
H    3.0835619    0.0013281   -0.6418857  
H    2.4359992    0.0022293   -3.5845950  
H    0.1304040    0.0013996   -3.9319089  
C   -6.5908010   -0.0033253   -4.4182797  
C   -5.3731532   -0.0027736   -3.8171071  
C   -5.6071082   -0.0027888   -2.3922911  
C   -7.0713668   -0.0034283   -2.2113599  
N   -7.6095243   -0.0033309   -3.4775655  
C   -7.6973079   -0.0040281   -1.0072411  
C   -6.8738974   -0.0038186    0.1904780  
O   -7.3427959   -0.0042545    1.3211567  
C   -5.3209694   -0.0028912    0.0224952  
O   -4.6174375   -0.0024009    1.0236459  
C   -4.7630518   -0.0025808   -1.3275345  
H   -4.4198650   -0.0022162   -4.3149569  
H   -8.7727866   -0.0046216   -0.8965353  
H   -6.8296483   -0.0035115   -5.4693944  
C   -9.9595581   -2.1298170   -6.5620882  
C  -11.1946285   -1.6326415   -6.2158451  
C  -10.9953001   -0.7574408   -5.1072909  
C   -9.6064404   -0.7603052   -4.8192172  
N   -9.0071316   -1.6053411   -5.7199728  
C   -9.0474131   -0.0061189   -3.7831288  
C   -9.9060329    0.7652417   -3.0242133  
O   -9.4131147    1.5213074   -2.0002942  
C  -11.2948232    0.7810412   -3.2959256  
O  -12.0171515    1.5986611   -2.4514825  
C  -11.8470470    0.0370592   -4.3177207  
H  -12.1249557   -1.8722496   -6.7017178  
H   -8.0233838   -1.8002870   -5.7670553  
H  -10.1699749    1.9746550   -1.6067171  
H  -12.9446704    1.5519449   -2.7027383  
H  -12.9145304    0.0692169   -4.5019068  
H   -9.6828628   -2.8181584   -7.3422065  
C    2.5285572    2.1210227    2.9438989  
C    1.9331703    1.6216660    4.0790748  
C    0.8903039    0.7472258    3.6520102  
C    0.8972198    0.7527806    2.2336141  
N    1.9028376    1.5986179    1.8362361  
C    0.0000000    0.0000000    1.4700000  
C   -0.9207814   -0.7726952    2.1506477  
O   -1.8198395   -1.5274828    1.4542253  
C   -0.9436862   -0.7911793    3.5655508  
O   -1.9197945   -1.6098497    4.0950179  
C   -0.0590329   -0.0485852    4.3195194  
H    2.2150357    1.8593692    5.0905303  
H    2.1533708    1.7953814    0.8841339  
H   -2.3621246   -1.9821033    2.1118817  
H   -1.8668290   -1.5649508    5.0545920  
H   -0.1007624   -0.0827977    5.4019087  
H    3.3491200    2.8096064    2.8367138  
