62

C    1.6867896   -1.0419664   -7.2075140  
C    2.6637039   -1.9264227   -6.8127437  
C    3.4970025   -2.1597304   -7.9466655  
C    2.9752971   -1.3837795   -9.0132726  
N    1.8753400   -0.7189060   -8.5309300  
C    3.5486863   -1.3684793  -10.2883341  
C    4.6693233   -2.1505124  -10.4902569  
O    5.2692945   -2.1724704  -11.7160503  
C    5.2044783   -2.9318792   -9.4386437  
O    6.3222455   -3.6564202   -9.7977840  
C    4.6391762   -2.9476682   -8.1805861  
H    2.7628088   -2.3520373   -5.8288619  
H    1.3040889   -0.0833579   -9.0579330  
H    3.1557977   -0.7793667  -11.1055163  
H    6.0221776   -2.7731139  -11.6408209  
H    6.6202587   -4.1557287   -9.0313093  
H    5.0713036   -3.5563068   -7.3948994  
C    0.2867643   -0.7146510   -5.1244199  
C    0.5709149   -0.4618488   -6.4464699  
C   -0.4158205    0.4546577   -6.9165433  
C   -1.2826861    0.7276744   -5.8275383  
N   -0.8287665    0.0000939   -4.7555305  
C   -2.3750521    1.5943735   -5.9293164  
C   -2.5961743    2.1966665   -7.1526420  
O   -3.6484751    3.0521064   -7.3072416  
C   -1.7426094    1.9366338   -8.2511075  
O   -2.0951103    2.6123592   -9.4010997  
C   -0.6649359    1.0815183   -8.1514972  
H   -3.0395771    1.8065315   -5.1031219  
H   -3.6209324    3.3559938   -8.2238437  
H   -1.4686574    2.3813141  -10.0937600  
H   -0.0288013    0.9017038   -9.0102627  
H    0.7907215   -1.3493613   -4.4158096  
C    1.0672569   -0.0000698   -0.8321910  
C    0.0000000    0.0000000    0.0000000  
C   -1.1601223   -0.0000736   -0.8778472  
C   -0.5938729   -0.0000768   -2.2438435  
N    0.7113367   -0.0001553   -2.2234123  
C   -1.4286985   -0.0001877   -3.4135239  
C   -2.7683113   -0.0006798   -3.2270524  
O   -3.6653902   -0.0008302   -4.2276970  
C   -3.3702024   -0.0010610   -1.8610774  
O   -4.5974910   -0.0013779   -1.7662963  
C   -2.4926825   -0.0008943   -0.6770658  
H   -4.5324245   -0.0012258   -3.7833954  
H   -2.9677772   -0.0012974    0.2947961  
H    2.1134391   -0.0000547   -0.5705119  
C    2.5128556    2.1077716    2.9199648  
C    1.9592212    1.6432552    4.0696553  
C    0.8915788    0.7479214    3.6910360  
C    0.8684491    0.7287414    2.2159470  
N    1.8754542    1.5738793    1.8102719  
C    0.0000000    0.0000000    1.4700000  
C   -0.9772830   -0.8200135    2.1664417  
O   -1.8021297   -1.5120829    1.5842315  
C   -0.9711318   -0.8147624    3.7284083  
O   -1.7894187   -1.5009653    4.3257297  
C    0.0140216    0.0115358    4.4216297  
H    2.2638494    1.8988021    5.0689105  
H    0.0117648    0.0094386    5.5031631  
H    3.3327358    2.7953732    2.7900019  
H    2.1123206    1.7707734    0.8551938  
