64

C    7.5592210   -4.2953458    0.6871679  
C    6.8510891   -3.4905653   -0.1750062  
C    5.4745403   -3.6110060    0.1788394  
C    5.4033165   -4.5102574    1.2734634  
N    6.6865127   -4.9083915    1.5554459  
C    4.1963923   -4.8645216    1.8838889  
C    3.0403377   -4.3004913    1.3803166  
O    1.8345590   -4.6116255    1.9391614  
C    3.0908984   -3.4014661    0.2885227  
O    1.8547955   -2.9255069   -0.0972950  
C    4.2811792   -3.0517334   -0.3143417  
H    7.2744824   -2.8913600   -0.9628412  
H    6.9501663   -5.5387524    2.2910481  
H    4.1353635   -5.5494174    2.7183908  
H    1.1684599   -4.1170869    1.4441780  
H    1.9779177   -2.3256518   -0.8393318  
H    8.6176288   -4.4816709    0.7505350  
C    4.2912332   -2.1143348   -1.4466323  
C    5.3462909   -1.6515572   -2.1654961  
C    4.8141506   -0.7557113   -3.1650566  
C    3.3521070   -0.7343355   -2.9681719  
N    3.0997470   -1.5788206   -1.9117396  
C    2.4861704   -0.0045255   -3.7159919  
C    3.0304430    0.8144036   -4.7863460  
O    2.3328579    1.5073002   -5.5154345  
C    4.5758847    0.8068266   -5.0129670  
O    5.0456349    1.4921002   -5.9112961  
C    5.4069283   -0.0204564   -4.1418632  
H    6.3794031   -1.9085775   -2.0130697  
H    6.4760574   -0.0199698   -4.3052245  
H    2.1903289   -1.7742811   -1.5351744  
C    0.0000000    0.0000000    0.0000000  
C    1.0521669   -0.0011848   -0.8862341  
C    0.4917221   -0.0011931   -2.1979130  
C   -0.9187427    0.0003100   -2.0478683  
N   -1.1833170   -0.0009472   -0.7007915  
C   -1.7951698    0.0010259   -3.1372090  
C   -1.2375835    0.0005161   -4.4010425  
O   -2.0474208    0.0015256   -5.4997580  
C    0.1673584   -0.0013557   -4.5711962  
O    0.5673529   -0.0020659   -5.8915551  
C    1.0325773   -0.0023359   -3.4969890  
H    2.0953059   -0.0030542   -0.6200560  
H   -2.0989777    0.0102265   -0.2891825  
H   -2.8710930    0.0020274   -3.0295514  
H   -1.4634881    0.0006427   -6.2693593  
H    1.5290715   -0.0033076   -5.9180042  
C    3.3041272   -0.0001177    3.0120429  
C    2.5845372    0.0004780    1.8395852  
C    1.2040006    0.0000008    2.1983588  
C    1.1422373   -0.0006037    3.6154372  
N    2.4348639   -0.0026109    4.0777464  
C   -0.0655181   -0.0008797    4.3197917  
C   -1.2321768   -0.0002324    3.5801400  
O   -2.4392816   -0.0001146    4.2172520  
C   -1.1911209    0.0000007    2.1655264  
O   -2.4371527    0.0002320    1.5732860  
C    0.0000000    0.0000000    1.4700000  
H    3.0031534    0.0000661    0.8477417  
H    2.7054629    0.0071099    5.0445261  
H   -0.1193549   -0.0014844    5.3997470  
H   -3.1132988    0.0000648    3.5251786  
H   -2.3200282    0.0004071    0.6183591  
H    4.3686625   -0.0004071    3.1724291  
