60

C   11.0934572    2.1260270   -2.4989981  
C    9.8419671    1.6636508   -2.1636646  
C   10.0080305    0.7764191   -1.0591992  
C   11.3943830    0.7368591   -0.7618998  
N   12.0247804    1.5660439   -1.6561423  
C   11.9239499   -0.0390606    0.2736172  
C   11.0378251   -0.7884660    1.0228517  
O   11.5012567   -1.5636939    2.0462121  
C    9.6511346   -0.7624944    0.7413717  
O    8.8993791   -1.5631556    1.5763261  
C    9.1280325    0.0025291   -0.2802107  
H    8.9225964    1.9318909   -2.6553936  
H   13.0118215    1.7477568   -1.6827712  
H   12.9795885   -0.0736674    0.5052020  
H   10.7287726   -1.9969088    2.4320336  
H    7.9754163   -1.4881631    1.3188934  
H   11.3956031    2.8098507   -3.2736285  
C    6.8354432    0.0008786   -4.0255230  
C    5.5758875    0.0005992   -3.5179857  
C    5.7016160    0.0007904   -2.0795742  
C    7.1480384    0.0012362   -1.7886234  
N    7.7802455    0.0008701   -3.0105904  
C    7.6812949    0.0019200   -0.5406883  
C    6.7698186    0.0020121    0.5914541  
O    7.1520256    0.0025450    1.7543038  
C    5.2340027    0.0012938    0.3067212  
O    4.4569015    0.0010577    1.2519061  
C    4.7795901    0.0008674   -1.0815733  
H    4.6629017    0.0001119   -4.0863788  
H    7.1529573    0.0008730   -5.0556079  
H    8.7747879    0.0025945   -3.1444929  
C    3.3321168    0.0004716   -1.3379341  
C    2.6974177    0.0000118   -2.5332316  
C    1.2800432   -0.0002116   -2.2052842  
C    1.2395033    0.0000644   -0.7271298  
N    2.4394059    0.0005460   -0.2131041  
C    0.0000000    0.0000000    0.0000000  
C   -1.1468704    0.0000635   -0.7169542  
O   -2.3742206    0.0000074   -0.1695488  
C   -1.1388774    0.0001608   -2.2096352  
O   -2.2206238    0.0000906   -2.7970409  
C    0.1454514    0.0001818   -2.9324241  
H    3.1367978   -0.0000649   -3.5160956  
H   -2.9844350    0.0001027   -0.9290164  
H    0.1083567    0.0003684   -4.0135594  
C    2.5528530    2.1414826    2.8079335  
C    2.0663498    1.7338582    4.0032312  
C    0.9804344    0.8229586    3.6752840  
C    0.9495562    0.7966882    2.1971295  
N    1.8690446    1.5676019    1.6831036  
C    0.0000000    0.0000000    1.4700000  
C   -0.8785127   -0.7372425    2.1869543  
O   -1.8187535   -1.5261249    1.6395491  
C   -0.8723269   -0.7321790    3.6796354  
O   -1.7010379   -1.4274584    4.2670412  
C    0.1115397    0.0933559    4.4024240  
H    2.4028853    2.0163452    4.9860947  
H   -2.2861435   -1.9184361    2.3990168  
H    0.0832434    0.0693689    5.4835595  
H    3.3664920    2.8238276    2.6198634  
