64

C   -4.3222477    0.7117430   -6.3016560  
C   -5.6712730    0.4625607   -6.4041600  
C   -5.8454795   -0.4464759   -7.4894726  
C   -4.5565567   -0.7188775   -8.0152128  
N   -3.6548373    0.0018781   -7.2722243  
C   -4.3475203   -1.5789646   -9.0974983  
C   -5.4598799   -2.1751567   -9.6590942  
O   -5.3128070   -3.0240027  -10.7177929  
C   -6.7541493   -1.9156261   -9.1488704  
O   -7.7592111   -2.5847942   -9.8162598  
C   -6.9611400   -1.0670304   -8.0813665  
H   -6.4358431    0.8849764   -5.7748816  
H   -3.3677278   -1.7906174   -9.5029756  
H   -6.2005229   -3.3244173  -10.9522639  
H   -8.6001131   -2.3545666   -9.4094631  
H   -7.9642282   -0.8874312   -7.7125354  
H   -3.7834635    1.3407828   -5.6139210  
C   -0.2963294   -0.0005341   -4.3948471  
C    0.7248285   -0.0020374   -5.3166395  
C    0.1197345   -0.0021750   -6.6083289  
C   -1.2847550   -0.0004188   -6.4100066  
N   -1.5029814   -0.0014076   -5.0546493  
C   -2.1980212    0.0002560   -7.4686534  
C   -1.6841009   -0.0005557   -8.7508631  
O   -2.5311380    0.0004005   -9.8211629  
C   -0.2858204   -0.0026831   -8.9690929  
O    0.0686625   -0.0036788  -10.3023925  
C    0.6157252   -0.0036228   -7.9251871  
H    1.7764813   -0.0040306   -5.0863877  
H   -2.4039877    0.0099828   -4.6118854  
H   -1.9739388   -0.0007062  -10.6103355  
H    1.0289085   -0.0050800  -10.3618040  
H    1.6811962   -0.0054371   -8.1232953  
C    3.1301143   -0.0010313   -1.7028257  
C    2.5367765   -0.0002767   -0.4864669  
C    1.1089900    0.0001027   -0.7656184  
C    1.0177864   -0.0004150   -2.2415133  
N    2.1993571   -0.0011613   -2.7963824  
C   -0.2459220   -0.0002879   -2.9257116  
C   -1.3675327   -0.0000606   -2.1698519  
O   -2.6129319    0.0000866   -2.6748482  
C   -1.3083588    0.0000910   -0.6783229  
O   -2.3693264    0.0004206   -0.0541685  
C    0.0000000    0.0000000    0.0000000  
H    3.0096014   -0.0001008    0.4807517  
H   -3.1967445    0.0002093   -1.8949025  
H    4.1849272   -0.0015113   -1.9271980  
C    2.5285572    2.1210227    2.9438989  
C    1.9331703    1.6216660    4.0790748  
C    0.8903039    0.7472258    3.6520102  
C    0.8972198    0.7527806    2.2336141  
N    1.9028376    1.5986179    1.8362361  
C    0.0000000    0.0000000    1.4700000  
C   -0.9207814   -0.7726952    2.1506477  
O   -1.8198395   -1.5274828    1.4542253  
C   -0.9436862   -0.7911793    3.5655508  
O   -1.9197945   -1.6098497    4.0950179  
C   -0.0590329   -0.0485852    4.3195194  
H    2.2150357    1.8593692    5.0905303  
H    2.1533708    1.7953814    0.8841339  
H   -2.3621246   -1.9821033    2.1118817  
H   -1.8668290   -1.5649508    5.0545920  
H   -0.1007624   -0.0827977    5.4019087  
H    3.3491200    2.8096064    2.8367138  
