66

C    4.3172181   -2.1276214   -1.4346667  
C    5.3517550   -1.6299844   -2.1926636  
C    4.7753703   -0.7549587   -3.1605017  
C    3.3738274   -0.7584004   -2.9423468  
N    3.1294633   -1.6035969   -1.8885225  
C    2.4861704   -0.0045255   -3.7159919  
C    3.0231744    0.7671112   -4.7281088  
O    2.2016882    1.5228925   -5.5135820  
C    4.4189003    0.7834865   -4.9615571  
O    4.7982356    1.6013206   -6.0058726  
C    5.2951622    0.0398121   -4.1989044  
H    6.3935655   -1.8691808   -2.0645680  
H    2.2250241   -1.7989301   -1.4988868  
H    2.7718801    1.9765076   -6.1479167  
H    5.7549249    1.5549959   -6.0964458  
H    6.3593041    0.0724104   -4.4014334  
C    4.3380426   -3.0675920   -0.3046572  
C    5.3979164   -3.7015109    0.3013804  
C    4.8586966   -4.5039450    1.3501611  
C    3.4526128   -4.3178131    1.3357131  
N    3.1703235   -3.4383475    0.3200997  
C    2.5956809   -4.9581687    2.2359362  
C    3.1685908   -5.8020266    3.1675232  
O    2.3780393   -6.4529137    4.0699576  
C    4.5694984   -6.0003771    3.1980627  
O    4.9863794   -6.8700203    4.1846086  
C    5.4155145   -5.3687702    2.3104507  
H    6.4325458   -3.5974271    0.0226291  
H    2.2520768   -3.1244134    0.0627087  
H    1.5232093   -4.8204204    2.2302334  
H    2.9702062   -6.9821625    4.6199574  
H    5.9440574   -6.9482614    4.1362846  
H    6.4845414   -5.5401717    2.3582071  
C    0.0000000    0.0000000    0.0000000  
C    1.0521669   -0.0011848   -0.8862341  
C    0.4917221   -0.0011931   -2.1979130  
C   -0.9187427    0.0003100   -2.0478683  
N   -1.1833170   -0.0009472   -0.7007915  
C   -1.7951698    0.0010259   -3.1372090  
C   -1.2375835    0.0005161   -4.4010425  
O   -2.0474208    0.0015256   -5.4997580  
C    0.1673584   -0.0013557   -4.5711962  
O    0.5673529   -0.0020659   -5.8915551  
C    1.0325773   -0.0023359   -3.4969890  
H    2.0953059   -0.0030542   -0.6200560  
H   -2.0989777    0.0102265   -0.2891825  
H   -2.8710930    0.0020274   -3.0295514  
H   -1.4634881    0.0006427   -6.2693593  
H    1.5290715   -0.0033076   -5.9180042  
C    1.1188642   -0.0008217    2.2703808  
C    0.0000000    0.0000000    1.4700000  
C   -1.1323862   -0.0008904    2.3373528  
C   -0.6382662   -0.0019682    3.6669281  
N    0.7324016   -0.0038477    3.5902241  
C   -1.4770914   -0.0027325    4.7854808  
C   -2.8395474   -0.0020958    4.5576857  
O   -3.7039201   -0.0024443    5.6140350  
C   -3.3517868   -0.0013946    3.2384331  
O   -4.7300496   -0.0012389    3.1773122  
C   -2.5248543   -0.0009135    2.1344818  
H    1.3576314    0.0056174    4.3757045  
H   -1.1067570   -0.0036993    5.8013813  
H   -4.5940033   -0.0021850    5.2385129  
H   -4.9934601   -0.0007286    2.2519915  
H   -2.9462578   -0.0005617    1.1360343  
H    2.1619896   -0.0009344    2.0042067  
