60

C    4.7283676   -0.7006413   -7.4296689  
C    4.1680873    0.5526793   -7.3416864  
C    4.9607756    1.4207581   -8.1495756  
C    5.9992942    0.6342084   -8.7105956  
N    5.8298071   -0.6484250   -8.2515281  
C    6.9721609    1.1635359   -9.5639029  
C    6.8950686    2.5113723   -9.8564289  
O    7.8193282    3.0797309  -10.6845147  
C    5.8665640    3.3127351   -9.3061462  
O    5.9260117    4.6358576   -9.6923540  
C    4.9066305    2.7912685   -8.4640490  
H    6.4110978   -1.4316146   -8.4896399  
H    7.7663258    0.5694262   -9.9946458  
H    7.5854195    4.0144555  -10.7540909  
H    5.1970248    5.1069041   -9.2772683  
H    4.1310016    3.4298195   -8.0576873  
H    4.4302940   -1.6273935   -6.9700595  
C    2.8279729   -0.7071295   -3.3541666  
C    1.6707636   -0.0012343   -3.2725974  
C    1.5420226    0.7399976   -4.5050083  
C    2.7275726    0.4056547   -5.3170904  
N    3.4672607   -0.4755791   -4.5626514  
C    2.9773525    0.9038683   -6.5544659  
C    2.0143742    1.8314548   -7.1243708  
O    2.1493679    2.3348416   -8.2319262  
C    0.7517065    2.1998421   -6.2818940  
O   -0.0658604    2.9799880   -6.7511674  
C    0.5920511    1.5980568   -4.9604493  
H   -0.2850560    1.8581560   -4.3835995  
H    3.2676543   -1.3768500   -2.6330256  
H    4.3364880   -0.8886230   -4.8470555  
C    1.0965514    0.0001358   -0.8010306  
C    0.0000000    0.0000000    0.0000000  
C   -1.1546565    0.0001470   -0.8669508  
C   -0.6372019    0.0003520   -2.2486278  
N    0.7342867    0.0007338   -2.1395012  
C   -1.4147744    0.0001354   -3.3608712  
C   -2.8576052   -0.0001047   -3.1854454  
O   -3.6427785   -0.0002490   -4.1244896  
C   -3.4275841   -0.0000727   -1.7311660  
O   -4.6406832    0.0000333   -1.5710049  
C   -2.4891868   -0.0001090   -0.6116739  
H   -1.0150456    0.0001617   -4.3654239  
H   -2.8919122   -0.0002919    0.3920871  
H    2.1388270    0.0000663   -0.5261650  
C    0.0000000    0.0000000    1.4700000  
C    1.0541688    0.0001722    2.3260392  
C    0.5103138    0.0000454    3.6635956  
C   -0.9576371   -0.0002459    3.5155732  
N   -1.2018458    0.0001392    2.1615969  
C   -1.8348311   -0.0008317    4.5510609  
C   -1.2972847   -0.0009736    5.9014604  
O   -2.0050672   -0.0014265    6.9001319  
C    0.2542623   -0.0004184    6.0817573  
O    0.7184670   -0.0002256    7.2139121  
C    1.0974552   -0.0000873    4.8889129  
H    2.0940752    0.0005483    2.0517982  
H   -2.9081052   -0.0011668    4.4207061  
H    2.1707277    0.0000911    5.0223670  
H   -2.1128194   -0.0014912    1.7406791  
