62

C    4.3323457    0.0879878   -6.6744965  
C    5.5227215   -0.5615966   -6.9058254  
C    5.9703880   -0.1621478   -8.1999021  
C    5.0042652    0.7399606   -8.7144245  
N    4.0221891    0.8681197   -7.7637831  
C    5.1212035    1.3360967   -9.9736846  
C    6.2338558    1.0159583  -10.7271399  
O    6.3979761    1.5698535  -11.9637795  
C    7.2085633    0.1177211  -10.2312252  
O    8.2575472   -0.0996904  -11.1005422  
C    7.0937151   -0.4709645   -8.9891370  
H    6.0080777   -1.2407538   -6.2259959  
H    3.2094540    1.4520729   -7.8440371  
H    4.3882830    2.0243327  -10.3716308  
H    7.2269933    1.2175715  -12.3129109  
H    8.8701693   -0.7172484  -10.6895434  
H    7.8563053   -1.1552921   -8.6361072  
C    4.5568123   -2.1244624   -2.7957933  
C    4.8215152   -1.6265708   -4.0505852  
C    3.7464017   -0.7514631   -4.3866172  
C    2.8481254   -0.7551197   -3.2888868  
N    3.3693348   -1.6005172   -2.3411205  
C    1.6707636   -0.0012343   -3.2725974  
C    1.3953391    0.7706342   -4.3845946  
O    0.2593677    1.5264369   -4.4212711  
C    2.2790782    0.7872262   -5.4898315  
O    1.8647382    1.6052773   -6.5205876  
C    3.4406175    0.0435414   -5.5067011  
H    5.6829187   -1.8656540   -4.6504330  
H    2.9557221   -1.7960292   -1.4474309  
H    0.2607526    1.9802268   -5.2741120  
H    2.5168282    1.5590892   -7.2264545  
H    5.1203941   -2.8129777   -2.1897563  
C    1.0965514    0.0001358   -0.8010306  
C    0.0000000    0.0000000    0.0000000  
C   -1.1546565    0.0001470   -0.8669508  
C   -0.6372019    0.0003520   -2.2486278  
N    0.7342867    0.0007338   -2.1395012  
C   -1.4147744    0.0001354   -3.3608712  
C   -2.8576052   -0.0001047   -3.1854454  
O   -3.6427785   -0.0002490   -4.1244896  
C   -3.4275841   -0.0000727   -1.7311660  
O   -4.6406832    0.0000333   -1.5710049  
C   -2.4891868   -0.0001090   -0.6116739  
H   -1.0150456    0.0001617   -4.3654239  
H   -2.8919122   -0.0002919    0.3920871  
H    2.1388270    0.0000663   -0.5261650  
C    2.5528530    2.1414826    2.8079335  
C    2.0663498    1.7338582    4.0032312  
C    0.9804344    0.8229586    3.6752840  
C    0.9495562    0.7966882    2.1971295  
N    1.8690446    1.5676019    1.6831036  
C    0.0000000    0.0000000    1.4700000  
C   -0.8785127   -0.7372425    2.1869543  
O   -1.8187535   -1.5261249    1.6395491  
C   -0.8723269   -0.7321790    3.6796354  
O   -1.7010379   -1.4274584    4.2670412  
C    0.1115397    0.0933559    4.4024240  
H    2.4028853    2.0163452    4.9860947  
H   -2.2861435   -1.9184361    2.3990168  
H    0.0832434    0.0693689    5.4835595  
H    3.3664920    2.8238276    2.6198634  
