66

C    1.5862965   -2.0670324   -5.3411837  
C    1.3189955   -1.5555211   -6.5899330  
C    0.1997468   -0.6822142   -6.4513058  
C   -0.1759083   -0.7009553   -5.0836590  
N    0.6852546   -1.5532115   -4.4381559  
C   -1.2456329    0.0471727   -4.5828766  
C   -1.9487576    0.8286862   -5.4789954  
O   -3.0021411    1.5794497   -5.0433908  
C   -1.5894390    0.8603675   -6.8474631  
O   -2.3865851    1.6866030   -7.6124701  
C   -0.5344144    0.1223711   -7.3422459  
H    1.8630207   -1.7845998   -7.4902396  
H    0.6698564   -1.7594945   -3.4557141  
H   -3.3470234    2.0416480   -5.8184353  
H   -2.0769442    1.6504691   -8.5226462  
H   -0.2828475    0.1667452   -8.3954427  
C    2.6256935   -3.0116757   -4.9073605  
C    3.6131298   -3.6373591   -5.6325896  
C    4.3487930   -4.4498516   -4.7197613  
C    3.7590830   -4.2780592   -3.4412250  
N    2.7168374   -3.3970937   -3.5903585  
C    4.2289537   -4.9310849   -2.2977354  
C    5.3137077   -5.7731029   -2.4477085  
O    5.8128137   -6.4359901   -1.3639703  
C    5.9159744   -5.9572363   -3.7150630  
O    6.9868890   -6.8268756   -3.7004884  
C    5.4531323   -5.3131258   -4.8435241  
H    3.7830607   -3.5214725   -6.6893239  
H    2.1055295   -3.0914514   -2.8549218  
H    3.7840112   -4.8042971   -1.3204159  
H    6.5573576   -6.9615518   -1.6844468  
H    7.3354769   -6.8950984   -4.5946004  
H    5.9350260   -5.4737838   -5.8008355  
C    1.1243410    0.0099923   -0.7919003  
C    0.7474076    0.0234544   -2.1148543  
C   -0.6787381    0.0234490   -2.1414700  
C   -1.1201745    0.0098592   -0.7935546  
N    0.0000000    0.0000000    0.0000000  
C   -2.4730816    0.0063709   -0.4408240  
C   -3.3971958    0.0170982   -1.4675058  
O   -4.7313517    0.0146259   -1.1793471  
C   -2.9763648    0.0303504   -2.8186324  
O   -4.0166480    0.0395118   -3.7247624  
C   -1.6418562    0.0335260   -3.1673481  
H    1.4178717    0.0310972   -2.9571209  
H   -2.8160166   -0.0041111    0.5845966  
H   -5.1938818    0.0230867   -2.0274384  
H   -3.6464675    0.0482293   -4.6127343  
H    2.1062467    0.0052819   -0.3505407  
C    2.5285572    2.1210227    2.9438989  
C    1.9331703    1.6216660    4.0790748  
C    0.8903039    0.7472258    3.6520102  
C    0.8972198    0.7527806    2.2336141  
N    1.9028376    1.5986179    1.8362361  
C    0.0000000    0.0000000    1.4700000  
C   -0.9207814   -0.7726952    2.1506477  
O   -1.8198395   -1.5274828    1.4542253  
C   -0.9436862   -0.7911793    3.5655508  
O   -1.9197945   -1.6098497    4.0950179  
C   -0.0590329   -0.0485852    4.3195194  
H    2.2150357    1.8593692    5.0905303  
H    2.1533708    1.7953814    0.8841339  
H   -2.3621246   -1.9821033    2.1118817  
H   -1.8668290   -1.5649508    5.0545920  
H   -0.1007624   -0.0827977    5.4019087  
H    3.3491200    2.8096064    2.8367138  
