60

C   -8.4489346    1.0861130   -2.0886897  
C   -9.7685799    0.7111066   -1.9868262  
C   -9.8235871   -0.6915202   -2.2402265  
C   -8.4955709   -1.1213088   -2.4923814  
N   -7.6862934   -0.0167344   -2.3943933  
C   -8.1728370   -2.4507428   -2.7808900  
C   -9.2095743   -3.3629802   -2.8151802  
O   -8.9504643   -4.6742466   -3.0916830  
C  -10.5412323   -2.9534003   -2.5666810  
O  -11.4607739   -3.9794341   -2.6376604  
C  -10.8603842   -1.6419987   -2.2822629  
H  -10.5906019    1.3679282   -1.7591045  
H   -7.1627142   -2.7846729   -2.9741356  
H   -9.8008795   -5.1318625   -3.0662836  
H  -12.3340742   -3.6181956   -2.4574988  
H  -11.8896016   -1.3580040   -2.0964233  
H   -7.9915479    2.0532741   -1.9688770  
C   -4.4924717    2.0950385   -0.2442177  
C   -3.4157280    1.6323169   -0.9302108  
C   -3.9167334    0.7362617   -1.9455502  
C   -5.3841445    0.7147473   -1.7937831  
N   -5.6689495    1.5587231   -0.7452222  
C   -6.2266195   -0.0146657   -2.5683130  
C   -5.6495861   -0.8333367   -3.6215676  
O   -6.3243554   -1.5259649   -4.3720696  
C   -4.0978604   -0.8259954   -3.8001700  
O   -3.6005729   -1.5115249   -4.6833547  
C   -3.2941076    0.0012878   -2.9038237  
H   -2.3878033    1.8892264   -0.7458682  
H   -4.5254896    2.7825514    0.5853157  
H   -6.5897791    1.7563628   -0.3987286  
C    0.0000000    0.0000000    0.0000000  
C    1.0541688   -0.0001723   -0.8560392  
C    0.5103136   -0.0000455   -2.1935956  
C   -0.9576373    0.0002461   -2.0455730  
N   -1.2018460   -0.0001389   -0.6915968  
C   -1.8348314    0.0008319   -3.0810607  
C   -1.2972851    0.0009739   -4.4314603  
O   -2.0050676    0.0014268   -5.4301316  
C    0.2542619    0.0004184   -4.6117572  
O    0.7184666    0.0002257   -5.7439122  
C    1.0974551    0.0000873   -3.4189129  
H    2.0940752   -0.0005484   -0.5817983  
H    2.1707276   -0.0000912   -3.5523673  
H   -2.1128194    0.0014915   -0.2706789  
C    1.1319247   -0.0015655    2.2709268  
C    0.7969915   -0.0034943    3.5869401  
C   -0.6453339   -0.0035710    3.6542670  
C   -1.1266833   -0.0015433    2.2596025  
N    0.0000000    0.0000000    1.4700000  
C   -2.4346130   -0.0013964    1.8976294  
C   -3.4350110   -0.0031408    2.9520183  
O   -4.6384611   -0.0030974    2.7283916  
C   -2.9478959   -0.0050506    4.4361073  
O   -3.7809380   -0.0062218    5.3323774  
C   -1.5113823   -0.0053090    4.7012123  
H    1.4821238   -0.0045407    4.4159191  
H   -2.7664565   -0.0000232    0.8686553  
H   -1.1823530   -0.0068408    5.7314848  
H    2.1104316   -0.0009391    1.8188057  
