62

C    0.0000000    0.0000000    0.0000000  
C    1.0521660   -0.0011919   -0.8862347  
C    0.4917215   -0.0011967   -2.1979136  
C   -0.9187431    0.0003157   -2.0478686  
N   -1.1833172   -0.0009396   -0.7007912  
C   -1.7951706    0.0010371   -3.1372093  
C   -1.2375843    0.0005236   -4.4010428  
O   -2.0474223    0.0015382   -5.4997578  
C    0.1673573   -0.0013574   -4.5711966  
O    0.5673515   -0.0020702   -5.8915554  
C    1.0325762   -0.0023431   -3.4969895  
H    2.0953057   -0.0030682   -0.6200570  
H   -2.0989778    0.0102402   -0.2891823  
H   -1.4634894    0.0006514   -6.2693594  
H    1.5290704   -0.0033182   -5.9180050  
H    2.1042146   -0.0039645   -3.6584464  
C   -3.9676850    0.7292856   -2.0471637  
C   -5.3027880    0.5138202   -2.1702453  
C   -5.4806696   -0.4129569   -3.2630754  
C   -4.1300726   -0.7219999   -3.7701951  
N   -3.2578659    0.0024081   -2.9908507  
C   -3.8704682   -1.5626489   -4.8034521  
C   -4.9964232   -2.2058184   -5.4600293  
O   -4.8664385   -2.9792829   -6.3997937  
C   -6.4355646   -1.8928967   -4.9396857  
O   -7.3913557   -2.4282380   -5.4847856  
C   -6.5888890   -0.9698005   -3.8179739  
H   -6.0749051    0.9540305   -1.5647171  
H   -2.8722083   -1.7757859   -5.1597653  
H   -3.4426173    1.3580936   -1.3465964  
C   -7.9477362   -0.6827314   -3.3362841  
C   -8.3173097    0.1328865   -2.3215116  
C   -9.7688753    0.0451997   -2.2794618  
C  -10.1172947   -0.8927589   -3.3682327  
N   -9.0538542   -1.3228328   -3.9912264  
C  -11.4787037   -1.2499247   -3.6582038  
C  -12.4479569   -0.6955812   -2.8949304  
O  -13.7599514   -0.9393515   -3.0539496  
C  -12.1282365    0.2541190   -1.7885806  
O  -13.0610239    0.7205176   -1.1346688  
C  -10.7239971    0.6047280   -1.5108920  
H   -7.6832013    0.7212810   -1.6805949  
H  -11.7044332   -1.9377593   -4.4599770  
H  -14.1966695   -0.4037611   -2.3672380  
H  -10.5342634    1.2961578   -0.7008576  
C    3.3003543   -0.0005276    2.9438989  
C    2.5232812   -0.0003497    4.0790748  
C    1.1623199    0.0001319    3.6520102  
C    1.1711883   -0.0000583    2.2336141  
N    2.4852299    0.0014920    1.8362361  
C    0.0000000    0.0000000    1.4700000  
C   -1.2020384   -0.0000520    2.1506477  
O   -2.3759250   -0.0003494    1.4542253  
C   -1.2314658    0.0005113    3.5655508  
O   -2.5054393    0.0008037    4.0950179  
C   -0.0764518    0.0007272    4.3195194  
H    2.8919952    0.0005619    5.0905303  
H    2.8036267   -0.0088181    0.8841339  
H   -3.0835639   -0.0000348    2.1118817  
H   -2.4360050    0.0011527    5.0545920  
H   -0.1304098    0.0013421    5.4019087  
H    4.3715549   -0.0004895    2.8367138  
