62

C    9.1302742    0.0015973   -0.4075513  
C   10.2160266    0.0016666   -1.2523057  
C   11.3823958    0.0024544   -0.4312202  
C   10.9421763    0.0025542    0.9171611  
N    9.5695321    0.0039752    0.8956742  
C   11.8253312    0.0029574    2.0010552  
C   13.1775189    0.0029584    1.7186214  
O   14.0836954    0.0029924    2.7393336  
C   13.6362575    0.0032355    0.3798252  
O   15.0109436    0.0036236    0.2632944  
C   12.7655736    0.0031113   -0.6899575  
H   10.1727070    0.0023112   -2.3279992  
H    8.9764183   -0.0061903    1.7056706  
H   11.4961743    0.0031796    3.0310350  
H   14.9579480    0.0032855    2.3283004  
H   15.2369093    0.0037644   -0.6718757  
H   13.1464586    0.0035124   -1.7045534  
C    6.6781261    0.0000527   -4.1292993  
C    7.7444182    0.0009684   -3.2958728  
C    7.1743133    0.0014027   -1.9574108  
C    5.7117407    0.0007371   -2.1752742  
N    5.4148486   -0.0001362   -3.4464332  
C    4.7795901    0.0008674   -1.0815733  
C    5.2855494    0.0012391    0.1727552  
O    4.5324883    0.0014071    1.2858322  
C    6.7567497    0.0015422    0.4252006  
O    7.1465030    0.0019988    1.5928107  
C    7.6924431    0.0014447   -0.7133963  
H    8.7888458    0.0012169   -3.5571132  
H    5.1738997    0.0016451    2.0191431  
H    6.6781263   -0.0005126   -5.2077114  
C    3.3321168    0.0004716   -1.3379341  
C    2.6974177    0.0000118   -2.5332316  
C    1.2800432   -0.0002116   -2.2052842  
C    1.2395033    0.0000644   -0.7271298  
N    2.4394059    0.0005460   -0.2131041  
C    0.0000000    0.0000000    0.0000000  
C   -1.1468704    0.0000635   -0.7169542  
O   -2.3742206    0.0000074   -0.1695488  
C   -1.1388774    0.0001608   -2.2096352  
O   -2.2206238    0.0000906   -2.7970409  
C    0.1454514    0.0001818   -2.9324241  
H    3.1367978   -0.0000649   -3.5160956  
H   -2.9844350    0.0001027   -0.9290164  
H    0.1083567    0.0003684   -4.0135594  
C    2.5285572    2.1210227    2.9438989  
C    1.9331703    1.6216660    4.0790748  
C    0.8903039    0.7472258    3.6520102  
C    0.8972198    0.7527806    2.2336141  
N    1.9028376    1.5986179    1.8362361  
C    0.0000000    0.0000000    1.4700000  
C   -0.9207814   -0.7726952    2.1506477  
O   -1.8198395   -1.5274828    1.4542253  
C   -0.9436862   -0.7911793    3.5655508  
O   -1.9197945   -1.6098497    4.0950179  
C   -0.0590329   -0.0485852    4.3195194  
H    2.2150357    1.8593692    5.0905303  
H    2.1533708    1.7953814    0.8841339  
H   -2.3621246   -1.9821033    2.1118817  
H   -1.8668290   -1.5649508    5.0545920  
H   -0.1007624   -0.0827977    5.4019087  
H    3.3491200    2.8096064    2.8367138  
