64

C    9.7486771   -0.7144897   -2.4123942  
C   10.9552864   -0.4653826   -3.0243652  
C   10.6999144    0.4429798   -4.0940674  
C    9.3078561    0.7150667   -4.0856838  
N    8.7600214   -0.0052204   -3.0533667  
C    8.6996952    1.5744848   -5.0056453  
C    9.5116454    2.1703192   -5.9511066  
O    8.9697567    3.0185102   -6.8730300  
C   10.9026896    1.9110936   -5.9758778  
O   11.5749662    2.5798393   -6.9779590  
C   11.5032937    1.0631575   -5.0687912  
H   11.9027772   -0.8874146   -2.7360210  
H    7.6392674    1.7858945   -5.0046580  
H    9.6996975    3.3187720   -7.4300703  
H   12.5076245    2.3498565   -6.9244714  
H   12.5711810    0.8837783   -5.1125733  
H    9.5148450   -1.3430984   -1.5702942  
C    6.6962559   -0.0006584    0.9128043  
C    7.6449137   -0.0016133   -0.0834455  
C    6.9440364   -0.0023813   -1.3257701  
C    5.5585247   -0.0015568   -1.0219874  
N    5.4432390   -0.0024702    0.3459766  
C    4.5679461   -0.0016854   -2.0086701  
C    4.9836054   -0.0023571   -3.3260176  
O    4.0581873   -0.0021607   -4.3293195  
C    6.3614227   -0.0035603   -3.6491825  
O    6.6142428   -0.0045344   -5.0054365  
C    7.3392016   -0.0037074   -2.6763132  
H    8.7109485   -0.0028460    0.0667588  
H    4.5782209    0.0083751    0.8554932  
H    4.5542211   -0.0030159   -5.1583030  
H    7.5672638   -0.0052861   -5.1371684  
H    6.8142878   -0.0002736    1.9828640  
C    3.1301149   -0.0010311   -1.7028252  
C    2.5367768   -0.0002767   -0.4864665  
C    1.1089904    0.0001028   -0.7656183  
C    1.0177872   -0.0004148   -2.2415132  
N    2.1993578   -0.0011611   -2.7963820  
C   -0.2459209   -0.0002877   -2.9257118  
C   -1.3675319   -0.0000605   -2.1698524  
O   -2.6129313    0.0000867   -2.6748490  
C   -1.3083584    0.0000910   -0.6783232  
O   -2.3693261    0.0004206   -0.0541692  
C    0.0000000    0.0000000    0.0000000  
H    3.0096017   -0.0001007    0.4807525  
H   -0.2829630   -0.0004687   -4.0053125  
H   -3.1967441    0.0002094   -1.8949034  
C    2.5285572    2.1210227    2.9438989  
C    1.9331703    1.6216660    4.0790748  
C    0.8903039    0.7472258    3.6520102  
C    0.8972198    0.7527806    2.2336141  
N    1.9028376    1.5986179    1.8362361  
C    0.0000000    0.0000000    1.4700000  
C   -0.9207814   -0.7726952    2.1506477  
O   -1.8198395   -1.5274828    1.4542253  
C   -0.9436862   -0.7911793    3.5655508  
O   -1.9197945   -1.6098497    4.0950179  
C   -0.0590329   -0.0485852    4.3195194  
H    2.2150357    1.8593692    5.0905303  
H    2.1533708    1.7953814    0.8841339  
H   -2.3621246   -1.9821033    2.1118817  
H   -1.8668290   -1.5649508    5.0545920  
H   -0.1007624   -0.0827977    5.4019087  
H    3.3491200    2.8096064    2.8367138  
