60

C    5.1283073   -3.7059925    0.5274229  
C    4.0808106   -3.0726362   -0.1003334  
C    2.8861835   -3.4944879    0.5550351  
C    3.2705585   -4.3924689    1.5835349  
N    4.6383925   -4.4999780    1.5378292  
C    2.3474954   -5.0063090    2.4355582  
C    1.0121057   -4.7079769    2.2460572  
O    0.0686749   -5.2792517    3.0501701  
C    0.6088717   -3.8147731    1.2250746  
O   -0.7556088   -3.6205062    1.1634584  
C    1.5189264   -3.2090492    0.3839892  
H    5.1974506   -5.0603428    2.1554259  
H    2.6340109   -5.6917339    3.2212455  
H   -0.7855831   -4.9410041    2.7516802  
H   -0.9431795   -3.0048152    0.4483740  
H    1.1802241   -2.5293800   -0.3891918  
H    6.1860225   -3.6552952    0.3334479  
C    4.1985335   -2.1423497   -1.2324147  
C    5.3247420   -1.7348284   -1.8626215  
C    4.8654771   -0.8236651   -2.8996159  
C    3.3948139   -0.7971454   -2.7478598  
N    2.9980300   -1.5681518   -1.7721032  
C    2.5562217   -0.0001543   -3.6003001  
C    3.1594329    0.7371398   -4.5604401  
O    2.5003396    1.5262941   -5.4258146  
C    4.6414690    0.7318293   -4.7384888  
O    5.1222590    1.4271719   -5.6332291  
C    5.4799815   -0.0940140   -3.8514695  
H    6.3415678   -2.0175420   -1.6499845  
H    3.1964043    1.9185703   -5.9832783  
H    6.5493676   -0.0702000   -4.0129497  
C    0.0000000    0.0000000    0.0000000  
C    1.0541688   -0.0001719   -0.8560391  
C    0.5103141   -0.0000449   -2.1935955  
C   -0.9576367    0.0002461   -2.0455733  
N   -1.2018459   -0.0001392   -0.6915970  
C   -1.8348306    0.0008319   -3.0810611  
C   -1.2972842    0.0009739   -4.4314605  
O   -2.0050664    0.0014267   -5.4301321  
C    0.2542628    0.0004190   -4.6117571  
O    0.7184677    0.0002263   -5.7439119  
C    1.0974556    0.0000880   -3.4189127  
H    2.0940752   -0.0005479   -0.5817978  
H   -2.9081050    0.0011669   -2.9507065  
H   -2.1128195    0.0014911   -0.2706793  
C    3.2798086   -0.0005857    2.9199648  
C    2.5571146   -0.0005566    4.0696553  
C    1.1637436   -0.0001548    3.6910360  
C    1.1336965    0.0000200    2.2159470  
N    2.4483514    0.0001428    1.8102719  
C    0.0000000    0.0000000    1.4700000  
C   -1.2757367    0.0000186    2.1664417  
O   -2.3524596    0.0000640    1.5842315  
C   -1.2676493    0.0000873    3.7284083  
O   -2.3355761    0.0004100    4.3257297  
C    0.0181563   -0.0001760    4.4216297  
H    2.9547357   -0.0006076    5.0689105  
H    0.0150794   -0.0003319    5.5031631  
H    4.3498549   -0.0008612    2.7900019  
H    2.7563627   -0.0012824    0.8551938  
