62

C    3.4556963   -0.7073166   -7.2628661  
C    4.7324828   -0.4569577   -7.7096371  
C    4.6201413    0.4512337   -8.8037888  
C    3.2389673    0.7219310   -8.9798787  
N    2.5599431    0.0010163   -8.0291811  
C    2.7571583    1.5808144   -9.9723342  
C    3.6865894    2.1775330  -10.8019507  
O    3.2707416    3.0252556  -11.7875726  
C    5.0689171    1.9196974  -10.6422398  
O    5.8673319    2.5891924  -11.5464807  
C    5.5449280    1.0722897   -9.6635467  
H    5.6338546   -0.8780671   -7.2983115  
H    1.7057325    1.7911662  -10.1118265  
H    4.0677331    3.3262891  -12.2430369  
H    6.7849172    2.3601360  -11.3699167  
H    6.6093843    0.8939794   -9.5654870  
H    3.1130129   -1.3362248   -6.4591245  
C    0.0139742    0.0003878   -4.4216236  
C    1.0657034    0.0004481   -5.2806583  
C    0.5180456    0.0007119   -6.6166620  
C   -0.9494782    0.0008303   -6.4644642  
N   -1.1898343    0.0002247   -5.1097987  
C   -1.8296145    0.0014750   -7.4974525  
C   -1.2959120    0.0018674   -8.8493762  
O   -2.0065327    0.0023914   -9.8460291  
C    0.2551158    0.0014984   -9.0340855  
O    0.7160979    0.0015168  -10.1675560  
C    1.1016987    0.0010820   -7.8436448  
H    2.1063859    0.0001397   -5.0093769  
H   -2.9025137    0.0016806   -7.3640447  
H   -2.0996068    0.0017001   -4.6862910  
C    3.2798085    0.0005856   -1.4499646  
C    2.5571146    0.0005565   -2.5996553  
C    1.1637435    0.0001548   -2.2210360  
C    1.1336964   -0.0000200   -0.7459470  
N    2.4483515   -0.0001429   -0.3402716  
C    0.0000000    0.0000000    0.0000000  
C   -1.2757368   -0.0000187   -0.6964415  
O   -2.3524594   -0.0000640   -0.1142314  
C   -1.2676495   -0.0000873   -2.2584081  
O   -2.3355761   -0.0004101   -2.8557295  
C    0.0181563    0.0001759   -2.9516296  
H    2.9547358    0.0006075   -3.5989104  
H    4.3498547    0.0008611   -1.3200019  
H    2.7563628    0.0012823    0.6148064  
C    0.8676693    0.7151171    2.2619005  
C    0.5875920    0.4624972    3.5848544  
C   -0.5048400   -0.4542819    3.6114698  
C   -0.8517165   -0.7276451    2.2635546  
N    0.0000000    0.0000000    1.4700000  
C   -1.8902865   -1.5946756    1.9108239  
C   -2.5912627   -2.1969500    2.9375057  
O   -3.6148162   -3.0527051    2.6493466  
C   -2.2603868   -1.9365747    4.2886322  
O   -3.0513550   -2.6123276    5.1947621  
C   -1.2361111   -1.0811317    4.6373480  
H    1.1060808    0.8876438    4.4271209  
H   -2.1597133   -1.8070987    0.8854031  
H   -3.9636755   -3.3565188    3.4974381  
H   -2.7621927   -2.3810384    6.0827341  
H   -1.0058879   -0.9010589    5.6809233  
H    1.6167816    1.3499334    1.8205408  
