62

C   -0.6293911   -0.3803596   -9.5491252  
C   -0.9677439    0.8355932   -9.0019102  
C   -0.9567310    1.7876749  -10.0639931  
C   -0.6019027    1.0885229  -11.2460281  
N   -0.4082817   -0.2251443  -10.8975938  
C   -0.4938041    1.7146564  -12.4914444  
C   -0.7488398    3.0712355  -12.5446240  
O   -0.6580632    3.7323614  -13.7352902  
C   -1.1038877    3.7862804  -11.3760919  
O   -1.3259004    5.1305388  -11.5929424  
C   -1.2104541    3.1692854  -10.1470740  
H   -0.1578608   -0.9627278  -11.5310300  
H   -0.2236426    1.1874567  -13.3960311  
H   -0.8720701    4.6563267  -13.5515704  
H   -1.5604066    5.5392638  -10.7541618  
H   -1.4841069    3.7431318   -9.2694103  
H   -0.5268921   -1.3458038   -9.0839692  
C    0.8348000   -0.7155476   -5.2158233  
C    0.5509172   -0.4631666   -6.5380112  
C   -0.5417432    0.4534220   -6.5616508  
C   -0.8848304    0.7269205   -5.2127931  
N   -0.0307352   -0.0004646   -4.4215603  
C   -1.9225412    1.5938243   -4.8572340  
C   -2.6265387    2.1958309   -5.8820042  
O   -3.6494143    3.0514525   -5.5910578  
C   -2.2994634    1.9353173   -7.2340292  
O   -3.0931217    2.6108037   -8.1380024  
C   -1.2760373    1.0799989   -7.5855344  
H    1.0670805   -0.8883460   -7.3816882  
H   -2.1890860    1.8063496   -3.8310816  
H   -4.0007374    3.3550845   -6.4381967  
H   -2.8064473    2.3794365   -9.0267601  
H    1.5852737   -1.3501720   -4.7765053  
C    3.2573670   -0.0002920   -1.5109380  
C    2.5379468   -0.0001709   -0.3591961  
C    1.1435043    0.0000332   -0.7338500  
C    1.1092609   -0.0000082   -2.2088477  
N    2.4227562    0.0001909   -2.6182613  
C   -0.0265532   -0.0002522   -2.9515663  
C   -1.3003035   -0.0002639   -2.2514981  
O   -2.3786784   -0.0004131   -2.8306429  
C   -1.2877725    0.0000312   -0.6895608  
O   -2.3539958    0.0003307   -0.0892036  
C    0.0000000    0.0000000    0.0000000  
H    2.9384091   -0.0000369    0.6389239  
H    4.3270394   -0.0004765   -1.6439446  
H    2.7280494   -0.0013406   -3.5742113  
C    2.3971438    2.0127888    3.1728260  
C    1.9431056    1.6308205    1.9564670  
C    0.8496017    0.7127664    2.2356185  
C    0.7794028    0.6545384    3.7115134  
N    1.6840587    1.4146091    4.2663826  
C   -0.1885723   -0.1578550    4.3957118  
C   -1.0476298   -0.8789867    3.6398520  
O   -2.0015663   -1.6796266    4.1448486  
C   -1.0022026   -0.8410666    2.1483229  
O   -1.8147390   -1.5232959    1.5241687  
C    0.0000000    0.0000000    1.4700000  
H    2.3054237    1.9346118    0.9892483  
H   -0.2170646   -0.1815267    5.4753125  
H   -2.4487139   -2.0549881    3.3649027  
H    3.2048689    2.6911772    3.3971983  
