60

C   -7.3371757    3.0771900    0.5181373  
C   -8.6171200    2.9725415    1.0113505  
C   -9.0091850    1.6088270    0.8658589  
C   -7.9181514    0.9230527    0.2731645  
N   -6.9202186    1.8443968    0.0734841  
C   -7.9520630   -0.4441769   -0.0172189  
C   -9.1083199   -1.1317066    0.2967121  
O   -9.1949847   -2.4684565    0.0347927  
C  -10.2076747   -0.4650130    0.8881121  
O  -11.2862767   -1.2874178    1.1403269  
C  -10.1750212    0.8838299    1.1746131  
H   -9.1972967    3.7800259    1.4240944  
H   -7.1239523   -0.9726768   -0.4690178  
H  -10.0725905   -2.7475419    0.3266555  
H  -11.9846137   -0.7594103    1.5392460  
H  -11.0326991    1.3671930    1.6276340  
H   -6.6892190    3.9339603    0.4470394  
C   -4.3991028    2.0926370   -0.0704356  
C   -3.3610094    1.6305297   -0.8140045  
C   -3.9159994    0.7341915   -1.8006144  
C   -5.3729682    0.7118418   -1.5692442  
N   -5.6007886    1.5556535   -0.5067144  
C   -6.2559171   -0.0180489   -2.2968193  
C   -5.7365717   -0.8363895   -3.3799325  
O   -6.4507762   -1.5294000   -4.0926375  
C   -4.1968645   -0.8281647   -3.6426857  
O   -3.7479705   -1.5134097   -4.5516380  
C   -3.3460097   -0.0004262   -2.7913647  
H   -2.3247245    1.8880235   -0.6858468  
H   -7.3209339   -0.0201814   -2.1106904  
H   -4.3873341    2.7801298    0.7596881  
C    0.0000000    0.0000000    0.0000000  
C    1.0662919   -0.0000103   -0.8334272  
C    0.4961868    0.0000066   -2.1718889  
C   -0.9663860   -0.0000849   -1.9540248  
N   -1.2632775   -0.0000084   -0.6828659  
C   -1.8985364   -0.0000515   -3.0477258  
C   -1.3925778    0.0004567   -4.3020543  
O   -2.1456385    0.0005412   -5.4151314  
C    0.0786229    0.0009326   -4.5544999  
O    0.4683756    0.0012594   -5.7221104  
C    1.0143162    0.0008443   -3.4159034  
H    2.1107195    0.0000631   -0.5721869  
H   -1.5042277    0.0009692   -6.1484420  
H    2.0724151    0.0013151   -3.6409746  
C    3.2573670    0.0002920    2.9809380  
C    2.5379467    0.0001709    1.8291961  
C    1.1435042   -0.0000331    2.2038498  
C    1.1092607    0.0000083    3.6788474  
N    2.4227561   -0.0001909    4.0882609  
C   -0.0265533    0.0002524    4.4215661  
C   -1.3003036    0.0002640    3.7214979  
O   -2.3786784    0.0004133    4.3006425  
C   -1.2877726   -0.0000311    2.1595606  
O   -2.3539958   -0.0003306    1.5592035  
C    0.0000000    0.0000000    1.4700000  
H    2.9384090    0.0000368    0.8310761  
H   -0.0296291    0.0004086    5.5027230  
H    4.3270393    0.0004765    3.1139444  
H    2.7280493    0.0013407    5.0442112  
