62

C    2.8635264   -0.6498012   -6.6053370  
C    2.1189241    0.0763075   -7.5057820  
C    3.0392965    0.8118374   -8.3098409  
C    4.3422525    0.4913261   -7.8499460  
N    4.1993011   -0.3971131   -6.8131919  
C    5.4991220    1.0360676   -8.4153645  
C    5.3377369    1.9202410   -9.4643509  
O    6.4337803    2.4812776  -10.0533672  
C    4.0459440    2.2527984   -9.9371016  
O    4.0516445    3.1475343  -10.9872253  
C    2.9042111    1.7159879   -9.3796010  
H    4.9533391   -0.8105501   -6.2950437  
H    6.4950271    0.7959630   -8.0693504  
H    6.1020917    3.0591105  -10.7529069  
H    3.1409454    3.3185302  -11.2460522  
H    1.9281704    1.9897095   -9.7628759  
H    2.5474062   -1.3268537   -5.8303362  
C   -1.2456296    0.0472577   -4.5828766  
C    0.0058404    0.0519619   -5.0980275  
C   -0.1823949    0.0659870   -6.5405493  
C   -1.6495596    0.0680016   -6.7249606  
N   -2.2780918    0.0571383   -5.5809245  
C   -2.2524138    0.0807966   -8.0293725  
C   -1.4270886    0.0914993   -9.1008472  
O   -1.8522588    0.1040203  -10.3756471  
C    0.0577063    0.0901652   -8.9474068  
O    0.7477518    0.1002103   -9.9666992  
C    0.6518707    0.0768892   -7.5988091  
H    0.9411980    0.0466696   -4.5649666  
H   -3.3275062    0.0817756   -8.1346577  
H   -1.0369298    0.1094333  -10.9089037  
C    1.1243418    0.0099155   -0.7919003  
C    0.7474093    0.0234033   -2.1148542  
C   -0.6787365    0.0234953   -2.1414700  
C   -1.1201738    0.0099357   -0.7935546  
N    0.0000000    0.0000000    0.0000000  
C   -2.4730811    0.0065398   -0.4408241  
C   -3.3971945    0.0173300   -1.4675058  
O   -4.7313507    0.0149490   -1.1793472  
C   -2.9763626    0.0305537   -2.8186325  
O   -4.0166449    0.0397860   -3.7247623  
C   -1.6418538    0.0336381   -3.1673481  
H    1.4178738    0.0310004   -2.9571209  
H   -2.8160170   -0.0039189    0.5845965  
H   -5.1938800    0.0234412   -2.0274384  
H   -3.6464643    0.0484782   -4.6127344  
H    2.1062469    0.0051381   -0.3505407  
C    2.3971438    2.0127888    3.1728260  
C    1.9431056    1.6308205    1.9564670  
C    0.8496017    0.7127664    2.2356185  
C    0.7794028    0.6545384    3.7115134  
N    1.6840587    1.4146091    4.2663826  
C   -0.1885723   -0.1578550    4.3957118  
C   -1.0476298   -0.8789867    3.6398520  
O   -2.0015663   -1.6796266    4.1448486  
C   -1.0022026   -0.8410666    2.1483229  
O   -1.8147390   -1.5232959    1.5241687  
C    0.0000000    0.0000000    1.4700000  
H    2.3054237    1.9346118    0.9892483  
H   -0.2170646   -0.1815267    5.4753125  
H   -2.4487139   -2.0549881    3.3649027  
H    3.2048689    2.6911772    3.3971983  
