62

C    0.8704607   -0.7166978   -5.2245476  
C    0.0139746    0.0003883   -4.4216235  
C   -0.8565292    0.7277033   -5.2863984  
C   -0.4806003    0.4117082   -6.6170942  
N    0.5722077   -0.4662428   -6.5435119  
C   -1.1267213    0.9506226   -7.7337360  
C   -2.1715667    1.8242144   -7.5028414  
O   -2.8373735    2.3791914   -8.5572204  
C   -2.5611818    2.1521250   -6.1824277  
O   -3.6183169    3.0362509   -6.1181717  
C   -1.9240431    1.6210600   -5.0803612  
H    1.0434888   -0.8745196   -7.3303952  
H   -0.8449224    0.7139142   -8.7504759  
H   -3.5192187    2.9499905   -8.1796760  
H   -3.8180642    3.2047228   -5.1922548  
H   -2.2446704    1.8910067   -4.0809587  
H    1.6714293   -1.3858893   -4.9607472  
C    3.2798087    0.0005858   -1.4499643  
C    2.5571149    0.0005569   -2.5996548  
C    1.1637440    0.0001551   -2.2210358  
C    1.1336966   -0.0000198   -0.7459468  
N    2.4483512   -0.0001426   -0.3402714  
C    0.0000000    0.0000000    0.0000000  
C   -1.2757369   -0.0000185   -0.6964416  
O   -2.3524599   -0.0000639   -0.1142315  
C   -1.2676492   -0.0000870   -2.2584080  
O   -2.3355760   -0.0004099   -2.8557298  
C    0.0181565    0.0001762   -2.9516296  
H    2.9547360    0.0006079   -3.5989102  
H    2.7563627    0.0012824    0.6148067  
C    6.6001527    0.0019438   -4.3712983  
C    7.6333565    0.0021454   -3.4630268  
C    7.0453170    0.0020507   -2.1634845  
C    5.6383377    0.0015007   -2.3433035  
N    5.4022911    0.0034004   -3.6956701  
C    4.7390849    0.0009618   -1.2727274  
C    5.2698381    0.0006713    0.0026071  
O    4.4369620   -0.0002070    1.0839629  
C    6.6708717    0.0015864    0.2024139  
O    7.0428737    0.0015770    1.5309311  
C    7.5585986    0.0023916   -0.8532687  
H    8.6818886    0.0034422   -3.7071001  
H    4.4955262   -0.0070440   -4.1265415  
H    5.0045010    0.0000329    1.8657325  
H    8.0038197    0.0021953    1.5776988  
H    8.6265865    0.0032648   -0.6692011  
H    6.6229035    0.0023221   -5.4476078  
C    0.8400945    0.7047457    2.2710304  
C    0.0000000    0.0000000    1.4700000  
C   -0.8844236   -0.7423113    2.3369512  
C   -0.4878984   -0.4098547    3.7186280  
N    0.5629682    0.4714286    3.6095011  
C   -1.0836927   -0.9095027    4.8308716  
C   -2.1891196   -1.8367527    4.6554461  
O   -2.7906899   -2.3413415    5.5944904  
C   -2.6257283   -2.2031529    3.2011665  
O   -3.5549479   -2.9829990    3.0410059  
C   -1.9068976   -1.5999348    2.0816745  
H   -0.7774656   -0.6525820    5.8354244  
H   -2.2155208   -1.8586617    1.0779135  
H    1.6384792    1.3747609    1.9961646  
H    1.0518368    0.8833920    4.3830260  
