60

C    1.3124631   -2.3763719   -7.7778212  
C    1.9101740   -2.5882750   -8.9986018  
C    1.8343809   -1.3590703   -9.7182620  
C    1.1745442   -0.4253178   -8.8788292  
N    0.8696306   -1.0761646   -7.7091951  
C    0.9255456    0.8950512   -9.2653707  
C    1.3506579    1.2798972  -10.5220933  
O    1.1334440    2.5577177  -10.9498830  
C    2.0104024    0.3626511  -11.3742743  
O    2.3714571    0.8975977  -12.5936252  
C    2.2561396   -0.9401558  -10.9937051  
H    2.3460937   -3.5151338   -9.3301140  
H    0.4230112    1.6115462   -8.6303150  
H    1.5028257    2.6139121  -11.8407625  
H    2.8108324    0.2133800  -13.1078229  
H    2.7635214   -1.6200260  -11.6681075  
H    1.1657161   -3.0502259   -6.9511738  
C    0.5157023   -0.7055390   -5.2240925  
C   -0.2963293   -0.0005341   -4.3948471  
C   -1.2098551    0.7417637   -5.2310887  
C   -0.8609897    0.4090167   -6.6254926  
N    0.1928749   -0.4724046   -6.5523132  
C   -1.4945019    0.9085670   -7.7167381  
C   -2.5931305    1.8360110   -7.5036697  
O   -3.2264754    2.3405319   -8.4216202  
C   -2.9795614    2.2027197   -6.0353372  
O   -3.9026313    2.9827310   -5.8435412  
C   -2.2228515    1.5995820   -4.9410487  
H   -1.2229387    0.6514327   -8.7311565  
H   -2.4968365    1.8585228   -3.9273394  
H    1.3229471   -1.3756270   -4.9766502  
C    3.1301146   -0.0010313   -1.7028256  
C    2.5367765   -0.0002766   -0.4864669  
C    1.1089901    0.0001027   -0.7656184  
C    1.0177865   -0.0004150   -2.2415133  
N    2.1993571   -0.0011612   -2.7963824  
C   -0.2459219   -0.0002879   -2.9257116  
C   -1.3675326   -0.0000606   -2.1698520  
O   -2.6129318    0.0000865   -2.6748483  
C   -1.3083588    0.0000910   -0.6783229  
O   -2.3693264    0.0004206   -0.0541685  
C    0.0000000    0.0000000    0.0000000  
H    3.0096016   -0.0001007    0.4807518  
H   -3.1967444    0.0002093   -1.8949026  
H    4.1849275   -0.0015114   -1.9271979  
C    2.5128556    2.1077716    2.9199648  
C    1.9592212    1.6432552    4.0696553  
C    0.8915788    0.7479214    3.6910360  
C    0.8684491    0.7287414    2.2159470  
N    1.8754542    1.5738793    1.8102719  
C    0.0000000    0.0000000    1.4700000  
C   -0.9772830   -0.8200135    2.1664417  
O   -1.8021297   -1.5120829    1.5842315  
C   -0.9711318   -0.8147624    3.7284083  
O   -1.7894187   -1.5009653    4.3257297  
C    0.0140216    0.0115358    4.4216297  
H    2.2638494    1.8988021    5.0689105  
H    0.0117648    0.0094386    5.5031631  
H    3.3327358    2.7953732    2.7900019  
H    2.1123206    1.7707734    0.8551938  
