60

C    5.0860521   -4.5614543   -4.0686714  
C    6.2885392   -4.3519732   -4.7031860  
C    6.3024952   -2.9910466   -5.1301332  
C    5.0714837   -2.4149128   -4.7244151  
N    4.3558145   -3.3961849   -4.0844612  
C    4.7405457   -1.0806252   -4.9792603  
C    5.6693514   -0.3138932   -5.6557366  
O    5.3975224    0.9951838   -5.9304005  
C    6.9029858   -0.8707846   -6.0690611  
O    7.7209994    0.0207295   -6.7319327  
C    7.2300192   -2.1870890   -5.8182277  
H    7.0602140   -5.0896472   -4.8422877  
H    3.4455219   -3.2788307   -3.6775518  
H    6.1667405    1.3407018   -6.4017662  
H    8.5324252   -0.4347923   -6.9762512  
H    8.1825370   -2.5857685   -6.1472292  
H    4.6908976   -5.4502687   -3.6073476  
C    2.8279729   -0.7071296   -3.3541665  
C    1.6707636   -0.0012343   -3.2725974  
C    1.5420222    0.7399977   -4.5050080  
C    2.7275720    0.4056549   -5.3170903  
N    3.4672605   -0.4755789   -4.5626516  
C    2.9773517    0.9038684   -6.5544653  
C    2.0143734    1.8314550   -7.1243702  
O    2.1493673    2.3348416   -8.2319255  
C    0.7517059    2.1998424   -6.2818939  
O   -0.0658607    2.9799880   -6.7511671  
C    0.5920508    1.5980569   -4.9604489  
H    3.8531179    0.6455748   -7.1334537  
H   -0.2850564    1.8581559   -4.3835992  
H    3.2676543   -1.3768500   -2.6330256  
C    1.0965514    0.0001358   -0.8010306  
C    0.0000000    0.0000000    0.0000000  
C   -1.1546565    0.0001470   -0.8669508  
C   -0.6372019    0.0003520   -2.2486278  
N    0.7342867    0.0007338   -2.1395012  
C   -1.4147744    0.0001354   -3.3608712  
C   -2.8576052   -0.0001047   -3.1854454  
O   -3.6427785   -0.0002490   -4.1244896  
C   -3.4275841   -0.0000727   -1.7311660  
O   -4.6406832    0.0000333   -1.5710049  
C   -2.4891868   -0.0001090   -0.6116739  
H   -1.0150456    0.0001617   -4.3654239  
H   -2.8919122   -0.0002919    0.3920871  
H    2.1388270    0.0000663   -0.5261650  
C    0.0000000    0.0000000    1.4700000  
C    1.0541688    0.0001722    2.3260392  
C    0.5103138    0.0000454    3.6635956  
C   -0.9576371   -0.0002459    3.5155732  
N   -1.2018458    0.0001392    2.1615969  
C   -1.8348311   -0.0008317    4.5510609  
C   -1.2972847   -0.0009736    5.9014604  
O   -2.0050672   -0.0014265    6.9001319  
C    0.2542623   -0.0004184    6.0817573  
O    0.7184670   -0.0002256    7.2139121  
C    1.0974552   -0.0000873    4.8889129  
H    2.0940752    0.0005483    2.0517982  
H   -2.9081052   -0.0011668    4.4207061  
H    2.1707277    0.0000911    5.0223670  
H   -2.1128194   -0.0014912    1.7406791  
