62

C    4.7390844    0.0009612   -1.2727295  
C    5.7457114    0.0027391   -2.2103679  
C    6.9802491    0.0028874   -1.4958638  
C    6.6612413    0.0008544   -0.1137797  
N    5.2920917    0.0016753   -0.0135510  
C    7.6369665    0.0001118    0.8875944  
C    8.9588074    0.0011387    0.4864546  
O    9.9518658    0.0001278    1.4228549  
C    9.2971110    0.0035435   -0.8877220  
O   10.6560644    0.0047303   -1.1256038  
C    8.3350583    0.0045506   -1.8761448  
H    5.6072448    0.0049039   -3.2779894  
H    4.7730889   -0.0099227    0.8457994  
H    7.4003706   -0.0012921    1.9426884  
H   10.7862571    0.0014113    0.9359723  
H   10.7982738    0.0063138   -2.0771173  
H    8.6245433    0.0065795   -2.9204976  
C    3.2798077    0.0005856   -1.4499659  
C    2.5571132    0.0005565   -2.5996562  
C    1.1637425    0.0001548   -2.2210364  
C    1.1336957   -0.0000200   -0.7459472  
N    2.4483508   -0.0001429   -0.3402728  
C    0.0000000    0.0000000    0.0000000  
C   -1.2757370   -0.0000187   -0.6964410  
O   -2.3524597   -0.0000640   -0.1142306  
C   -1.2676501   -0.0000873   -2.2584079  
O   -2.3355772   -0.0004101   -2.8557287  
C    0.0181552    0.0001759   -2.9516296  
H    2.9547343    0.0006074   -3.5989115  
H    2.7563624    0.0012823    0.6148054  
C    0.8291928   -0.6854809   -5.2562371  
C    0.0139724    0.0003878   -4.4216237  
C   -0.8773510    0.7460787   -5.2968307  
C   -0.4474322    0.3823398   -6.6641083  
N    0.5525061   -0.4565929   -6.6466435  
C   -1.0903979    0.9189730   -7.8318863  
C   -2.1164707    1.7795502   -7.6423708  
O   -2.8066734    2.3561393   -8.6409724  
C   -2.5739420    2.1659016   -6.2750324  
O   -3.5141107    2.9544342   -6.1774622  
C   -1.8981914    1.6018691   -5.0930203  
H   -0.7553229    0.6359275   -8.8190639  
H   -3.4699047    2.9130227   -8.1947015  
H   -2.2596584    1.9067676   -4.1200820  
H    1.6314351   -1.3578974   -4.9969361  
C    0.8676693    0.7151171    2.2619005  
C    0.5875920    0.4624972    3.5848544  
C   -0.5048400   -0.4542819    3.6114698  
C   -0.8517165   -0.7276451    2.2635546  
N    0.0000000    0.0000000    1.4700000  
C   -1.8902865   -1.5946756    1.9108239  
C   -2.5912627   -2.1969500    2.9375057  
O   -3.6148162   -3.0527051    2.6493466  
C   -2.2603868   -1.9365747    4.2886322  
O   -3.0513550   -2.6123276    5.1947621  
C   -1.2361111   -1.0811317    4.6373480  
H    1.1060808    0.8876438    4.4271209  
H   -2.1597133   -1.8070987    0.8854031  
H   -3.9636755   -3.3565188    3.4974381  
H   -2.7621927   -2.3810384    6.0827341  
H   -1.0058879   -0.9010589    5.6809233  
H    1.6167816    1.3499334    1.8205408  
