62

C   -0.1340990   -3.0240375  -10.3497884  
C   -0.1691023   -2.3420522   -9.1555778  
C   -0.4331608   -0.9747795   -9.4645093  
C   -0.5510287   -0.8820304  -10.8749818  
N   -0.3621254   -2.1438765  -11.3816156  
C   -0.8118961    0.3228696  -11.5344905  
C   -0.9567107    1.4547061  -10.7559330  
O   -1.2127356    2.6573862  -11.3484079  
C   -0.8422241    1.3824635   -9.3472141  
O   -1.0114877    2.5958263   -8.7128295  
C   -0.5846148    0.1941865   -8.6959373  
H   -0.0212797   -2.7763893   -8.1816717  
H   -0.3987530   -2.3902490  -12.3542101  
H   -0.9027447    0.4002407  -12.6091836  
H   -1.2760595    3.3053711  -10.6347054  
H   -0.9188578    2.4590329   -7.7650369  
H    0.0369016   -4.0684112  -10.5472760  
C    2.1709840   -2.0097061   -6.1391753  
C    1.7780128   -1.6284990   -4.9015026  
C    0.6718280   -0.7104844   -5.1253423  
C    0.5282240   -0.6514437   -6.5958784  
N    1.4042460   -1.4110422   -7.1955325  
C   -0.4727385    0.1611592   -7.2305726  
C   -1.2932056    0.8817145   -6.4324696  
O   -2.2712229    1.6824661   -6.8888896  
C   -1.1735672    0.8429685   -4.9450740  
O   -1.9541225    1.5247035   -4.2808516  
C   -0.1387079    0.0017019   -4.3179684  
H    2.1880842   -1.9327664   -3.9536955  
H   -2.6790397    2.0573117   -6.0874357  
H    2.9666381   -2.6878246   -6.4038701  
C    3.3041273    0.0001178   -1.5420428  
C    2.5845373   -0.0004780   -0.3695851  
C    1.2040007   -0.0000007   -0.7283589  
C    1.1422374    0.0006038   -2.1454372  
N    2.4348641    0.0026111   -2.6077464  
C   -0.0655179    0.0008799   -2.8497918  
C   -1.2321766    0.0002325   -2.1101402  
O   -2.4392814    0.0001148   -2.7472522  
C   -1.1911209   -0.0000007   -0.6955266  
O   -2.4371528   -0.0002320   -0.1032862  
C    0.0000000    0.0000000    0.0000000  
H    3.0031533   -0.0000660    0.6222584  
H    2.7054631   -0.0071097   -3.5745261  
H   -3.1132988   -0.0000648   -2.0551787  
H   -2.3200282   -0.0004072    0.8516409  
H    4.3686625    0.0004073   -1.7024290  
C    0.8175213    0.6860729    2.3021913  
C    0.0000000    0.0000000    1.4700000  
C   -0.8887526   -0.7456559    2.3478473  
C   -0.4549825   -0.3816753    3.7138435  
N    0.5448156    0.4573574    3.6934124  
C   -1.0945674   -0.9182058    4.8835240  
C   -2.1210866   -1.7789155    4.6970523  
O   -2.8083856   -2.3554314    5.6976972  
C   -2.5824069   -2.1655116    3.3310774  
O   -3.5227682   -2.9541547    3.2362962  
C   -1.9100805   -1.6015804    2.1470656  
H   -0.7567140   -0.6349833    5.8697035  
H   -3.4728268   -2.9124471    5.2533954  
H   -2.2742832   -1.9066565    1.1752040  
H    1.6189533    1.3585343    2.0405121  
