64

C    1.5437655    0.0010881   -7.9352640  
C    0.3710685    0.0028830   -7.2160657  
C   -0.6971004    0.0036900   -8.1613772  
C   -0.1101334    0.0020228   -9.4526533  
N    1.2516711    0.0024184   -9.2791495  
C   -0.8677031    0.0019501  -10.6277601  
C   -2.2428625    0.0032833  -10.4969496  
O   -3.0303174    0.0029260  -11.6118169  
C   -2.8471716    0.0053315   -9.2172532  
O   -4.2263041    0.0068929   -9.2538179  
C   -2.1004324    0.0056777   -8.0575524  
H    0.2948880    0.0046360   -6.1422004  
H    1.9309036   -0.0090596  -10.0184004  
H   -0.4264080    0.0008278  -11.6149083  
H   -3.9447418    0.0043229  -11.3002229  
H   -4.5545334    0.0081987   -8.3494572  
H   -2.5914323    0.0074464   -7.0914293  
C    3.2973507   -0.0000930   -3.8752373  
C    4.6195925   -0.0010202   -4.2548994  
C    4.6432641   -0.0012929   -5.6810971  
C    3.2943728   -0.0002089   -6.1197511  
N    2.5030707   -0.0014509   -4.9979422  
C    2.9388349    0.0001621   -7.4719279  
C    3.9636641   -0.0002676   -8.3981590  
O    3.6727434    0.0004166   -9.7317169  
C    5.3157201   -0.0017235   -7.9801162  
O    6.2197482   -0.0024057   -9.0222666  
C    5.6672022   -0.0023634   -6.6463297  
H    5.4632736   -0.0025527   -3.5861744  
H    1.4991494    0.0094730   -4.9958708  
H    4.5199206   -0.0003434  -10.1959952  
H    7.1085242   -0.0033560   -8.6539189  
H    6.7114258   -0.0036625   -6.3563737  
C    3.3321175    0.0004715   -1.3379331  
C    2.6974186    0.0000117   -2.5332308  
C    1.2800441   -0.0002117   -2.2052838  
C    1.2395036    0.0000644   -0.7271292  
N    2.4394065    0.0005460   -0.2131033  
C    0.0000000    0.0000000    0.0000000  
C   -1.1468701    0.0000635   -0.7169542  
O   -2.3742199    0.0000073   -0.1695491  
C   -1.1388766    0.0001607   -2.2096354  
O   -2.2206227    0.0000905   -2.7970412  
C    0.1454526    0.0001817   -2.9324239  
H   -2.9844344    0.0001026   -0.9290168  
H    0.1083579    0.0003683   -4.0135594  
H    4.3940038    0.0007619   -1.1498630  
C    2.5311839    2.1237619    3.0120429  
C    1.9795631    1.6616747    1.8395852  
C    0.9223175    0.7739173    2.1983588  
C    0.8753926    0.7337535    3.6154372  
N    1.8668922    1.5631002    4.0777464  
C   -0.0496243   -0.0427881    4.3197917  
C   -0.9437528   -0.7922060    3.5801400  
O   -1.8685244   -1.5680278    4.2172520  
C   -0.9124520   -0.7656372    2.1655264  
O   -1.8671164   -1.5663939    1.5732860  
C    0.0000000    0.0000000    1.4700000  
H    2.3005065    1.9304404    0.8477417  
H    2.0679347    1.7444845    5.0445261  
H   -0.0904770   -0.0778569    5.3997470  
H   -2.3849669   -2.0011402    3.5251786  
H   -1.7775064   -1.4909735    0.6183591  
H    3.3468514    2.8078103    3.1724291  
