62

C    1.1793678    0.0025701   -7.9489253  
C    0.0376577    0.0043272   -7.1814865  
C   -1.0689733    0.0053549   -8.0814677  
C   -0.5363221    0.0038551   -9.3960806  
N    0.8315294    0.0041338   -9.2794722  
C   -1.3421989    0.0040194  -10.5385999  
C   -2.7107132    0.0054219  -10.3506017  
O   -3.5439392    0.0052940  -11.4316886  
C   -3.2611740    0.0073057   -9.0468357  
O   -4.6406322    0.0089634   -9.0259017  
C   -2.4667601    0.0074180   -7.9192577  
H    0.0062900    0.0059140   -6.1053793  
H    1.4793674   -0.0072709  -10.0463856  
H   -0.9424203    0.0030256  -11.5432791  
H   -4.4445856    0.0067011  -11.0822620  
H   -4.9308928    0.0101465   -8.1086493  
H   -2.9170764    0.0090649   -6.9335141  
C    3.1006060    0.0006268   -3.9654947  
C    4.4058792   -0.0003266   -4.3999233  
C    4.3701025   -0.0003735   -5.8258687  
C    3.0041047    0.0008689   -6.2079349  
N    2.2602341   -0.0005001   -5.0541280  
C    2.5925322    0.0014788   -7.5441225  
C    3.5778764    0.0011295   -8.5122524  
O    3.2316408    0.0020454   -9.8325298  
C    4.9461773   -0.0004816   -8.1509114  
O    5.8059951   -0.0010569   -9.2298264  
C    5.3529314   -0.0013572   -6.8329292  
H    5.2766923   -0.0020210   -3.7669344  
H    1.2572718    0.0104893   -5.0102246  
H    4.0587363    0.0013039  -10.3317057  
H    6.7093478   -0.0021242   -8.8988329  
H    6.4083298   -0.0027710   -6.5867368  
C    3.2798085    0.0005859   -1.4499648  
C    2.5571146    0.0005569   -2.5996553  
C    1.1637437    0.0001551   -2.2210359  
C    1.1336966   -0.0000198   -0.7459471  
N    2.4483513   -0.0001427   -0.3402720  
C    0.0000000    0.0000000    0.0000000  
C   -1.2757366   -0.0000185   -0.6964416  
O   -2.3524595   -0.0000640   -0.1142313  
C   -1.2676493   -0.0000870   -2.2584084  
O   -2.3355759   -0.0004098   -2.8557296  
C    0.0181563    0.0001763   -2.9516295  
H    0.0150795    0.0003323   -4.0331630  
H    4.3498549    0.0008614   -1.3200020  
H    2.7563627    0.0012824    0.6148062  
C    2.3971438    2.0127888    3.1728260  
C    1.9431056    1.6308205    1.9564670  
C    0.8496017    0.7127664    2.2356185  
C    0.7794028    0.6545384    3.7115134  
N    1.6840587    1.4146091    4.2663826  
C   -0.1885723   -0.1578550    4.3957118  
C   -1.0476298   -0.8789867    3.6398520  
O   -2.0015663   -1.6796266    4.1448486  
C   -1.0022026   -0.8410666    2.1483229  
O   -1.8147390   -1.5232959    1.5241687  
C    0.0000000    0.0000000    1.4700000  
H    2.3054237    1.9346118    0.9892483  
H   -0.2170646   -0.1815267    5.4753125  
H   -2.4487139   -2.0549881    3.3649027  
H    3.2048689    2.6911772    3.3971983  
