60

C    9.8810103    0.7107566   -0.4143744  
C   11.2336914    0.4604730   -0.4054632  
C   11.4819853   -0.4479534    0.6658495  
C   10.2323945   -0.7188652    1.2798992  
N    9.2819200    0.0021532    0.6006729  
C   10.0981999   -1.5780109    2.3747275  
C   11.2463328   -2.1747762    2.8582979  
O   11.1723247   -3.0227516    3.9252910  
C   12.5023217   -1.9167294    2.2593664  
O   13.5506901   -2.5863033    2.8559707  
C   12.6354926   -1.0690626    1.1794347  
H   11.9531360    0.8817820   -1.0865598  
H    9.1487059   -1.7885267    2.8473235  
H   12.0739154   -3.3237737    4.0978759  
H   14.3615510   -2.3570923    2.3916731  
H   13.6107393   -0.8905948    0.7418054  
H    9.2963524    1.3397824   -1.0635748  
C    5.7595788    0.0007157   -2.0216249  
C    4.7795901    0.0008674   -1.0815733  
C    5.4318897    0.0011976    0.2065809  
C    6.8826349    0.0012556   -0.0619866  
N    7.0143612    0.0005548   -1.4314891  
C    7.8422292    0.0019359    0.8976400  
C    7.4178692    0.0024333    2.2877672  
O    8.2055926    0.0029965    3.2246726  
C    5.8864735    0.0021297    2.5953924  
O    5.5172086    0.0022369    3.7619706  
C    4.9477888    0.0016668    1.4761415  
H    3.8891764    0.0016642    1.6976445  
H    5.6706931    0.0004912   -3.0958635  
H    7.8875232    0.0019717   -1.9260937  
C    3.3321168    0.0004716   -1.3379341  
C    2.6974177    0.0000118   -2.5332316  
C    1.2800432   -0.0002116   -2.2052842  
C    1.2395033    0.0000644   -0.7271298  
N    2.4394059    0.0005460   -0.2131041  
C    0.0000000    0.0000000    0.0000000  
C   -1.1468704    0.0000635   -0.7169542  
O   -2.3742206    0.0000074   -0.1695488  
C   -1.1388774    0.0001608   -2.2096352  
O   -2.2206238    0.0000906   -2.7970409  
C    0.1454514    0.0001818   -2.9324241  
H    3.1367978   -0.0000649   -3.5160956  
H   -2.9844350    0.0001027   -0.9290164  
H    0.1083567    0.0003684   -4.0135594  
C    0.0000000    0.0000000    1.4700000  
C    1.0541688    0.0001722    2.3260392  
C    0.5103138    0.0000454    3.6635956  
C   -0.9576371   -0.0002459    3.5155732  
N   -1.2018458    0.0001392    2.1615969  
C   -1.8348311   -0.0008317    4.5510609  
C   -1.2972847   -0.0009736    5.9014604  
O   -2.0050672   -0.0014265    6.9001319  
C    0.2542623   -0.0004184    6.0817573  
O    0.7184670   -0.0002256    7.2139121  
C    1.0974552   -0.0000873    4.8889129  
H    2.0940752    0.0005483    2.0517982  
H   -2.9081052   -0.0011668    4.4207061  
H    2.1707277    0.0000911    5.0223670  
H   -2.1128194   -0.0014912    1.7406791  
