60

C    0.1960255   -3.0254765  -10.3632703  
C   -0.0066402   -2.2353512  -11.4710136  
C   -0.2153262   -0.9049112  -11.0009283  
C   -0.1276194   -0.9449417   -9.5857845  
N    0.1209821   -2.2477505   -9.2315193  
C   -0.2828412    0.1912933   -8.7859942  
C   -0.5308238    1.3898244   -9.4264671  
O   -0.6902337    2.5302618   -8.6936619  
C   -0.6222221    1.4499545  -10.8374415  
O   -0.8737511    2.7159107  -11.3247094  
C   -0.4694672    0.3293835  -11.6270697  
H   -0.0054348   -2.5761907  -12.4921993  
H    0.2436119   -2.5804748   -8.2922439  
H   -0.8521390    3.2414520   -9.3271119  
H   -0.9203275    2.6686842  -12.2845032  
H   -0.5449763    0.4063116  -12.7054284  
H    0.3867478   -4.0825180  -10.2908466  
C    2.4320879   -2.0124030   -6.1859210  
C    2.0200836   -1.6305794   -4.9546444  
C    0.9177868   -0.7123208   -5.1959806  
C    0.7970283   -0.6538282   -6.6685906  
N    1.6820122   -1.4139325   -7.2542822  
C   -0.1937183    0.1588217   -7.3190578  
C   -1.0262442    0.8799458   -6.5340644  
O   -1.9968172    1.6808090   -7.0059183  
C   -0.9297035    0.8417619   -5.0449762  
O   -1.7202577    1.5239997   -4.3932124  
C    0.0950446    0.0004351   -4.4015596  
H    2.4153101   -1.9345894   -4.0004696  
H   -2.4169009    2.0561001   -6.2110352  
H    3.2315429   -2.6908682   -6.4379726  
C    3.3321173    0.0004713   -1.3379338  
C    2.6974181    0.0000116   -2.5332314  
C    1.2800438   -0.0002119   -2.2052841  
C    1.2395034    0.0000643   -0.7271299  
N    2.4394062    0.0005460   -0.2131038  
C    0.0000000    0.0000000    0.0000000  
C   -1.1468702    0.0000634   -0.7169543  
O   -2.3742203    0.0000074   -0.1695487  
C   -1.1388770    0.0001607   -2.2096355  
O   -2.2206234    0.0000905   -2.7970411  
C    0.1454522    0.0001815   -2.9324241  
H    3.1367984   -0.0000653   -3.5160950  
H   -2.9844346    0.0001026   -0.9290167  
H    4.3940038    0.0007618   -1.1498640  
C    2.5128556    2.1077716    2.9199648  
C    1.9592212    1.6432552    4.0696553  
C    0.8915788    0.7479214    3.6910360  
C    0.8684491    0.7287414    2.2159470  
N    1.8754542    1.5738793    1.8102719  
C    0.0000000    0.0000000    1.4700000  
C   -0.9772830   -0.8200135    2.1664417  
O   -1.8021297   -1.5120829    1.5842315  
C   -0.9711318   -0.8147624    3.7284083  
O   -1.7894187   -1.5009653    4.3257297  
C    0.0140216    0.0115358    4.4216297  
H    2.2638494    1.8988021    5.0689105  
H    0.0117648    0.0094386    5.5031631  
H    3.3327358    2.7953732    2.7900019  
H    2.1123206    1.7707734    0.8551938  
