62

C    2.7830093   -5.4787793   -8.9015126  
C    2.9571690   -5.0108076  -10.1833623  
C    2.6553478   -3.6168703  -10.1623113  
C    2.3005042   -3.2879394   -8.8289635  
N    2.3865956   -4.4416684   -8.0899672  
C    1.9416131   -1.9941028   -8.4391276  
C    1.9412156   -1.0144119   -9.4129772  
O    1.5991577    0.2660807   -9.0868650  
C    2.2918924   -1.3230640  -10.7488581  
O    2.2429309   -0.2391755  -11.6009903  
C    2.6457920   -2.5993025  -11.1342107  
H    3.2629482   -5.6016914  -11.0297358  
H    2.2027116   -4.5155172   -7.1057346  
H    1.6631394    0.7816449   -9.9013366  
H    2.4935365   -0.5333870  -12.4820353  
H    2.9093958   -2.8055920  -12.1649559  
H    2.9088107   -6.4705905   -8.5022110  
C    2.1650264   -2.1089225   -5.9297635  
C    1.5723604   -1.6445161   -7.0598730  
C    0.5184570   -0.7489598   -6.6450207  
C    0.5459257   -0.7295295   -5.1700098  
N    1.5661287   -1.5747495   -4.7989582  
C   -0.2963293   -0.0005341   -4.3948471  
C   -1.2968019    0.8195084   -5.0575088  
O   -2.1010999    1.5117980   -4.4474755  
C   -1.3442161    0.8139948   -6.6187671  
O   -2.1824061    1.5002194   -7.1877956  
C   -0.3835315   -0.0125661   -7.3452196  
H   -0.4228732   -0.0106495   -8.4260400  
H    2.9887823   -2.7966239   -5.8278731  
H    1.8355780   -1.7715191   -3.8525303  
C    3.1301146   -0.0010313   -1.7028256  
C    2.5367765   -0.0002766   -0.4864669  
C    1.1089901    0.0001027   -0.7656184  
C    1.0177865   -0.0004150   -2.2415133  
N    2.1993571   -0.0011612   -2.7963824  
C   -0.2459219   -0.0002879   -2.9257116  
C   -1.3675326   -0.0000606   -2.1698520  
O   -2.6129318    0.0000865   -2.6748483  
C   -1.3083588    0.0000910   -0.6783229  
O   -2.3693264    0.0004206   -0.0541685  
C    0.0000000    0.0000000    0.0000000  
H    3.0096016   -0.0001007    0.4807518  
H   -3.1967444    0.0002093   -1.8949026  
H    4.1849275   -0.0015114   -1.9271979  
C    0.8576279    0.7185626    2.2703808  
C    0.0000000    0.0000000    1.4700000  
C   -0.8668858   -0.7285659    2.3373528  
C   -0.4876752   -0.4117774    3.6669281  
N    0.5635254    0.4678311    3.5902241  
C   -1.1297612   -0.9515493    4.7854808  
C   -2.1738724   -1.8268314    4.5576857  
O   -2.8357962   -2.3827064    5.6140350  
C   -2.5667212   -2.1555554    3.2384331  
O   -3.6226318   -3.0413663    3.1773122  
C   -1.9335634   -1.6236449    2.1344818  
H    1.0363952    0.8769718    4.3757045  
H   -0.8454472   -0.7142436    5.8013813  
H   -3.5178062   -2.9546422    5.2385129  
H   -3.8247440   -3.2102924    2.2519915  
H   -2.2566033   -1.8942483    1.1360343  
H    1.6567807    1.3889844    2.0042067  
