60

C    3.8012770   -5.4959608   -7.6694617  
C    3.0756802   -4.5341982   -7.0053905  
C    3.2674007   -3.3082598   -7.7088953  
C    4.1265171   -3.5860939   -8.8028122  
N    4.4332870   -4.9230791   -8.7482210  
C    4.5310561   -2.6063719   -9.7145583  
C    4.0594929   -1.3228584   -9.5186053  
O    4.4229320   -0.3278619  -10.3793651  
C    3.2017721   -1.0258685   -8.4328201  
O    2.8184667    0.2980929   -8.3732669  
C    2.8024917   -1.9918333   -7.5328130  
H    2.4821936   -4.6960618   -6.1218938  
H    5.0173210   -5.4116942   -9.4025437  
H    5.1857737   -2.8116536  -10.5502648  
H    3.9900104    0.4765952  -10.0652132  
H    2.2411590    0.4136603   -7.6123695  
H    3.9191368   -6.5449646   -7.4581353  
C    1.9999919   -2.1070891   -5.1447771  
C    1.9105667   -1.6426495   -6.4177158  
C    0.7784253   -0.7475271   -6.4606980  
C    0.2115584   -0.7283875   -5.0986831  
N    0.9973788   -1.5733446   -4.3494007  
C   -0.8712826    0.0001710   -4.7267111  
C   -1.5219796    0.8200164   -5.7351665  
O   -2.5037635    1.5119153   -5.4992068  
C   -0.9387698    0.8148045   -7.1841818  
O   -1.4783589    1.5008668   -8.0417492  
C    0.2330299   -0.0112901   -7.4640108  
H    0.6307995   -0.0091668   -8.4697438  
H    2.7138544   -2.7945381   -4.7208631  
H    0.8643845   -1.7702171   -3.3744133  
C    1.0965514    0.0001359   -0.8010305  
C    0.0000000    0.0000000    0.0000000  
C   -1.1546563    0.0001470   -0.8669513  
C   -0.6372014    0.0003519   -2.2486282  
N    0.7342871    0.0007337   -2.1395014  
C   -1.4147739    0.0001352   -3.3608717  
C   -2.8576049   -0.0001048   -3.1854462  
O   -3.6427779   -0.0002494   -4.1244907  
C   -3.4275840   -0.0000725   -1.7311666  
O   -4.6406831    0.0000333   -1.5710060  
C   -2.4891867   -0.0001091   -0.6116744  
H   -2.8919122   -0.0002918    0.3920866  
H    2.1388272    0.0000663   -0.5261648  
H    1.3735872   -0.0006099   -2.9130262  
C    2.5528530    2.1414826    2.8079335  
C    2.0663498    1.7338582    4.0032312  
C    0.9804344    0.8229586    3.6752840  
C    0.9495562    0.7966882    2.1971295  
N    1.8690446    1.5676019    1.6831036  
C    0.0000000    0.0000000    1.4700000  
C   -0.8785127   -0.7372425    2.1869543  
O   -1.8187535   -1.5261249    1.6395491  
C   -0.8723269   -0.7321790    3.6796354  
O   -1.7010379   -1.4274584    4.2670412  
C    0.1115397    0.0933559    4.4024240  
H    2.4028853    2.0163452    4.9860947  
H   -2.2861435   -1.9184361    2.3990168  
H    0.0832434    0.0693689    5.4835595  
H    3.3664920    2.8238276    2.6198634  
