62

C    2.4861702   -0.0045381   -3.7159922  
C    3.5192653   -0.0069576   -2.8076001  
C    4.7328077   -0.0089740   -3.5572066  
C    4.3743056   -0.0073669   -4.9295766  
N    3.0028455   -0.0066335   -4.9905080  
C    5.3209179   -0.0083538   -5.9585147  
C    6.6537153   -0.0107049   -5.5954393  
O    7.6195178   -0.0114064   -6.5599276  
C    7.0312767   -0.0127111   -4.2315260  
O    8.3964910   -0.0153603   -4.0327047  
C    6.0979606   -0.0120121   -3.2159252  
H    3.4114641   -0.0083403   -1.7364463  
H    2.4594304    0.0050772   -5.8346312  
H    5.0541703   -0.0072833   -7.0063921  
H    8.4675238   -0.0133900   -6.0971679  
H    8.5659228   -0.0165595   -3.0856591  
H    6.4172671   -0.0137763   -2.1803008  
C    0.0000000    0.0000000    0.0000000  
C    1.0521666   -0.0011901   -0.8862341  
C    0.4917219   -0.0011956   -2.1979129  
C   -0.9187429    0.0003148   -2.0478681  
N   -1.1833171   -0.0009411   -0.7007912  
C   -1.7951701    0.0010349   -3.1372089  
C   -1.2375839    0.0005224   -4.4010424  
O   -2.0474212    0.0015359   -5.4997577  
C    0.1673581   -0.0013566   -4.5711964  
O    0.5673524   -0.0020688   -5.8915554  
C    1.0325770   -0.0023412   -3.4969892  
H    2.0953060   -0.0030648   -0.6200561  
H   -2.0989776    0.0102371   -0.2891822  
H   -1.4634886    0.0006496   -6.2693594  
H    1.5290710   -0.0033152   -5.9180047  
C   -4.7116853    2.0166393   -0.4361496  
C   -3.5469322    1.6335646   -1.0090233  
C   -3.9344255    0.7158339   -2.0692679  
C   -5.4100299    0.6589843   -1.9921708  
N   -5.8713625    1.4195192   -1.0367921  
C   -6.1879607   -0.1527158   -2.8871864  
C   -5.5220600   -0.8745016   -3.8172061  
O   -6.1202710   -1.6746160   -4.7160952  
C   -4.0333845   -0.8379730   -3.9205076  
O   -3.4938670   -1.5207365   -4.7911254  
C   -3.2578655    0.0024038   -2.9908506  
H   -2.5481628    1.9364342   -0.7448158  
H   -7.2650556   -0.1753806   -2.8080473  
H   -5.3890704   -2.0506778   -5.2386616  
H   -4.8538899    2.6951898    0.3898772  
C    3.2573670    0.0002920    2.9809380  
C    2.5379467    0.0001709    1.8291961  
C    1.1435042   -0.0000331    2.2038498  
C    1.1092607    0.0000083    3.6788474  
N    2.4227561   -0.0001909    4.0882609  
C   -0.0265533    0.0002524    4.4215661  
C   -1.3003036    0.0002640    3.7214979  
O   -2.3786784    0.0004133    4.3006425  
C   -1.2877726   -0.0000311    2.1595606  
O   -2.3539958   -0.0003306    1.5592035  
C    0.0000000    0.0000000    1.4700000  
H    2.9384090    0.0000368    0.8310761  
H   -0.0296291    0.0004086    5.5027230  
H    4.3270393    0.0004765    3.1139444  
H    2.7280493    0.0013407    5.0442112  
