62

C    2.1106077   -1.9150145   -7.7804345  
C    3.1904615   -2.7527177   -7.9373922  
C    3.5480820   -2.7168289   -9.3177616  
C    2.6434958   -1.8324109   -9.9592089  
N    1.7828293   -1.3646524   -8.9974024  
C    2.6999682   -1.5547310  -11.3283303  
C    3.6877969   -2.1810450  -12.0632485  
O    3.7883995   -1.9453666  -13.4038998  
C    4.5994365   -3.0670410  -11.4413638  
O    5.5243109   -3.6116593  -12.3081637  
C    4.5441467   -3.3416556  -10.0907881  
H    3.6616850   -3.3207341   -7.1536199  
H    1.0375049   -0.7105054   -9.1541324  
H    2.0134037   -0.8817570  -11.8232422  
H    4.5328750   -2.4742666  -13.7189972  
H    6.1012782   -4.1974325  -11.8085812  
H    5.2559658   -4.0248802   -9.6424614  
C    1.5647268   -2.0539605   -5.3222414  
C    1.3415396   -1.5772678   -6.5740504  
C    0.2114928   -0.6825502   -6.4885493  
C   -0.2083727   -0.6770014   -5.0741691  
N    0.6518900   -1.5286394   -4.4202953  
C   -1.2456329    0.0471727   -4.5828766  
C   -1.9989043    0.8763050   -5.5089746  
O   -2.9500477    1.5652086   -5.1639547  
C   -1.5719696    0.8855379   -7.0114550  
O   -2.1988660    1.5795073   -7.8005478  
C   -0.4365507    0.0630004   -7.4214648  
H   -0.1472075    0.0751441   -8.4635094  
H    2.3191290   -2.7449941   -4.9827736  
H    0.6225288   -1.7350431   -3.4386728  
C    1.1243410    0.0099923   -0.7919003  
C    0.7474076    0.0234544   -2.1148543  
C   -0.6787381    0.0234490   -2.1414700  
C   -1.1201745    0.0098592   -0.7935546  
N    0.0000000    0.0000000    0.0000000  
C   -2.4730816    0.0063709   -0.4408240  
C   -3.3971958    0.0170982   -1.4675058  
O   -4.7313517    0.0146259   -1.1793471  
C   -2.9763648    0.0303504   -2.8186324  
O   -4.0166480    0.0395118   -3.7247624  
C   -1.6418562    0.0335260   -3.1673481  
H    1.4178717    0.0310972   -2.9571209  
H   -2.8160166   -0.0041111    0.5845966  
H   -5.1938818    0.0230867   -2.0274384  
H   -3.6464675    0.0482293   -4.6127343  
H    2.1062467    0.0052819   -0.3505407  
C    0.8175213    0.6860729    2.3021913  
C    0.0000000    0.0000000    1.4700000  
C   -0.8887526   -0.7456559    2.3478473  
C   -0.4549825   -0.3816753    3.7138435  
N    0.5448156    0.4573574    3.6934124  
C   -1.0945674   -0.9182058    4.8835240  
C   -2.1210866   -1.7789155    4.6970523  
O   -2.8083856   -2.3554314    5.6976972  
C   -2.5824069   -2.1655116    3.3310774  
O   -3.5227682   -2.9541547    3.2362962  
C   -1.9100805   -1.6015804    2.1470656  
H   -0.7567140   -0.6349833    5.8697035  
H   -3.4728268   -2.9124471    5.2533954  
H   -2.2742832   -1.9066565    1.1752040  
H    1.6189533    1.3585343    2.0405121  
