60

C   -0.1375945   -0.8923912   -9.6208592  
C   -0.2828412    0.1912933   -8.7859942  
C   -0.5298478    1.3254270   -9.6150477  
C   -0.5241793    0.8685295  -10.9578569  
N   -0.2812897   -0.4822424  -10.9256494  
C   -0.7359108    1.7191834  -12.0470519  
C   -0.9577012    3.0553609  -11.7757298  
O   -1.1704762    3.9297193  -12.8020036  
C   -0.9667503    3.5303902  -10.4426578  
O   -1.2008988    4.8858948  -10.3371781  
C   -0.7576766    2.6918166   -9.3676649  
H   -0.2303874   -1.0820694  -11.7291403  
H   -0.7326825    1.3772026  -13.0728398  
H   -1.3014717    4.7976544  -12.3985270  
H   -1.1907296    5.1246905   -9.4052569  
H   -0.7701659    3.0845662   -8.3576800  
H    0.0585559   -1.9251944   -9.3889081  
C    2.4320879   -2.0124030   -6.1859210  
C    2.0200836   -1.6305794   -4.9546444  
C    0.9177868   -0.7123208   -5.1959806  
C    0.7970283   -0.6538282   -6.6685906  
N    1.6820122   -1.4139325   -7.2542822  
C   -0.1937183    0.1588217   -7.3190578  
C   -1.0262442    0.8799458   -6.5340644  
O   -1.9968172    1.6808090   -7.0059183  
C   -0.9297035    0.8417619   -5.0449762  
O   -1.7202577    1.5239997   -4.3932124  
C    0.0950446    0.0004351   -4.4015596  
H    2.4153101   -1.9345894   -4.0004696  
H   -2.4169009    2.0561001   -6.2110352  
H    3.2315429   -2.6908682   -6.4379726  
C    3.3321173    0.0004713   -1.3379338  
C    2.6974181    0.0000116   -2.5332314  
C    1.2800438   -0.0002119   -2.2052841  
C    1.2395034    0.0000643   -0.7271299  
N    2.4394062    0.0005460   -0.2131038  
C    0.0000000    0.0000000    0.0000000  
C   -1.1468702    0.0000634   -0.7169543  
O   -2.3742203    0.0000074   -0.1695487  
C   -1.1388770    0.0001607   -2.2096355  
O   -2.2206234    0.0000905   -2.7970411  
C    0.1454522    0.0001815   -2.9324241  
H    3.1367984   -0.0000653   -3.5160950  
H   -2.9844346    0.0001026   -0.9290167  
H    4.3940038    0.0007618   -1.1498640  
C    2.3971438    2.0127888    3.1728260  
C    1.9431056    1.6308205    1.9564670  
C    0.8496017    0.7127664    2.2356185  
C    0.7794028    0.6545384    3.7115134  
N    1.6840587    1.4146091    4.2663826  
C   -0.1885723   -0.1578550    4.3957118  
C   -1.0476298   -0.8789867    3.6398520  
O   -2.0015663   -1.6796266    4.1448486  
C   -1.0022026   -0.8410666    2.1483229  
O   -1.8147390   -1.5232959    1.5241687  
C    0.0000000    0.0000000    1.4700000  
H    2.3054237    1.9346118    0.9892483  
H   -0.2170646   -0.1815267    5.4753125  
H   -2.4487139   -2.0549881    3.3649027  
H    3.2048689    2.6911772    3.3971983  
