62

C    0.0000000    0.0000000    0.0000000  
C    1.0521663   -0.0012045   -0.8862348  
C    0.4917207   -0.0012024   -2.1979137  
C   -0.9187436    0.0003273   -2.0478681  
N   -1.1833172   -0.0009251   -0.7007908  
C   -1.7951715    0.0010596   -3.1372085  
C   -1.2375856    0.0005393   -4.4010423  
O   -2.0474234    0.0015638   -5.4997572  
C    0.1673564   -0.0013591   -4.5711968  
O    0.5673498   -0.0020764   -5.8915551  
C    1.0325757   -0.0023552   -3.4969898  
H    2.0953052   -0.0030934   -0.6200571  
H   -2.0989776    0.0102657   -0.2891816  
H   -1.4634914    0.0006698   -6.2693588  
H    1.5290683   -0.0033362   -5.9180052  
H    2.1042128   -0.0039896   -3.6584466  
C   -4.3329539    2.1450432   -0.3175470  
C   -5.5711353    1.7385772   -0.6826101  
C   -5.3537974    0.8274321   -1.7957493  
C   -3.8860875    0.7997670   -1.9736439  
N   -3.2823388    1.5701406   -1.1099302  
C   -3.2578665    0.0024482   -2.9908495  
C   -4.0594235   -0.7340647   -3.7935882  
O   -3.6090990   -1.5234087   -4.7836311  
C   -5.5440664   -0.7275914   -3.6388163  
O   -6.2117205   -1.4222667   -4.4049003  
C   -6.1645247    0.0985679   -2.5879038  
H   -6.5153407    2.0219728   -0.2498991  
H   -4.4116988   -1.9149746   -5.1730693  
H   -4.0641638    2.8271623    0.4733000  
C   -8.4377456    1.1299499   -2.2291217  
C   -7.6302186    0.0673626   -2.4798900  
C   -8.4852973   -1.0878889   -2.6179813  
C   -9.8670896   -0.6077922   -2.4257583  
N   -9.7693254    0.7447636   -2.1935420  
C  -10.9698143   -1.3969283   -2.4802346  
C  -10.7832718   -2.8137086   -2.7456973  
O  -11.7132383   -3.6066638   -2.8141586  
C   -9.3286487   -3.3440185   -2.9522082  
O   -9.1591553   -4.5349993   -3.1760314  
C   -8.2200149   -2.3963437   -2.8703860  
H  -11.9746497   -1.0247023   -2.3364867  
H   -7.2159564   -2.7715094   -3.0147536  
H   -8.1721044    2.1619743   -2.0671031  
H  -10.5458482    1.3580027   -2.0262162  
C    0.0000000    0.0000000    1.4700000  
C    1.0521667    0.0011902    2.3562342  
C    0.4917218    0.0011957    3.6679131  
C   -0.9187428   -0.0003148    3.5178682  
N   -1.1833171    0.0009411    2.1707914  
C   -1.7951701   -0.0010350    4.6072090  
C   -1.2375837   -0.0005224    5.8710424  
O   -2.0474215   -0.0015360    6.9697579  
C    0.1673580    0.0013566    6.0411963  
O    0.5673524    0.0020687    7.3615553  
C    1.0325770    0.0023412    4.9669890  
H    2.0953057    0.0030649    2.0900562  
H   -2.0989778   -0.0102372    1.7591824  
H   -2.8710934   -0.0020419    4.4995513  
H   -1.4634884   -0.0006497    7.7393593  
H    1.5290710    0.0033153    7.3880045  
H    2.1042148    0.0039609    5.1284455  
