64

C    0.0765724   -0.9860165   -9.5747072  
C   -0.0317989   -0.5700048  -10.8814808  
C   -0.2896217    0.8325829  -10.8518966  
C   -0.3276855    1.2200894   -9.4879622  
N   -0.1034817    0.0914626   -8.7392623  
C   -0.5603356    2.5377048   -9.0823112  
C   -0.7578625    3.4813802  -10.0715731  
O   -0.9887614    4.7828526   -9.7311792  
C   -0.7239699    3.1141693  -11.4378913  
O   -0.9390510    4.1678131  -12.3021356  
C   -0.4947764    1.8144498  -11.8387968  
H    0.0621925   -1.2001657  -11.7492684  
H   -0.5907144    2.8394651   -8.0444192  
H   -1.0981656    5.2666207  -10.5601940  
H   -0.8999177    3.8344766  -13.2037783  
H   -0.4746988    1.5631599  -12.8928037  
H    0.2666369   -1.9663364   -9.1724545  
C    2.5409787   -2.1228912   -5.9711679  
C    1.9926483   -1.6610299   -4.7970789  
C    0.9342952   -0.7733297   -5.1527152  
C    0.8833349   -0.7329665   -6.5696486  
N    1.8736004   -1.5621444   -7.0348961  
C   -0.0437617    0.0435814   -7.2712563  
C   -0.9358592    0.7928004   -6.5289556  
O   -1.8625192    1.5686189   -7.1633227  
C   -0.9005315    0.7660310   -5.1144410  
O   -1.8535894    1.5666041   -4.5193714  
C    0.0139741    0.0003876   -4.4216236  
H    2.3164396   -1.9299054   -3.8061914  
H    2.0719103   -1.7433687   -8.0022701  
H   -2.3770354    2.0015784   -6.4697198  
H   -1.7612553    1.4910553   -3.5647139  
H    3.3562568   -2.8068324   -6.1339727  
C    3.2798085    0.0005853   -1.4499648  
C    2.5571144    0.0005562   -2.5996554  
C    1.1637436    0.0001546   -2.2210360  
C    1.1336965   -0.0000201   -0.7459470  
N    2.4483513   -0.0001430   -0.3402717  
C    0.0000000    0.0000000    0.0000000  
C   -1.2757367   -0.0000188   -0.6964414  
O   -2.3524597   -0.0000640   -0.1142313  
C   -1.2676494   -0.0000875   -2.2584081  
O   -2.3355762   -0.0004102   -2.8557294  
C    0.0181562    0.0001757   -2.9516296  
H    2.9547357    0.0006072   -3.5989105  
H    4.3498550    0.0008609   -1.3200021  
H    2.7563627    0.0012824    0.6148063  
C    2.5285572    2.1210227    2.9438989  
C    1.9331703    1.6216660    4.0790748  
C    0.8903039    0.7472258    3.6520102  
C    0.8972198    0.7527806    2.2336141  
N    1.9028376    1.5986179    1.8362361  
C    0.0000000    0.0000000    1.4700000  
C   -0.9207814   -0.7726952    2.1506477  
O   -1.8198395   -1.5274828    1.4542253  
C   -0.9436862   -0.7911793    3.5655508  
O   -1.9197945   -1.6098497    4.0950179  
C   -0.0590329   -0.0485852    4.3195194  
H    2.2150357    1.8593692    5.0905303  
H    2.1533708    1.7953814    0.8841339  
H   -2.3621246   -1.9821033    2.1118817  
H   -1.8668290   -1.5649508    5.0545920  
H   -0.1007624   -0.0827977    5.4019087  
H    3.3491200    2.8096064    2.8367138  
