60

C    9.7089433    2.1265120   -6.9528999  
C    8.7517099    1.6641456   -6.0797501  
C    9.4069621    0.7770124   -5.1751840  
C   10.7748154    0.7374994   -5.5484727  
N   10.9235195    1.5666159   -6.6324792  
C   11.7211819   -0.0383225   -4.8722500  
C   11.2787084   -0.7876762   -3.7994675  
O   12.1607544   -1.5628084   -3.1036382  
C    9.9178285   -0.7617503   -3.4119739  
O    9.6340919   -1.5623506   -2.3248326  
C    8.9836089    0.0031767   -4.0787927  
H    7.7091785    1.9323293   -6.0938194  
H   11.7878322    1.7483416   -7.1098883  
H   12.7651269   -0.0728931   -5.1518674  
H   11.6521215   -1.9960014   -2.4058557  
H    8.6951989   -1.4873943   -2.1287050  
H    9.6211317    2.8102730   -7.7797724  
C    6.4690067    0.0019755   -4.4192259  
C    7.5790592    0.0025229   -3.6450414  
C    7.0826137    0.0021761   -2.2775468  
C    5.6103545    0.0015083   -2.4155218  
N    5.2447492    0.0013071   -3.6686472  
C    4.7390840    0.0009613   -1.2727298  
C    5.3125312    0.0006874   -0.0477837  
O    4.6211392    0.0001824    1.1046125  
C    6.7952869    0.0009745    0.1242519  
O    7.2479825    0.0008238    1.2689297  
C    7.6676524    0.0015792   -1.0635622  
H    5.3014937    0.0000719    1.8019436  
H    8.7364288    0.0016561   -0.8963867  
H    6.4103389    0.0020015   -5.4960416  
C    3.2798077    0.0005856   -1.4499661  
C    2.5571132    0.0005565   -2.5996564  
C    1.1637425    0.0001547   -2.2210366  
C    1.1336959   -0.0000200   -0.7459475  
N    2.4483509   -0.0001429   -0.3402730  
C    0.0000000    0.0000000    0.0000000  
C   -1.2757370   -0.0000187   -0.6964411  
O   -2.3524597   -0.0000640   -0.1142306  
C   -1.2676502   -0.0000874   -2.2584078  
O   -2.3355774   -0.0004102   -2.8557287  
C    0.0181551    0.0001758   -2.9516297  
H    2.9547342    0.0006074   -3.5989118  
H    0.0150776    0.0003317   -4.0331632  
H    2.7563626    0.0012823    0.6148051  
C    2.5128556    2.1077716    2.9199648  
C    1.9592212    1.6432552    4.0696553  
C    0.8915788    0.7479214    3.6910360  
C    0.8684491    0.7287414    2.2159470  
N    1.8754542    1.5738793    1.8102719  
C    0.0000000    0.0000000    1.4700000  
C   -0.9772830   -0.8200135    2.1664417  
O   -1.8021297   -1.5120829    1.5842315  
C   -0.9711318   -0.8147624    3.7284083  
O   -1.7894187   -1.5009653    4.3257297  
C    0.0140216    0.0115358    4.4216297  
H    2.2638494    1.8988021    5.0689105  
H    0.0117648    0.0094386    5.5031631  
H    3.3327358    2.7953732    2.7900019  
H    2.1123206    1.7707734    0.8551938  
