62

C    0.0000000    0.0000000    0.0000000  
C   -1.0115594    0.2894874   -0.8862343  
C   -0.4725688    0.1359047   -2.1979131  
C    0.8834841   -0.2520812   -2.0478684  
N    1.1382741   -0.3233792   -0.7007912  
C    1.7261612   -0.4929558   -3.1372090  
C    1.1900617   -0.3396577   -4.4010422  
O    1.9686187   -0.5625659   -5.4997576  
C   -0.1605786    0.0471691   -4.5711960  
O   -0.5450646    0.1574710   -5.8915547  
C   -0.9924041    0.2852261   -3.4969890  
H   -2.0142498    0.5771592   -0.6200565  
H    2.0158157   -0.5850629   -0.2891825  
H    2.7606182   -0.7887770   -3.0295513  
H    1.4072835   -0.4016888   -6.2693589  
H   -1.4696232    0.4222255   -5.9180046  
C   -3.7985309    3.1797361   -1.5964878  
C   -2.6822461    2.4631402   -1.8647755  
C   -3.0433061    1.6132091   -2.9889428  
C   -4.4522009    1.9565160   -3.2783208  
N   -4.9003114    2.8742817   -2.4653676  
C   -5.1872260    1.3234897   -4.3385578  
C   -4.5438874    0.3902136   -5.0764230  
O   -5.1073484   -0.2797752   -6.0960641  
C   -3.1221643    0.0221408   -4.8092394  
O   -2.5999930   -0.8360104   -5.5206705  
C   -2.3897462    0.6856912   -3.7159924  
H   -1.7312316    2.5060778   -1.3619797  
H   -6.2158903    1.5937124   -4.5276057  
H   -4.4050766   -0.8708565   -6.4225463  
C   -1.0255857    4.6809035    1.4109642  
C   -1.7823075    5.5910381    2.0671705  
C   -3.0763270    5.5513675    1.4035140  
C   -2.9193209    4.5348723    0.3411246  
N   -1.7193148    4.0210871    0.3406573  
C   -3.9927969    4.1957428   -0.5520306  
C   -5.1697447    4.8424063   -0.3909257  
O   -6.2555069    4.6258875   -1.1526874  
C   -5.3594953    5.8729666    0.6721363  
O   -6.4578315    6.4216019    0.7608909  
C   -4.2431348    6.2032180    1.5757950  
H   -1.4975766    6.2124916    2.8989153  
H   -6.9316971    5.2311715   -0.7983557  
H   -4.4210703    6.9552142    2.3328096  
H    0.0011705    4.4107353    1.6000519  
C    3.3003543   -0.0005276    2.9438989  
C    2.5232812   -0.0003497    4.0790748  
C    1.1623199    0.0001319    3.6520102  
C    1.1711883   -0.0000583    2.2336141  
N    2.4852299    0.0014920    1.8362361  
C    0.0000000    0.0000000    1.4700000  
C   -1.2020384   -0.0000520    2.1506477  
O   -2.3759250   -0.0003494    1.4542253  
C   -1.2314658    0.0005113    3.5655508  
O   -2.5054393    0.0008037    4.0950179  
C   -0.0764518    0.0007272    4.3195194  
H    2.8919952    0.0005619    5.0905303  
H    2.8036267   -0.0088181    0.8841339  
H   -3.0835639   -0.0000348    2.1118817  
H   -2.4360050    0.0011527    5.0545920  
H   -0.1304098    0.0013421    5.4019087  
H    4.3715549   -0.0004895    2.8367138  
