60

C   -2.7442351   -0.0006479   -8.6694132  
C   -3.8592940   -0.0003269   -7.8637387  
C   -4.9957771   -0.0008186   -8.7257156  
C   -4.5079642   -0.0017227  -10.0576179  
N   -3.1369481    0.0003569   -9.9874133  
C   -5.3520810   -0.0027028  -11.1721833  
C   -6.7134423   -0.0030783  -10.9379323  
O   -7.5828114   -0.0043815  -11.9901725  
C   -7.2194233   -0.0018144   -9.6162678  
O   -8.5973813   -0.0019621   -9.5486154  
C   -6.3872690   -0.0005739   -8.5162480  
H   -3.8541920    0.0013024   -6.7871865  
H   -2.5154473   -0.0102586  -10.7758327  
H   -4.9865652   -0.0032508  -12.1898277  
H   -8.4711048   -0.0041272  -11.6104363  
H   -8.8564038   -0.0010882   -8.6220571  
H   -6.8039357    0.0005594   -7.5158154  
C   -0.8287671    0.0000935   -4.7555305  
C    0.4848180    0.0005136   -5.0812189  
C    0.5106012    0.0006419   -6.5358099  
C   -0.9135390    0.0001374   -6.9338157  
N   -1.7033614   -0.0001048   -5.8945036  
C   -1.3181690    0.0001434   -8.3127145  
C   -0.3443518    0.0010204   -9.2513381  
O   -0.5775778    0.0011269  -10.5748351  
C    1.1017781    0.0019181   -8.8813809  
O    1.9341164    0.0025672   -9.7882621  
C    1.4913199    0.0018495   -7.4600500  
H    1.3316902    0.0008023   -4.4164762  
H    0.3072615    0.0018584  -10.9825256  
H    2.5491446    0.0026319   -7.2336960  
C    1.0672566   -0.0000698   -0.8321912  
C    0.0000000    0.0000000    0.0000000  
C   -1.1601226   -0.0000736   -0.8778472  
C   -0.5938732   -0.0000770   -2.2438435  
N    0.7113365   -0.0001555   -2.2234123  
C   -1.4286989   -0.0001880   -3.4135239  
C   -2.7683117   -0.0006800   -3.2270522  
O   -3.6653907   -0.0008306   -4.2276967  
C   -3.3702026   -0.0010611   -1.8610771  
O   -4.5974909   -0.0013781   -1.7662957  
C   -2.4926826   -0.0008944   -0.6770655  
H   -4.5324249   -0.0012263   -3.7833950  
H   -2.9677773   -0.0012975    0.2947963  
H    2.1134390   -0.0000546   -0.5705121  
C    2.5128556    2.1077716    2.9199648  
C    1.9592212    1.6432552    4.0696553  
C    0.8915788    0.7479214    3.6910360  
C    0.8684491    0.7287414    2.2159470  
N    1.8754542    1.5738793    1.8102719  
C    0.0000000    0.0000000    1.4700000  
C   -0.9772830   -0.8200135    2.1664417  
O   -1.8021297   -1.5120829    1.5842315  
C   -0.9711318   -0.8147624    3.7284083  
O   -1.7894187   -1.5009653    4.3257297  
C    0.0140216    0.0115358    4.4216297  
H    2.2638494    1.8988021    5.0689105  
H    0.0117648    0.0094386    5.5031631  
H    3.3327358    2.7953732    2.7900019  
H    2.1123206    1.7707734    0.8551938  
