62

C    5.8168739   -3.2307593   -9.3106181  
C    5.2684367   -2.5243175   -8.2653314  
C    5.1765166   -1.1641200   -8.6848726  
C    5.6879686   -1.1006923  -10.0063572  
N    6.0697213   -2.3724390  -10.3549859  
C    5.7509679    0.0899338  -10.7365822  
C    5.2889678    1.2373809  -10.1216847  
O    5.3269933    2.4271793  -10.7894777  
C    4.7753987    1.1944137   -8.8036496  
O    4.3550763    2.4203554   -8.3306383  
C    4.7131956    0.0202319   -8.0825703  
H    4.9722012   -2.9382277   -7.3166938  
H    6.4601715   -2.6388955  -11.2407231  
H    6.1397774    0.1449610  -11.7440539  
H    4.9629334    3.0896638  -10.1879466  
H    4.0229011    2.3033016   -7.4353380  
H    6.0490155   -4.2787250   -9.3933083  
C    5.9779326   -2.0928592   -4.4468277  
C    5.0400352   -1.6304885   -3.5804345  
C    4.1859905   -0.7341818   -4.3234533  
C    4.7069275   -0.7121372   -5.7036455  
N    5.7934745   -1.5560774   -5.7119684  
C    4.1728106    0.0176374   -6.7155014  
C    3.0072079    0.8361655   -6.4258171  
O    2.4535610    1.5290918   -7.2693981  
C    2.4388223    0.8282645   -4.9709354  
O    1.4580063    1.5136695   -4.7150431  
C    3.1006054    0.0006263   -3.9654951  
H    4.9561722   -1.8877888   -2.5395805  
H    6.7884827   -2.7804145   -4.2674807  
H    6.3633299   -1.7534011   -6.5140748  
C    3.2798083    0.0005857   -1.4499652  
C    2.5571142    0.0005565   -2.5996556  
C    1.1637432    0.0001548   -2.2210361  
C    1.1336964   -0.0000200   -0.7459473  
N    2.4483512   -0.0001428   -0.3402723  
C    0.0000000    0.0000000    0.0000000  
C   -1.2757368   -0.0000186   -0.6964415  
O   -2.3524598   -0.0000639   -0.1142311  
C   -1.2676497   -0.0000872   -2.2584083  
O   -2.3355766   -0.0004101   -2.8557295  
C    0.0181558    0.0001758   -2.9516296  
H    0.0150788    0.0003319   -4.0331631  
H    4.3498547    0.0008612   -1.3200026  
H    2.7563626    0.0012823    0.6148059  
C    2.5285572    2.1210227    2.9438989  
C    1.9331703    1.6216660    4.0790748  
C    0.8903039    0.7472258    3.6520102  
C    0.8972198    0.7527806    2.2336141  
N    1.9028376    1.5986179    1.8362361  
C    0.0000000    0.0000000    1.4700000  
C   -0.9207814   -0.7726952    2.1506477  
O   -1.8198395   -1.5274828    1.4542253  
C   -0.9436862   -0.7911793    3.5655508  
O   -1.9197945   -1.6098497    4.0950179  
C   -0.0590329   -0.0485852    4.3195194  
H    2.2150357    1.8593692    5.0905303  
H    2.1533708    1.7953814    0.8841339  
H   -2.3621246   -1.9821033    2.1118817  
H   -1.8668290   -1.5649508    5.0545920  
H   -0.1007624   -0.0827977    5.4019087  
H    3.3491200    2.8096064    2.8367138  
