60

C   -0.2963294   -0.0005338   -4.3948469  
C    0.7248287   -0.0020289   -5.3166396  
C    0.1197348   -0.0021706   -6.6083287  
C   -1.2847550   -0.0004250   -6.4100066  
N   -1.5029813   -0.0014160   -5.0546494  
C   -2.1980210    0.0002432   -7.4686539  
C   -1.6841003   -0.0005639   -8.7508632  
O   -2.5311372    0.0003862   -9.8211639  
C   -0.2858198   -0.0026806   -8.9690928  
O    0.0686631   -0.0036733  -10.3023925  
C    0.6157255   -0.0036142   -7.9251870  
H    1.7764815   -0.0040143   -5.0863876  
H   -2.4039876    0.0099675   -4.6118856  
H   -3.2696198    0.0014283   -7.3241654  
H   -1.9739380   -0.0007158  -10.6103357  
H    1.0289089   -0.0050674  -10.3618041  
H    1.6811962   -0.0054203   -8.1232956  
C    3.1301144   -0.0010311   -1.7028257  
C    2.5367765   -0.0002766   -0.4864669  
C    1.1089900    0.0001028   -0.7656184  
C    1.0177865   -0.0004148   -2.2415134  
N    2.1993573   -0.0011611   -2.7963824  
C   -0.2459219   -0.0002876   -2.9257117  
C   -1.3675328   -0.0000605   -2.1698521  
O   -2.6129318    0.0000868   -2.6748487  
C   -1.3083586    0.0000910   -0.6783230  
O   -2.3693261    0.0004206   -0.0541687  
C    0.0000000    0.0000000    0.0000000  
H    3.0096014   -0.0001008    0.4807517  
H   -3.1967444    0.0002095   -1.8949028  
C    4.5679458   -0.0016854   -2.0086709  
C    5.6049846   -0.0016932   -1.1391141  
C    6.7955411   -0.0024718   -1.9752209  
C    6.2781446   -0.0029783   -3.3604588  
N    4.9730328   -0.0024399   -3.3863786  
C    7.1539699   -0.0037581   -4.4997638  
C    8.4861189   -0.0036311   -4.2658506  
O    9.4181576   -0.0043055   -5.2340161  
C    9.0391351   -0.0027525   -2.8793685  
O   10.2622851   -0.0028092   -2.7410756  
C    8.1201337   -0.0020063   -1.7272573  
H    5.5667631   -0.0011379   -0.0631891  
H    6.7483969   -0.0043219   -5.5009730  
H   10.2688717   -0.0039791   -4.7592129  
H    8.5604254   -0.0012654   -0.7391418  
C    2.5528530    2.1414826    2.8079335  
C    2.0663498    1.7338582    4.0032312  
C    0.9804344    0.8229586    3.6752840  
C    0.9495562    0.7966882    2.1971295  
N    1.8690446    1.5676019    1.6831036  
C    0.0000000    0.0000000    1.4700000  
C   -0.8785127   -0.7372425    2.1869543  
O   -1.8187535   -1.5261249    1.6395491  
C   -0.8723269   -0.7321790    3.6796354  
O   -1.7010379   -1.4274584    4.2670412  
C    0.1115397    0.0933559    4.4024240  
H    2.4028853    2.0163452    4.9860947  
H   -2.2861435   -1.9184361    2.3990168  
H    0.0832434    0.0693689    5.4835595  
H    3.3664920    2.8238276    2.6198634  
