62

C    9.2085263   -0.0056109    0.3420974  
C    9.8821890   -0.0055715   -0.8573387  
C   11.2755792   -0.0068587   -0.5522776  
C   11.3921540   -0.0079354    0.8613472  
N   10.1183952   -0.0051891    1.3733526  
C   12.6262707   -0.0096496    1.5184181  
C   13.7634202   -0.0105954    0.7341559  
O   14.9942818   -0.0126258    1.3240597  
C   13.6676324   -0.0091705   -0.6778070  
O   14.8898030   -0.0099466   -1.3178404  
C   12.4504795   -0.0072060   -1.3267003  
H    9.4254911   -0.0036146   -1.8322320  
H    9.8854151   -0.0157501    2.3498716  
H   12.7218731   -0.0103329    2.5954794  
H   15.6410028   -0.0126749    0.6064125  
H   14.7358000   -0.0089146   -2.2675169  
H   12.4085280   -0.0059665   -2.4096207  
C    5.6706436   -0.0000109   -2.2998306  
C    6.9366746   -0.0017183   -1.8086710  
C    6.8296106   -0.0022729   -0.3687500  
C    5.3870841   -0.0007669   -0.0590646  
N    4.7390840    0.0009613   -1.2727298  
C    4.8700559   -0.0011615    1.1956809  
C    5.7961368   -0.0029798    2.3159070  
O    5.4290430   -0.0034065    3.4836152  
C    7.3281306   -0.0043428    2.0112798  
O    8.1174235   -0.0055710    2.9463067  
C    7.7645007   -0.0040404    0.6172090  
H    7.8422120   -0.0023175   -2.3888562  
H    3.8085777   -0.0001651    1.4010418  
H    5.3397978    0.0008358   -3.3257109  
C    3.2798077    0.0005856   -1.4499661  
C    2.5571132    0.0005565   -2.5996564  
C    1.1637425    0.0001547   -2.2210366  
C    1.1336959   -0.0000200   -0.7459475  
N    2.4483509   -0.0001429   -0.3402730  
C    0.0000000    0.0000000    0.0000000  
C   -1.2757370   -0.0000187   -0.6964411  
O   -2.3524597   -0.0000640   -0.1142306  
C   -1.2676502   -0.0000874   -2.2584078  
O   -2.3355774   -0.0004102   -2.8557287  
C    0.0181551    0.0001758   -2.9516297  
H    2.9547342    0.0006074   -3.5989118  
H    0.0150776    0.0003317   -4.0331632  
H    2.7563626    0.0012823    0.6148051  
C    0.0000000    0.0000000    1.4700000  
C    1.0521667    0.0011902    2.3562342  
C    0.4917218    0.0011957    3.6679131  
C   -0.9187428   -0.0003148    3.5178682  
N   -1.1833171    0.0009411    2.1707914  
C   -1.7951701   -0.0010350    4.6072090  
C   -1.2375837   -0.0005224    5.8710424  
O   -2.0474215   -0.0015360    6.9697579  
C    0.1673580    0.0013566    6.0411963  
O    0.5673524    0.0020687    7.3615553  
C    1.0325770    0.0023412    4.9669890  
H    2.0953057    0.0030649    2.0900562  
H   -2.0989778   -0.0102372    1.7591824  
H   -2.8710934   -0.0020419    4.4995513  
H   -1.4634884   -0.0006497    7.7393593  
H    1.5290710    0.0033153    7.3880045  
H    2.1042148    0.0039609    5.1284455  
