60

C    5.0860521   -4.5614543   -4.0686714  
C    6.2885392   -4.3519732   -4.7031860  
C    6.3024952   -2.9910466   -5.1301332  
C    5.0714837   -2.4149128   -4.7244151  
N    4.3558145   -3.3961849   -4.0844612  
C    4.7405457   -1.0806252   -4.9792603  
C    5.6693514   -0.3138932   -5.6557366  
O    5.3975224    0.9951838   -5.9304005  
C    6.9029858   -0.8707846   -6.0690611  
O    7.7209994    0.0207295   -6.7319327  
C    7.2300192   -2.1870890   -5.8182277  
H    7.0602140   -5.0896472   -4.8422877  
H    3.4455219   -3.2788307   -3.6775518  
H    6.1667405    1.3407018   -6.4017662  
H    8.5324252   -0.4347923   -6.9762512  
H    8.1825370   -2.5857685   -6.1472292  
H    4.6908976   -5.4502687   -3.6073476  
C    2.8279729   -0.7071296   -3.3541665  
C    1.6707636   -0.0012343   -3.2725974  
C    1.5420222    0.7399977   -4.5050080  
C    2.7275720    0.4056549   -5.3170903  
N    3.4672605   -0.4755789   -4.5626516  
C    2.9773517    0.9038684   -6.5544653  
C    2.0143734    1.8314550   -7.1243702  
O    2.1493673    2.3348416   -8.2319255  
C    0.7517059    2.1998424   -6.2818939  
O   -0.0658607    2.9799880   -6.7511671  
C    0.5920508    1.5980569   -4.9604489  
H    3.8531179    0.6455748   -7.1334537  
H   -0.2850564    1.8581559   -4.3835992  
H    3.2676543   -1.3768500   -2.6330256  
C    1.0965514    0.0001358   -0.8010306  
C    0.0000000    0.0000000    0.0000000  
C   -1.1546565    0.0001470   -0.8669508  
C   -0.6372019    0.0003520   -2.2486278  
N    0.7342867    0.0007338   -2.1395012  
C   -1.4147744    0.0001354   -3.3608712  
C   -2.8576052   -0.0001047   -3.1854454  
O   -3.6427785   -0.0002490   -4.1244896  
C   -3.4275841   -0.0000727   -1.7311660  
O   -4.6406832    0.0000333   -1.5710049  
C   -2.4891868   -0.0001090   -0.6116739  
H   -1.0150456    0.0001617   -4.3654239  
H   -2.8919122   -0.0002919    0.3920871  
H    2.1388270    0.0000663   -0.5261650  
C    2.5528530    2.1414826    2.8079335  
C    2.0663498    1.7338582    4.0032312  
C    0.9804344    0.8229586    3.6752840  
C    0.9495562    0.7966882    2.1971295  
N    1.8690446    1.5676019    1.6831036  
C    0.0000000    0.0000000    1.4700000  
C   -0.8785127   -0.7372425    2.1869543  
O   -1.8187535   -1.5261249    1.6395491  
C   -0.8723269   -0.7321790    3.6796354  
O   -1.7010379   -1.4274584    4.2670412  
C    0.1115397    0.0933559    4.4024240  
H    2.4028853    2.0163452    4.9860947  
H   -2.2861435   -1.9184361    2.3990168  
H    0.0832434    0.0693689    5.4835595  
H    3.3664920    2.8238276    2.6198634  
