62

C   -0.5955533    0.1859784   -8.6958786  
C    0.1389913   -0.4719600   -9.6550594  
C   -0.3884350   -0.0839245  -10.9222812  
C   -1.4521687    0.8201517  -10.6711973  
N   -1.5523119    0.9604097   -9.3092452  
C   -2.2032884    1.4069936  -11.6940486  
C   -1.8743899    1.0753652  -12.9940598  
O   -2.5752300    1.6198531  -14.0310601  
C   -0.8166368    0.1749840  -13.2647785  
O   -0.6124041   -0.0543495  -14.6097840  
C   -0.0753901   -0.4045370  -12.2561984  
H    0.9539154   -1.1492183   -9.4647620  
H   -2.2124190    1.5484340   -8.8333592  
H   -3.0153314    2.0966703  -11.5092926  
H   -2.1888554    1.2604644  -14.8402693  
H    0.1185319   -0.6725745  -14.7053563  
H    0.7288951   -1.0907818  -12.4942566  
C    2.1601068   -2.0149549   -6.1366355  
C    1.7671249   -1.6323649   -4.8993931  
C    0.6609144   -0.7146341   -5.1242671  
C    0.5173090   -0.6572542   -6.5948687  
N    1.3933522   -1.4175032   -7.1936666  
C   -0.4836763    0.1546051   -7.2304781  
C   -1.3041638    0.8760361   -6.4331878  
O   -2.2822036    1.6762457   -6.8905098  
C   -1.1845243    0.8389691   -4.9457490  
O   -1.9650989    1.5214301   -4.2822952  
C   -0.1496415   -0.0015615   -4.3176961  
H    2.1772046   -1.9355527   -3.9512438  
H   -2.6900308    2.0519823   -6.0894778  
H    2.9557800   -2.6933488   -6.4005662  
C    3.3003543    0.0005276   -1.4738987  
C    2.5232814    0.0003497   -2.6090747  
C    1.1623200   -0.0001320   -2.1820103  
C    1.1711883    0.0000582   -0.7636140  
N    2.4852300   -0.0014919   -0.3662360  
C    0.0000000    0.0000000    0.0000000  
C   -1.2020384    0.0000519   -0.6806477  
O   -2.3759249    0.0003493    0.0157743  
C   -1.2314656   -0.0005115   -2.0955510  
O   -2.5054392   -0.0008039   -2.6250180  
C   -0.0764516   -0.0007274   -2.8495195  
H    2.8919955   -0.0005620   -3.6205304  
H    2.8036267    0.0088183    0.5858662  
H   -3.0835638    0.0000347   -0.6418818  
H   -2.4360047   -0.0011529   -3.5845921  
H    4.3715549    0.0004895   -1.3667136  
C    0.8400945    0.7047457    2.2710304  
C    0.0000000    0.0000000    1.4700000  
C   -0.8844236   -0.7423113    2.3369512  
C   -0.4878984   -0.4098547    3.7186280  
N    0.5629682    0.4714286    3.6095011  
C   -1.0836927   -0.9095027    4.8308716  
C   -2.1891196   -1.8367527    4.6554461  
O   -2.7906899   -2.3413415    5.5944904  
C   -2.6257283   -2.2031529    3.2011665  
O   -3.5549479   -2.9829990    3.0410059  
C   -1.9068976   -1.5999348    2.0816745  
H   -0.7774656   -0.6525820    5.8354244  
H   -2.2155208   -1.8586617    1.0779135  
H    1.6384792    1.3747609    1.9961646  
H    1.0518368    0.8833920    4.3830260  
