66

C   -0.1496416   -0.0015610   -4.3176964  
C    0.8570957   -0.0030495   -5.2552170  
C    0.2320386   -0.0039081   -6.5373647  
C   -1.1692064   -0.0025865   -6.3172808  
N   -1.3663827   -0.0031296   -4.9587018  
C   -2.0987838   -0.0026545   -7.3616348  
C   -1.6048140   -0.0037757   -8.6516622  
O   -2.4683515   -0.0035428   -9.7086931  
C   -0.2100863   -0.0054783   -8.8915542  
O    0.1236728   -0.0068617  -10.2301905  
C    0.7075436   -0.0056854   -7.8617573  
H    1.9121943   -0.0045706   -5.0413047  
H   -2.2604162    0.0081044   -4.5020192  
H   -3.1680130   -0.0017956   -7.2005417  
H   -1.9234604   -0.0047523  -10.5064137  
H    1.0828822   -0.0079365  -10.3044895  
C    3.3003543    0.0005277   -1.4738984  
C    2.5232812    0.0003499   -2.6090751  
C    1.1623199   -0.0001318   -2.1820105  
C    1.1711882    0.0000584   -0.7636141  
N    2.4852300   -0.0014919   -0.3662360  
C    0.0000000    0.0000000    0.0000000  
C   -1.2020385    0.0000521   -0.6806475  
O   -2.3759251    0.0003494    0.0157743  
C   -1.2314656   -0.0005111   -2.0955507  
O   -2.5054392   -0.0008036   -2.6250179  
C   -0.0764517   -0.0007271   -2.8495198  
H    2.8919953   -0.0005617   -3.6205304  
H    2.8036265    0.0088181    0.5858659  
H   -3.0835640    0.0000348   -0.6418820  
H   -2.4360052   -0.0011525   -3.5845925  
H    4.3715548    0.0004896   -1.3667136  
C    2.1484304   -0.0077243   -8.1528609  
C    3.2254726   -0.0094738   -7.2970310  
C    4.4001885   -0.0116553   -8.1061283  
C    3.9738018   -0.0108346   -9.4589477  
N    2.6010084   -0.0103906   -9.4515198  
C    4.8680102   -0.0121832  -10.5337398  
C    6.2172315   -0.0140937  -10.2374726  
O    7.1338160   -0.0151195  -11.2488508  
C    6.6622345   -0.0153144   -8.8940483  
O    8.0356544   -0.0176031   -8.7634451  
C    5.7806405   -0.0142583   -7.8332386  
H    3.1711372   -0.0103153   -6.2218384  
H    2.0162360    0.0007757  -10.2675458  
H    4.5494194   -0.0117119  -11.5670370  
H    8.0038104   -0.0167015  -10.8288853  
H    8.2520279   -0.0182742   -7.8260094  
H    6.1511150   -0.0154197   -6.8147959  
C    2.5285572    2.1210227    2.9438989  
C    1.9331703    1.6216660    4.0790748  
C    0.8903039    0.7472258    3.6520102  
C    0.8972198    0.7527806    2.2336141  
N    1.9028376    1.5986179    1.8362361  
C    0.0000000    0.0000000    1.4700000  
C   -0.9207814   -0.7726952    2.1506477  
O   -1.8198395   -1.5274828    1.4542253  
C   -0.9436862   -0.7911793    3.5655508  
O   -1.9197945   -1.6098497    4.0950179  
C   -0.0590329   -0.0485852    4.3195194  
H    2.2150357    1.8593692    5.0905303  
H    2.1533708    1.7953814    0.8841339  
H   -2.3621246   -1.9821033    2.1118817  
H   -1.8668290   -1.5649508    5.0545920  
H   -0.1007624   -0.0827977    5.4019087  
H    3.3491200    2.8096064    2.8367138  
