66

C    9.0049379    0.0003326   -2.5522789  
C   10.0819819   -0.0023847   -1.6964539  
C   11.2566982   -0.0019791   -2.5055526  
C   10.8303098    0.0013444   -3.8583675  
N    9.4575163    0.0007261   -3.8509401  
C   11.7245178    0.0029244   -4.9331596  
C   13.0737413    0.0014233   -4.6368953  
O   13.9903247    0.0032107   -5.6482731  
C   13.5187445   -0.0022662   -3.2934766  
O   14.8921677   -0.0037807   -3.1628775  
C   12.6371529   -0.0040999   -2.2326680  
H   10.0276480   -0.0055152   -0.6212649  
H    8.8727362    0.0131523   -4.6669413  
H   11.4059269    0.0053128   -5.9664537  
H   14.8603211    0.0014142   -5.2283112  
H   15.1085423   -0.0062464   -2.2254451  
H   13.0076281   -0.0071078   -1.2142294  
C    6.7068651   -0.0034178    1.2828883  
C    7.7136027   -0.0021474    0.3453674  
C    7.0885451   -0.0007420   -0.9367798  
C    5.6872998   -0.0009462   -0.7166947  
N    5.4901253   -0.0045361    0.6418804  
C    4.7577216    0.0005129   -1.7610467  
C    5.2516908    0.0025159   -3.0510728  
O    4.3881528    0.0043528   -4.1081029  
C    6.6464198    0.0023765   -3.2909676  
O    6.9801784    0.0041002   -4.6296034  
C    7.5640501    0.0006642   -2.2611729  
H    8.7687021   -0.0033295    0.5592764  
H    4.5960836    0.0050495    1.0985848  
H    4.9330440    0.0052559   -4.9058233  
H    7.9393877    0.0039071   -4.7039039  
H    6.7604660   -0.0050604    2.3581011  
C    3.3041270    0.0001177   -1.5420435  
C    2.5845370   -0.0004780   -0.3695856  
C    1.2040004   -0.0000007   -0.7283590  
C    1.1422370    0.0006038   -2.1454373  
N    2.4348634    0.0026110   -2.6077469  
C   -0.0655187    0.0008799   -2.8497918  
C   -1.2321769    0.0002326   -2.1101398  
O   -2.4392822    0.0001149   -2.7472517  
C   -1.1911211   -0.0000007   -0.6955263  
O   -2.4371526   -0.0002319   -0.1032858  
C    0.0000000    0.0000000    0.0000000  
H    3.0031534   -0.0000661    0.6222578  
H    2.7054623   -0.0071098   -3.5745266  
H   -0.1193555    0.0014846   -3.9297472  
H   -3.1132992   -0.0000646   -2.0551783  
H   -2.3200279   -0.0004070    0.8516411  
C    2.5285572    2.1210227    2.9438989  
C    1.9331703    1.6216660    4.0790748  
C    0.8903039    0.7472258    3.6520102  
C    0.8972198    0.7527806    2.2336141  
N    1.9028376    1.5986179    1.8362361  
C    0.0000000    0.0000000    1.4700000  
C   -0.9207814   -0.7726952    2.1506477  
O   -1.8198395   -1.5274828    1.4542253  
C   -0.9436862   -0.7911793    3.5655508  
O   -1.9197945   -1.6098497    4.0950179  
C   -0.0590329   -0.0485852    4.3195194  
H    2.2150357    1.8593692    5.0905303  
H    2.1533708    1.7953814    0.8841339  
H   -2.3621246   -1.9821033    2.1118817  
H   -1.8668290   -1.5649508    5.0545920  
H   -0.1007624   -0.0827977    5.4019087  
H    3.3491200    2.8096064    2.8367138  
