60

C   10.3745630   -2.1295341    2.6352190  
C    9.2636010   -1.6656323    1.9696162  
C    9.7273401   -0.7792018    0.9528634  
C   11.1421405   -0.7416800    1.0469687  
N   11.5020642   -1.5712553    2.0798666  
C   11.9363997    0.0329809    0.1961797  
C   11.2906806    0.7831998   -0.7673537  
O   12.0180046    1.5572651   -1.6245806  
C    9.8799106    0.7592588   -0.8767670  
O    9.3869857    1.5605065   -1.8859104  
C    9.0957054   -0.0045218   -0.0376080  
H    8.2442670   -1.9323675    2.1905302  
H   12.4437338   -1.7542952    2.3760630  
H   13.0151343    0.0660329    0.2628290  
H   11.3814975    1.9913286   -2.2074298  
H    8.4277396    1.4869033   -1.8916022  
H   10.4518057   -2.8133649    3.4630880  
C    6.7235409   -0.0015093    0.8630514  
C    5.4473221   -0.0011276    0.3990037  
C    5.5236520   -0.0015785   -1.0428731  
C    6.9592466   -0.0022884   -1.3832521  
N    7.6329842   -0.0018116   -0.1836825  
C    7.4493968   -0.0032608   -2.6487388  
C    6.4996350   -0.0034067   -3.7489603  
O    6.8417408   -0.0041914   -4.9242316  
C    4.9744857   -0.0024120   -3.4117302  
O    4.1654301   -0.0022186   -4.3297117  
C    4.5679461   -0.0016854   -2.0086701  
H    4.5543636   -0.0004091    0.9983692  
H    8.5062544   -0.0038994   -2.8766905  
H    7.0761901   -0.0013786    1.8816429  
C    3.1301149   -0.0010311   -1.7028252  
C    2.5367768   -0.0002767   -0.4864665  
C    1.1089904    0.0001028   -0.7656183  
C    1.0177872   -0.0004148   -2.2415132  
N    2.1993578   -0.0011611   -2.7963820  
C   -0.2459209   -0.0002877   -2.9257118  
C   -1.3675319   -0.0000605   -2.1698524  
O   -2.6129313    0.0000867   -2.6748490  
C   -1.3083584    0.0000910   -0.6783232  
O   -2.3693261    0.0004206   -0.0541692  
C    0.0000000    0.0000000    0.0000000  
H    3.0096017   -0.0001007    0.4807525  
H   -0.2829630   -0.0004687   -4.0053125  
H   -3.1967441    0.0002094   -1.8949034  
C    0.8400945    0.7047457    2.2710304  
C    0.0000000    0.0000000    1.4700000  
C   -0.8844236   -0.7423113    2.3369512  
C   -0.4878984   -0.4098547    3.7186280  
N    0.5629682    0.4714286    3.6095011  
C   -1.0836927   -0.9095027    4.8308716  
C   -2.1891196   -1.8367527    4.6554461  
O   -2.7906899   -2.3413415    5.5944904  
C   -2.6257283   -2.2031529    3.2011665  
O   -3.5549479   -2.9829990    3.0410059  
C   -1.9068976   -1.5999348    2.0816745  
H   -0.7774656   -0.6525820    5.8354244  
H   -2.2155208   -1.8586617    1.0779135  
H    1.6384792    1.3747609    1.9961646  
H    1.0518368    0.8833920    4.3830260  
