62

C    1.9335819   -4.6189569   -7.2550922  
C    1.3598392   -3.5126623   -6.6725124  
C    1.4334872   -2.4545156   -7.6261900  
C    2.0673714   -2.9789594   -8.7816441  
N    2.3595829   -4.2949303   -8.5219305  
C    2.3072841   -2.2126898   -9.9262237  
C    1.8995987   -0.8930382   -9.9040852  
O    2.1089619   -0.0999918  -10.9950747  
C    1.2658318   -0.3514341   -8.7604852  
O    0.9197447    0.9774023   -8.8937553  
C    1.0290744   -1.1067201   -7.6308767  
H    0.9408763   -3.4728831   -5.6816131  
H    2.8029757   -4.9282986   -9.1624200  
H    2.7900631   -2.6064255  -10.8100215  
H    1.7545375    0.7705465  -10.7718897  
H    0.4976155    1.2649966   -8.0784635  
H    2.0739216   -5.6131312   -6.8666583  
C    0.6885597   -0.7240811   -5.1615363  
C    0.3679862   -0.5066230   -6.4630814  
C   -0.7389732    0.4203825   -6.4747895  
C   -1.0391605    0.7273879   -5.0632571  
N   -0.1387079    0.0017019   -4.3179684  
C   -2.0220506    1.5676125   -4.6513659  
C   -2.8389251    2.2124435   -5.6659809  
O   -3.7486897    2.9856811   -5.3962910  
C   -2.5388540    1.9016923   -7.1670462  
O   -3.2201644    2.4384449   -8.0301651  
C   -1.4526781    0.9788645   -7.4871438  
H   -2.2256245    1.7792440   -3.6108468  
H   -1.2512205    0.7691640   -8.5288561  
H    1.4594145   -1.3536502   -4.7476343  
C    3.3041273    0.0001178   -1.5420428  
C    2.5845373   -0.0004780   -0.3695851  
C    1.2040007   -0.0000007   -0.7283589  
C    1.1422374    0.0006038   -2.1454372  
N    2.4348641    0.0026111   -2.6077464  
C   -0.0655179    0.0008799   -2.8497918  
C   -1.2321766    0.0002325   -2.1101402  
O   -2.4392814    0.0001148   -2.7472522  
C   -1.1911209   -0.0000007   -0.6955266  
O   -2.4371528   -0.0002320   -0.1032862  
C    0.0000000    0.0000000    0.0000000  
H    3.0031533   -0.0000660    0.6222584  
H    2.7054631   -0.0071097   -3.5745261  
H   -3.1132988   -0.0000648   -2.0551787  
H   -2.3200282   -0.0004072    0.8516409  
H    4.3686625    0.0004073   -1.7024290  
C    2.5528530    2.1414826    2.8079335  
C    2.0663498    1.7338582    4.0032312  
C    0.9804344    0.8229586    3.6752840  
C    0.9495562    0.7966882    2.1971295  
N    1.8690446    1.5676019    1.6831036  
C    0.0000000    0.0000000    1.4700000  
C   -0.8785127   -0.7372425    2.1869543  
O   -1.8187535   -1.5261249    1.6395491  
C   -0.8723269   -0.7321790    3.6796354  
O   -1.7010379   -1.4274584    4.2670412  
C    0.1115397    0.0933559    4.4024240  
H    2.4028853    2.0163452    4.9860947  
H   -2.2861435   -1.9184361    2.3990168  
H    0.0832434    0.0693689    5.4835595  
H    3.3664920    2.8238276    2.6198634  
