60

C    7.3809014   -2.1238404   -3.9089582  
C    8.6068294   -1.6264129   -4.2859639  
C    8.3801254   -0.7542032   -5.3916115  
C    6.9847617   -0.7590673   -5.6462901  
N    6.4080464   -1.6023691   -4.7293060  
C    6.4003169   -0.0080173   -6.6705639  
C    7.2397407    0.7622054   -7.4517828  
O    6.7216766    1.5152259   -8.4654803  
C    8.6346311    0.7799631   -7.2134913  
O    9.3357058    1.5961040   -8.0770600  
C    9.2119215    0.0390750   -6.2033690  
H    9.5487717   -1.8639395   -3.8219398  
H    5.4259006   -1.7980951   -4.6581585  
H    7.4684400    1.9682685   -8.8782292  
H   10.2690278    1.5508724   -7.8480019  
H   10.2834810    0.0726753   -6.0449147  
H    7.1236621   -2.8104577   -3.1207057  
C    2.8699641   -0.0020527   -4.0185824  
C    4.1345929   -0.0036612   -4.5133415  
C    4.0234321   -0.0055085   -5.9529508  
C    2.5800295   -0.0048103   -6.2585307  
N    1.9354846   -0.0030990   -5.0430271  
C    2.0594335   -0.0056967   -7.5117997  
C    2.9823235   -0.0076817   -8.6346561  
O    2.6119087   -0.0086656   -9.8013149  
C    4.5151780   -0.0087033   -8.3343880  
O    5.3018074   -0.0106812   -9.2716564  
C    4.9555130   -0.0073181   -6.9415653  
H    5.0417776   -0.0037471   -3.9357352  
H    0.9973748   -0.0050302   -7.7141396  
H    0.9396388   -0.0007141   -4.9192032  
C    3.2573673   -0.0002921   -1.5109381  
C    2.5379469   -0.0001710   -0.3591962  
C    1.1435042    0.0000332   -0.7338498  
C    1.1092607   -0.0000083   -2.2088474  
N    2.4227562    0.0001908   -2.6182610  
C   -0.0265532   -0.0002523   -2.9515663  
C   -1.3003033   -0.0002639   -2.2514979  
O   -2.3786784   -0.0004132   -2.8306425  
C   -1.2877726    0.0000312   -0.6895609  
O   -2.3539956    0.0003308   -0.0892035  
C    0.0000000    0.0000000    0.0000000  
H    2.9384091   -0.0000368    0.6389240  
H   -0.0296292   -0.0004086   -4.0327231  
H    4.3270395   -0.0004765   -1.6439444  
C    0.8681109    0.7263879    2.2709268  
C    0.6127770    0.5096195    3.5869401  
C   -0.4920590   -0.4175482    3.6542670  
C   -0.8620974   -0.7254003    2.2596025  
N    0.0000000    0.0000000    1.4700000  
C   -1.8641242   -1.5660088    1.8976294  
C   -2.6293522   -2.2103885    2.9520183  
O   -3.5512764   -2.9839180    2.7283916  
C   -2.2549728   -1.8987399    4.4361073  
O   -2.8923672   -2.4351063    5.3323774  
C   -1.1543735   -0.9755647    4.7012123  
H    1.1382914    0.9492124    4.4159191  
H   -2.1192137   -1.7782617    0.8686553  
H   -0.9013378   -0.7652422    5.7314848  
H    1.6172880    1.3558399    1.8188057  
