64

C    4.7212073   -1.0726103   -4.9922764  
C    5.5553990   -1.9586563   -4.3507835  
C    6.6466881   -2.2160369   -5.2325121  
C    6.4221725   -1.4524555   -6.4065913  
N    5.2435709   -0.7714749   -6.2283196  
C    7.3008517   -1.4613626   -7.4940804  
C    8.4268413   -2.2553338   -7.3944063  
O    9.3182757   -2.3009468   -8.4270130  
C    8.6681101   -3.0246686   -6.2313369  
O    9.8319373   -3.7635526   -6.2851693  
C    7.8015658   -3.0165761   -5.1582290  
H    5.3963075   -2.3698538   -3.3686435  
H    4.8324024   -0.1395737   -6.8913597  
H    7.1353690   -0.8817806   -8.3918012  
H   10.0202970   -2.9063533   -8.1551396  
H    9.9195939   -4.2533671   -5.4617607  
H    8.0127730   -3.6164793   -4.2807410  
C    2.8410611   -0.7209473   -3.3424823  
C    1.6707636   -0.0012343   -3.2725974  
C    1.5557841    0.7262498   -4.4941317  
C    2.6948102    0.4076464   -5.2770984  
N    3.4554127   -0.4719559   -4.5474404  
C    2.9129646    0.9459797   -6.5488670  
C    1.9638386    1.8216629   -7.0392924  
O    2.1270892    2.3761842   -8.2757666  
C    0.8208870    2.1521893   -6.2729825  
O   -0.0311431    3.0381791   -6.8994098  
C    0.6051603    1.6216986   -5.0181644  
H    3.7790872    0.7072878   -7.1505813  
H    1.3626854    2.9486851   -8.4213469  
H   -0.7762619    3.2083628   -6.3150818  
H   -0.2796638    1.8936685   -4.4546064  
H    3.2868713   -1.3910859   -2.6275514  
C    1.0965514    0.0001358   -0.8010306  
C    0.0000000    0.0000000    0.0000000  
C   -1.1546565    0.0001470   -0.8669508  
C   -0.6372019    0.0003520   -2.2486278  
N    0.7342867    0.0007338   -2.1395012  
C   -1.4147744    0.0001354   -3.3608712  
C   -2.8576052   -0.0001047   -3.1854454  
O   -3.6427785   -0.0002490   -4.1244896  
C   -3.4275841   -0.0000727   -1.7311660  
O   -4.6406832    0.0000333   -1.5710049  
C   -2.4891868   -0.0001090   -0.6116739  
H   -1.0150456    0.0001617   -4.3654239  
H   -2.8919122   -0.0002919    0.3920871  
H    2.1388270    0.0000663   -0.5261650  
C    2.5285572    2.1210227    2.9438989  
C    1.9331703    1.6216660    4.0790748  
C    0.8903039    0.7472258    3.6520102  
C    0.8972198    0.7527806    2.2336141  
N    1.9028376    1.5986179    1.8362361  
C    0.0000000    0.0000000    1.4700000  
C   -0.9207814   -0.7726952    2.1506477  
O   -1.8198395   -1.5274828    1.4542253  
C   -0.9436862   -0.7911793    3.5655508  
O   -1.9197945   -1.6098497    4.0950179  
C   -0.0590329   -0.0485852    4.3195194  
H    2.2150357    1.8593692    5.0905303  
H    2.1533708    1.7953814    0.8841339  
H   -2.3621246   -1.9821033    2.1118817  
H   -1.8668290   -1.5649508    5.0545920  
H   -0.1007624   -0.0827977    5.4019087  
H    3.3491200    2.8096064    2.8367138  
