62

C    8.1074188    0.0312211   -1.0614715  
C    8.4308210    0.0306319    0.2756443  
C    9.8546901    0.0426619    0.3596292  
C   10.3499661    0.0505564   -0.9694927  
N    9.2626761    0.0413622   -1.8075458  
C   11.7159126    0.0634350   -1.2675071  
C   12.5979461    0.0687421   -0.2044139  
O   13.9425573    0.0816284   -0.4386559  
C   12.1231305    0.0606473    1.1287412  
O   13.1260862    0.0669758    2.0760451  
C   10.7757313    0.0476682    1.4234812  
H    7.7270566    0.0214234    1.0902751  
H    9.3029638    0.0545082   -2.8106335  
H   12.0998014    0.0693589   -2.2783464  
H   14.3705847    0.0829997    0.4274016  
H   12.7205076    0.0608508    2.9484398  
H   10.4419015    0.0415267    2.4544983  
C    5.5764485    0.0082717   -1.0736981  
C    6.7920324    0.0210387   -1.7176388  
C    6.5213451    0.0206190   -3.1181130  
C    5.1110777    0.0075046   -3.2694402  
N    4.5679461   -0.0016854   -2.0086701  
C    4.4845816    0.0037915   -4.5193514  
C    5.2965308    0.0138010   -5.6368558  
O    4.7370949    0.0110807   -6.8818609  
C    6.7056518    0.0265710   -5.5063510  
O    7.3755167    0.0350354   -6.7123995  
C    7.3243927    0.0299677   -4.2736002  
H    3.4102466   -0.0063309   -4.6414310  
H    5.4703979    0.0190335   -7.5107242  
H    8.3210797    0.0434622   -6.5350732  
H    8.4059103    0.0396466   -4.2050110  
H    5.3490389    0.0040348   -0.0214503  
C    3.1301149   -0.0010311   -1.7028252  
C    2.5367768   -0.0002767   -0.4864665  
C    1.1089904    0.0001028   -0.7656183  
C    1.0177872   -0.0004148   -2.2415132  
N    2.1993578   -0.0011611   -2.7963820  
C   -0.2459209   -0.0002877   -2.9257118  
C   -1.3675319   -0.0000605   -2.1698524  
O   -2.6129313    0.0000867   -2.6748490  
C   -1.3083584    0.0000910   -0.6783232  
O   -2.3693261    0.0004206   -0.0541692  
C    0.0000000    0.0000000    0.0000000  
H    3.0096017   -0.0001007    0.4807525  
H   -0.2829630   -0.0004687   -4.0053125  
H   -3.1967441    0.0002094   -1.8949034  
C    0.8400945    0.7047457    2.2710304  
C    0.0000000    0.0000000    1.4700000  
C   -0.8844236   -0.7423113    2.3369512  
C   -0.4878984   -0.4098547    3.7186280  
N    0.5629682    0.4714286    3.6095011  
C   -1.0836927   -0.9095027    4.8308716  
C   -2.1891196   -1.8367527    4.6554461  
O   -2.7906899   -2.3413415    5.5944904  
C   -2.6257283   -2.2031529    3.2011665  
O   -3.5549479   -2.9829990    3.0410059  
C   -1.9068976   -1.5999348    2.0816745  
H   -0.7774656   -0.6525820    5.8354244  
H   -2.2155208   -1.8586617    1.0779135  
H    1.6384792    1.3747609    1.9961646  
H    1.0518368    0.8833920    4.3830260  
