62

C   -4.6625845    2.1256785   -4.2960608  
C   -3.6009511    1.6639963   -5.0391959  
C   -4.1342690    0.7771849   -6.0208974  
C   -5.5387368    0.7371545   -5.8264901  
N   -5.8257510    1.5656662   -4.7701713  
C   -6.3901322   -0.0385339   -6.6190939  
C   -5.8132502   -0.7872197   -7.6264934  
O   -6.5983391   -1.5621928   -8.4302761  
C   -4.4138683   -0.7607708   -7.8358910  
O   -3.9925485   -1.5607327   -8.8779533  
C   -3.5733089    0.0040249   -7.0541789  
H   -2.5689505    1.9324170   -4.8911484  
H   -6.7442985    1.7469379   -4.4076926  
H   -7.4613424   -0.0734967   -6.4759569  
H   -6.0041285   -1.9948999   -9.0571275  
H   -3.0362603   -1.4854532   -8.9517719  
H   -4.6819580    2.8090255   -3.4644236  
C   -0.1387078    0.0017019   -4.3179684  
C    0.8715321    0.0021966   -5.2254318  
C    0.2617557    0.0029742   -6.5342509  
C   -1.1970047    0.0029207   -6.3133239  
N   -1.3734972    0.0017350   -4.9488690  
C   -2.1246669    0.0039288   -7.3038527  
C   -1.6550225    0.0049220   -8.6793414  
O   -2.4116501    0.0058069   -9.6415332  
C   -0.1143765    0.0047446   -8.9366640  
O    0.2928835    0.0052679  -10.0905275  
C    0.7871616    0.0038971   -7.7872816  
H    1.9238030    0.0018530   -5.0033071  
H    1.8524583    0.0039850   -7.9740077  
H   -2.2623839    0.0029672   -4.4831157  
C    3.3041272    0.0001178   -1.5420428  
C    2.5845372   -0.0004779   -0.3695851  
C    1.2040007   -0.0000007   -0.7283589  
C    1.1422375    0.0006038   -2.1454371  
N    2.4348641    0.0026111   -2.6077464  
C   -0.0655179    0.0008799   -2.8497918  
C   -1.2321766    0.0002325   -2.1101402  
O   -2.4392816    0.0001148   -2.7472523  
C   -1.1911209   -0.0000007   -0.6955266  
O   -2.4371527   -0.0002320   -0.1032863  
C    0.0000000    0.0000000    0.0000000  
H    3.0031533   -0.0000660    0.6222584  
H    2.7054632   -0.0071097   -3.5745261  
H   -3.1132986   -0.0000648   -2.0551788  
H   -2.3200284   -0.0004071    0.8516409  
H    4.3686626    0.0004072   -1.7024289  
C    0.0000000    0.0000000    1.4700000  
C    1.0662921    0.0000102    2.3034270  
C    0.4961870   -0.0000064    3.6418889  
C   -0.9663858    0.0000850    3.4240247  
N   -1.2632773    0.0000084    2.1528658  
C   -1.8985362    0.0000517    4.5177257  
C   -1.3925775   -0.0004564    5.7720543  
O   -2.1456383   -0.0005410    6.8851312  
C    0.0786232   -0.0009323    6.0245000  
O    0.4683759   -0.0012588    7.1921102  
C    1.0143166   -0.0008442    4.8859032  
H    2.1107198   -0.0000632    2.0421868  
H   -2.9622183    0.0003270    4.3293377  
H   -1.5042274   -0.0009692    7.6184419  
H    2.0724152   -0.0013148    5.1109744  
