62

C    1.1188644    0.0008222   -0.8003801  
C    0.0000000    0.0000000    0.0000000  
C   -1.1323860    0.0008896   -0.8673528  
C   -0.6382657    0.0019677   -2.1969276  
N    0.7324021    0.0038479   -2.1202232  
C   -1.4770905    0.0027313   -3.3154810  
C   -2.8395469    0.0020939   -3.0876861  
O   -3.7039192    0.0024417   -4.1440353  
C   -3.3517864    0.0013925   -1.7684334  
O   -4.7300488    0.0012359   -1.7073129  
C   -2.5248543    0.0009118   -0.6644815  
H    1.3576321   -0.0056169   -2.9057036  
H   -4.5940026    0.0021818   -3.7685138  
H   -4.9934596    0.0007255   -0.7819925  
H   -2.9462582    0.0005600    0.3339656  
H    2.1619894    0.0009355   -0.5342064  
C    1.8836783   -2.1362887   -5.0810755  
C    1.8358595   -1.7275863   -6.3703601  
C    0.7030376   -0.8169594   -6.4333924  
C    0.1677643   -0.7920101   -5.0551891  
N    0.8558157   -1.5634008   -4.2579870  
C   -0.9736285    0.0040458   -4.6965762  
C   -1.5536714    0.7419460   -5.6704279  
O   -2.6247563    1.5303568   -5.4774864  
C   -1.0366283    0.7382173   -7.0707186  
O   -1.6142386    1.4340375   -7.9058357  
C    0.1355216   -0.0866900   -7.4135263  
H   -2.8038810    1.9233557   -6.3507665  
H    0.4792091   -0.0617357   -8.4389466  
H    2.5838933   -2.8188171   -4.6262934  
C    2.7273128   -2.1121042   -7.4741525  
C    3.7920053   -2.9549116   -7.4607255  
C    4.3217025   -2.9854667   -8.8036045  
C    3.4722593   -2.0848949   -9.6062297  
N    2.5245246   -1.5876805   -8.7416683  
C    3.6465033   -1.8404271  -10.9297017  
C    4.7437620   -2.5090700  -11.6090204  
O    4.9832923   -2.3545120  -12.7994154  
C    5.6558903   -3.4673540  -10.7786474  
O    6.5826328   -4.0361169  -11.3398219  
C    5.3687737   -3.6505083   -9.3581297  
H    4.1637554   -3.4938485   -6.6075182  
H    3.0120974   -1.1761031  -11.4998881  
H    6.0051530   -4.3155220   -8.7902370  
H    1.7987047   -0.9416232   -8.9923539  
C    0.8676693    0.7151171    2.2619005  
C    0.5875920    0.4624972    3.5848544  
C   -0.5048400   -0.4542819    3.6114698  
C   -0.8517165   -0.7276451    2.2635546  
N    0.0000000    0.0000000    1.4700000  
C   -1.8902865   -1.5946756    1.9108239  
C   -2.5912627   -2.1969500    2.9375057  
O   -3.6148162   -3.0527051    2.6493466  
C   -2.2603868   -1.9365747    4.2886322  
O   -3.0513550   -2.6123276    5.1947621  
C   -1.2361111   -1.0811317    4.6373480  
H    1.1060808    0.8876438    4.4271209  
H   -2.1597133   -1.8070987    0.8854031  
H   -3.9636755   -3.3565188    3.4974381  
H   -2.7621927   -2.3810384    6.0827341  
H   -1.0058879   -0.9010589    5.6809233  
H    1.6167816    1.3499334    1.8205408  
