62

C   -0.4520082   -0.8891212   -9.5333907  
C   -0.5846148    0.1941865   -8.6959373  
C   -0.8447940    1.3285735   -9.5206025  
C   -0.8598172    0.8722115  -10.8635228  
N   -0.6160492   -0.4784981  -10.8356300  
C   -1.0886751    1.7232330  -11.9489602  
C   -1.3066339    3.0592341  -11.6736921  
O   -1.5355664    3.9339348  -12.6961902  
C   -1.2951475    3.5337307  -10.3404491  
O   -1.5280412    4.8891210  -10.2308050  
C   -1.0691710    2.6947944   -9.2691660  
H   -0.5774351   -1.0779900  -11.6400540  
H   -1.1012554    1.3816611  -12.9748112  
H   -1.6605498    4.8016691  -12.2903811  
H   -1.5034899    5.1275494   -9.2990576  
H   -1.0661112    3.0871385   -8.2589519  
H   -0.2519715   -1.9219561   -9.3049246  
C    2.1709840   -2.0097061   -6.1391753  
C    1.7780128   -1.6284990   -4.9015026  
C    0.6718280   -0.7104844   -5.1253423  
C    0.5282240   -0.6514437   -6.5958784  
N    1.4042460   -1.4110422   -7.1955325  
C   -0.4727385    0.1611592   -7.2305726  
C   -1.2932056    0.8817145   -6.4324696  
O   -2.2712229    1.6824661   -6.8888896  
C   -1.1735672    0.8429685   -4.9450740  
O   -1.9541225    1.5247035   -4.2808516  
C   -0.1387079    0.0017019   -4.3179684  
H    2.1880842   -1.9327664   -3.9536955  
H   -2.6790397    2.0573117   -6.0874357  
H    2.9666381   -2.6878246   -6.4038701  
C    3.3041273    0.0001178   -1.5420428  
C    2.5845373   -0.0004780   -0.3695851  
C    1.2040007   -0.0000007   -0.7283589  
C    1.1422374    0.0006038   -2.1454372  
N    2.4348641    0.0026111   -2.6077464  
C   -0.0655179    0.0008799   -2.8497918  
C   -1.2321766    0.0002325   -2.1101402  
O   -2.4392814    0.0001148   -2.7472522  
C   -1.1911209   -0.0000007   -0.6955266  
O   -2.4371528   -0.0002320   -0.1032862  
C    0.0000000    0.0000000    0.0000000  
H    3.0031533   -0.0000660    0.6222584  
H    2.7054631   -0.0071097   -3.5745261  
H   -3.1132988   -0.0000648   -2.0551787  
H   -2.3200282   -0.0004072    0.8516409  
H    4.3686625    0.0004073   -1.7024290  
C    0.0000000    0.0000000    1.4700000  
C    1.0662921    0.0000102    2.3034270  
C    0.4961870   -0.0000064    3.6418889  
C   -0.9663858    0.0000850    3.4240247  
N   -1.2632773    0.0000084    2.1528658  
C   -1.8985362    0.0000517    4.5177257  
C   -1.3925775   -0.0004564    5.7720543  
O   -2.1456383   -0.0005410    6.8851312  
C    0.0786232   -0.0009323    6.0245000  
O    0.4683759   -0.0012588    7.1921102  
C    1.0143166   -0.0008442    4.8859032  
H    2.1107198   -0.0000632    2.0421868  
H   -2.9622183    0.0003270    4.3293377  
H   -1.5042274   -0.0009692    7.6184419  
H    2.0724152   -0.0013148    5.1109744  
