60

C    8.5021035   -3.0280894   -4.0320767  
C    9.5875950   -2.2383317   -4.3328384  
C    9.1012071   -0.9077245   -4.4987055  
C    7.6995339   -0.9472789   -4.2849892  
N    7.3684377   -2.2499772   -4.0057583  
C    6.8894657    0.1892330   -4.3681673  
C    7.5056461    1.3875567   -4.6723386  
O    6.7619224    2.5282482   -4.7656694  
C    8.9028437    1.4472122   -4.8893593  
O    9.3661374    2.7130127   -5.1833822  
C    9.7025755    0.3263678   -4.8077305  
H   10.6046929   -2.5795173   -4.4228238  
H    6.4437506   -2.5823879   -3.7997519  
H    7.3786277    3.2392302   -4.9834839  
H   10.3179223    2.6654629   -5.3154745  
H   10.7699106    0.4029333   -4.9792256  
H    8.4466386   -4.0851138   -3.8356580  
C    4.5414472   -2.0136866   -1.4319366  
C    3.2784306   -1.6314299   -1.7323495  
C    3.4206903   -0.7132108   -2.8517850  
C    4.8766551   -0.6552127   -3.1035522  
N    5.5387696   -1.4155491   -2.2744067  
C    5.4363359    0.1572548   -4.1484160  
C    4.5803865    0.8786769   -4.9075173  
O    4.9639647    1.6794178   -5.9163398  
C    3.1058537    0.8409940   -4.6783999  
O    2.3863360    1.5234829   -5.4075938  
C    2.5562217   -0.0001543   -3.6003001  
H    2.3632541   -1.9351317   -1.2535045  
H    4.1348748    2.0549943   -6.2637662  
H    4.8636452   -2.6922678   -0.6581863  
C    0.0000000    0.0000000    0.0000000  
C    1.0541688   -0.0001719   -0.8560391  
C    0.5103141   -0.0000449   -2.1935955  
C   -0.9576367    0.0002461   -2.0455733  
N   -1.2018459   -0.0001392   -0.6915970  
C   -1.8348306    0.0008319   -3.0810611  
C   -1.2972842    0.0009739   -4.4314605  
O   -2.0050664    0.0014267   -5.4301321  
C    0.2542628    0.0004190   -4.6117571  
O    0.7184677    0.0002263   -5.7439119  
C    1.0974556    0.0000880   -3.4189127  
H    2.0940752   -0.0005479   -0.5817978  
H   -2.9081050    0.0011669   -2.9507065  
H   -2.1128195    0.0014911   -0.2706793  
C    1.0965515   -0.0001358    2.2710304  
C    0.0000000    0.0000000    1.4700000  
C   -1.1546562   -0.0001469    2.3369512  
C   -0.6372014   -0.0003519    3.7186280  
N    0.7342871   -0.0007337    3.6095011  
C   -1.4147739   -0.0001353    4.8308716  
C   -2.8576048    0.0001048    4.6554461  
O   -3.6427778    0.0002493    5.5944904  
C   -3.4275839    0.0000726    3.2011665  
O   -4.6406829   -0.0000333    3.0410059  
C   -2.4891866    0.0001091    2.0816745  
H   -1.0150448   -0.0001615    5.8354244  
H   -2.8919121    0.0002919    1.0779135  
H    2.1388271   -0.0000662    1.9961646  
H    1.3735872    0.0006099    4.3830260  
