66

C    5.6781998   -2.1507676   -4.8062447  
C    4.8322905   -1.6772295   -3.8301983  
C    3.9133766   -0.7927567   -4.4688723  
C    4.2502405   -0.7663051   -5.8464606  
N    5.3273091   -1.6003055   -6.0167060  
C    3.5514907    0.0035824   -6.7812392  
C    2.4932129    0.7603219   -6.3169421  
O    1.7765738    1.5301403   -7.1868969  
C    2.1420060    0.7474442   -4.9460650  
O    1.0653090    1.5541059   -4.6405098  
C    2.8310662   -0.0116220   -4.0232752  
H    4.8732706   -1.9364494   -2.7861105  
H    3.8033243    0.0282020   -7.8325120  
H    1.0939352    1.9700463   -6.6636835  
H    0.8940125    1.4879154   -3.6961153  
H    6.5049775   -2.8365149   -4.7344948  
C    6.4678646   -3.1082247   -7.6917434  
C    7.0408427   -2.9947802   -8.9372532  
C    6.9138099   -1.6297741   -9.3312336  
C    6.2496457   -0.9523125   -8.2767871  
N    5.9915468   -1.8796400   -7.2979793  
C    5.9552533    0.4137142   -8.3225308  
C    6.3385800    1.1085675   -9.4532025  
O    6.0760947    2.4445160   -9.5499307  
C    7.0018874    0.4502225  -10.5159465  
O    7.3180255    1.2792669  -11.5723959  
C    7.2923939   -0.8974297  -10.4716160  
H    7.4935811   -3.7973821   -9.4938958  
H    5.4491724    0.9358957   -7.5222748  
H    6.4217196    2.7294136  -10.4058760  
H    7.7630903    0.7566729  -12.2464992  
H    7.8013492   -1.3743189  -11.3010854  
H    6.3599934   -3.9686035   -7.0537216  
C    3.3041270    0.0001177   -1.5420434  
C    2.5845372   -0.0004781   -0.3695856  
C    1.2040006   -0.0000008   -0.7283592  
C    1.1422371    0.0006037   -2.1454375  
N    2.4348636    0.0026109   -2.6077467  
C   -0.0655183    0.0008798   -2.8497920  
C   -1.2321770    0.0002326   -2.1101400  
O   -2.4392818    0.0001147   -2.7472520  
C   -1.1911210   -0.0000007   -0.6955263  
O   -2.4371527   -0.0002320   -0.1032859  
C    0.0000000    0.0000000    0.0000000  
H    3.0031533   -0.0000660    0.6222577  
H   -0.1193553    0.0014844   -3.9297472  
H   -3.1132989   -0.0000648   -2.0551784  
H   -2.3200282   -0.0004069    0.8516410  
H    4.3686624    0.0004070   -1.7024294  
C    2.5311839    2.1237619    3.0120429  
C    1.9795631    1.6616747    1.8395852  
C    0.9223175    0.7739173    2.1983588  
C    0.8753926    0.7337535    3.6154372  
N    1.8668922    1.5631002    4.0777464  
C   -0.0496243   -0.0427881    4.3197917  
C   -0.9437528   -0.7922060    3.5801400  
O   -1.8685244   -1.5680278    4.2172520  
C   -0.9124520   -0.7656372    2.1655264  
O   -1.8671164   -1.5663939    1.5732860  
C    0.0000000    0.0000000    1.4700000  
H    2.3005065    1.9304404    0.8477417  
H    2.0679347    1.7444845    5.0445261  
H   -0.0904770   -0.0778569    5.3997470  
H   -2.3849669   -2.0011402    3.5251786  
H   -1.7775064   -1.4909735    0.6183591  
H    3.3468514    2.8078103    3.1724291  
