62

C    2.1864102    0.0732509   -7.3608002  
C    2.9063880    0.0612830   -6.1886416  
C    4.2868055    0.0637716   -6.5478648  
C    4.3480997    0.0778407   -7.9648941  
N    3.0553196    0.0813412   -8.4267645  
C    5.5556221    0.0842119   -8.6696196  
C    6.7225251    0.0765422   -7.9303938  
O    7.9294189    0.0826098   -8.5678756  
C    6.6819372    0.0621162   -6.5158397  
O    7.9281643    0.0555167   -5.9240478  
C    5.4910468    0.0555506   -5.8199504  
H    2.4880994    0.0508068   -5.1967153  
H    2.7844065    0.1012439   -9.3933000  
H    5.6091017    0.0947862   -9.7495403  
H    8.6036652    0.0752365   -7.8760644  
H    7.8113558    0.0458452   -4.9691310  
H    5.4914046    0.0443029   -4.7362755  
C   -1.2456296    0.0472577   -4.5828766  
C    0.0002605    0.0520440   -5.1230708  
C   -0.1629401    0.0660970   -6.5576454  
C   -1.6164586    0.0691565   -6.8107554  
N   -2.2165808    0.0569155   -5.5727758  
C   -2.1820808    0.0818099   -8.0442937  
C   -1.3004427    0.0929474   -9.1997691  
O   -1.7128462    0.1046490  -10.3521963  
C    0.2422773    0.0896873   -8.9552087  
O    0.9944632    0.0986749   -9.9202982  
C    0.7327432    0.0759266   -7.5793068  
H    0.9277599    0.0461944   -4.5787142  
H   -3.2507684    0.0839639   -8.2080410  
H   -3.2072922    0.0572149   -5.4129706  
C    1.1243418    0.0099155   -0.7919003  
C    0.7474093    0.0234033   -2.1148542  
C   -0.6787365    0.0234953   -2.1414700  
C   -1.1201738    0.0099357   -0.7935546  
N    0.0000000    0.0000000    0.0000000  
C   -2.4730811    0.0065398   -0.4408241  
C   -3.3971945    0.0173300   -1.4675058  
O   -4.7313507    0.0149490   -1.1793472  
C   -2.9763626    0.0305537   -2.8186325  
O   -4.0166449    0.0397860   -3.7247623  
C   -1.6418538    0.0336381   -3.1673481  
H    1.4178738    0.0310004   -2.9571209  
H   -2.8160170   -0.0039189    0.5845965  
H   -5.1938800    0.0234412   -2.0274384  
H   -3.6464643    0.0484782   -4.6127344  
H    2.1062469    0.0051381   -0.3505407  
C    0.8175213    0.6860729    2.3021913  
C    0.0000000    0.0000000    1.4700000  
C   -0.8887526   -0.7456559    2.3478473  
C   -0.4549825   -0.3816753    3.7138435  
N    0.5448156    0.4573574    3.6934124  
C   -1.0945674   -0.9182058    4.8835240  
C   -2.1210866   -1.7789155    4.6970523  
O   -2.8083856   -2.3554314    5.6976972  
C   -2.5824069   -2.1655116    3.3310774  
O   -3.5227682   -2.9541547    3.2362962  
C   -1.9100805   -1.6015804    2.1470656  
H   -0.7567140   -0.6349833    5.8697035  
H   -3.4728268   -2.9124471    5.2533954  
H   -2.2742832   -1.9066565    1.1752040  
H    1.6189533    1.3585343    2.0405121  
