62

C   10.2265985    0.0009333    3.6051029  
C    9.4059477    0.0008310    2.5010198  
C    8.0626327    0.0007274    2.9807113  
C    8.1266793    0.0010598    4.3976887  
N    9.4551862   -0.0007730    4.7436417  
C    6.9860874    0.0013671    5.2062912  
C    5.7584774    0.0016453    4.5729264  
O    4.6125752    0.0023022    5.3144934  
C    5.6740231    0.0009453    3.1602394  
O    4.3804149    0.0009121    2.6807392  
C    6.7988284    0.0003686    2.3619039  
H    9.7350300   -0.0002743    1.4759852  
H    9.8103869    0.0095556    5.6826334  
H    7.0281569    0.0014772    6.2867686  
H    3.8798847    0.0020946    4.6848666  
H    4.4124626    0.0004483    1.7191901  
H   11.3011581    0.0006428    3.6705308  
C    6.6685718   -0.0005968    0.8976869  
C    7.6427403   -0.0013906   -0.0483945  
C    6.9825048   -0.0021117   -1.3324984  
C    5.5334439   -0.0016404   -1.0549837  
N    5.4101714   -0.0011225    0.3153058  
C    4.5679461   -0.0016854   -2.0086701  
C    4.9837195   -0.0024606   -3.4013895  
O    4.1902291   -0.0026238   -4.3334162  
C    6.5131871   -0.0032216   -3.7184587  
O    6.8752458   -0.0041842   -4.8872932  
C    7.4587610   -0.0028168   -2.6050218  
H    8.7028574   -0.0016452    0.1326221  
H    8.5159864   -0.0031433   -2.8330534  
H    4.5400786    0.0008355    0.8152880  
C    3.1301149   -0.0010311   -1.7028252  
C    2.5367768   -0.0002767   -0.4864665  
C    1.1089904    0.0001028   -0.7656183  
C    1.0177872   -0.0004148   -2.2415132  
N    2.1993578   -0.0011611   -2.7963820  
C   -0.2459209   -0.0002877   -2.9257118  
C   -1.3675319   -0.0000605   -2.1698524  
O   -2.6129313    0.0000867   -2.6748490  
C   -1.3083584    0.0000910   -0.6783232  
O   -2.3693261    0.0004206   -0.0541692  
C    0.0000000    0.0000000    0.0000000  
H    3.0096017   -0.0001007    0.4807525  
H   -0.2829630   -0.0004687   -4.0053125  
H   -3.1967441    0.0002094   -1.8949034  
C    0.8676693    0.7151171    2.2619005  
C    0.5875920    0.4624972    3.5848544  
C   -0.5048400   -0.4542819    3.6114698  
C   -0.8517165   -0.7276451    2.2635546  
N    0.0000000    0.0000000    1.4700000  
C   -1.8902865   -1.5946756    1.9108239  
C   -2.5912627   -2.1969500    2.9375057  
O   -3.6148162   -3.0527051    2.6493466  
C   -2.2603868   -1.9365747    4.2886322  
O   -3.0513550   -2.6123276    5.1947621  
C   -1.2361111   -1.0811317    4.6373480  
H    1.1060808    0.8876438    4.4271209  
H   -2.1597133   -1.8070987    0.8854031  
H   -3.9636755   -3.3565188    3.4974381  
H   -2.7621927   -2.3810384    6.0827341  
H   -1.0058879   -0.9010589    5.6809233  
H    1.6167816    1.3499334    1.8205408  
