62

C    0.9857760   -0.0077417   -8.7876914  
C    2.0830274   -0.6819687   -9.2713511  
C    2.2227651   -0.3195270  -10.6438335  
C    1.1734519    0.5864426  -10.9439787  
N    0.4399582    0.7523939   -9.7954743  
C    1.0016810    1.1517407  -12.2111495  
C    1.9058330    0.7962227  -13.1931349  
O    1.7847450    1.3190338  -14.4481329  
C    2.9592243   -0.1064426  -12.9131732  
O    3.7756915   -0.3608626  -13.9957614  
C    3.1291275   -0.6647188  -11.6633796  
H    2.7054241   -1.3533821   -8.7049413  
H   -0.3629047    1.3476925   -9.7005423  
H    0.2039260    1.8427311  -12.4463562  
H    2.5063945    0.9452689  -14.9704223  
H    4.4602198   -0.9789215  -13.7218488  
H    3.9453711   -1.3533142  -11.4788234  
C    2.0577022   -2.1067621   -5.0538573  
C    2.0213370   -1.6421659   -6.3293585  
C    0.8918566   -0.7471757   -6.4193649  
C    0.2687258   -0.7282841   -5.0821507  
N    1.0227496   -1.5732442   -4.3008819  
C   -0.8287665    0.0000939   -4.7555305  
C   -1.4369815    0.8199926   -5.7901200  
O   -2.4278330    1.5117412   -5.5951879  
C   -0.7938991    0.8150424   -7.2135759  
O   -1.2973732    1.5011518   -8.0927957  
C    0.3886479   -0.0108729   -7.4444391  
H    2.7073333   -1.8974440   -7.1173025  
H    2.7533683   -2.7941806   -4.6006523  
H    0.8492696   -1.7702611   -3.3323078  
C    1.0672569   -0.0000698   -0.8321910  
C    0.0000000    0.0000000    0.0000000  
C   -1.1601223   -0.0000736   -0.8778472  
C   -0.5938729   -0.0000768   -2.2438435  
N    0.7113367   -0.0001553   -2.2234123  
C   -1.4286985   -0.0001877   -3.4135239  
C   -2.7683113   -0.0006798   -3.2270524  
O   -3.6653902   -0.0008302   -4.2276970  
C   -3.3702024   -0.0010610   -1.8610774  
O   -4.5974910   -0.0013779   -1.7662963  
C   -2.4926825   -0.0008943   -0.6770658  
H   -4.5324245   -0.0012258   -3.7833954  
H   -2.9677772   -0.0012974    0.2947961  
H    2.1134391   -0.0000547   -0.5705119  
C    0.0000000    0.0000000    1.4700000  
C    1.0521667    0.0011902    2.3562342  
C    0.4917218    0.0011957    3.6679131  
C   -0.9187428   -0.0003148    3.5178682  
N   -1.1833171    0.0009411    2.1707914  
C   -1.7951701   -0.0010350    4.6072090  
C   -1.2375837   -0.0005224    5.8710424  
O   -2.0474215   -0.0015360    6.9697579  
C    0.1673580    0.0013566    6.0411963  
O    0.5673524    0.0020687    7.3615553  
C    1.0325770    0.0023412    4.9669890  
H    2.0953057    0.0030649    2.0900562  
H   -2.0989778   -0.0102372    1.7591824  
H   -2.8710934   -0.0020419    4.4995513  
H   -1.4634884   -0.0006497    7.7393593  
H    1.5290710    0.0033153    7.3880045  
H    2.1042148    0.0039609    5.1284455  
