62

C   -4.5497374    0.7866097   -7.5171294  
C   -5.8148533    0.5414138   -7.9986149  
C   -5.6751442   -0.3566457   -9.0979649  
C   -4.2900762   -0.6267697   -9.2413067  
N   -3.6351213    0.0847390   -8.2669320  
C   -3.7835865   -1.4767579  -10.2291208  
C   -4.6918856   -2.0650067  -11.0876848  
O   -4.2515039   -2.9038468  -12.0702456  
C   -6.0776966   -1.8075906  -10.9608644  
O   -6.8531599   -2.4680211  -11.8913655  
C   -6.5780462   -0.9689541   -9.9867673  
H   -6.7261912    0.9593807   -7.6064916  
H   -2.7290597   -1.6866217  -10.3437211  
H   -5.0367861   -3.2000080  -12.5486634  
H   -7.7748252   -2.2399020  -11.7361209  
H   -7.6445600   -0.7907343   -9.9142147  
H   -4.2273167    1.4077453   -6.6990864  
C   -1.2456296    0.0472577   -4.5828766  
C    0.0002605    0.0520438   -5.1230708  
C   -0.1629407    0.0660968   -6.5576456  
C   -1.6164593    0.0691566   -6.8107556  
N   -2.2165808    0.0569157   -5.5727758  
C   -2.1820820    0.0818099   -8.0442930  
C   -1.3004434    0.0929475   -9.1997693  
O   -1.7128481    0.1046491  -10.3521949  
C    0.2422766    0.0896871   -8.9552089  
O    0.9944621    0.0986747   -9.9202986  
C    0.7327427    0.0759264   -7.5793069  
H    0.9277601    0.0461943   -4.5787146  
H    1.8022635    0.0739577   -7.4185433  
H   -3.2072924    0.0572152   -5.4129701  
C    1.1243418    0.0099155   -0.7919003  
C    0.7474093    0.0234033   -2.1148542  
C   -0.6787365    0.0234953   -2.1414700  
C   -1.1201738    0.0099357   -0.7935546  
N    0.0000000    0.0000000    0.0000000  
C   -2.4730811    0.0065398   -0.4408241  
C   -3.3971945    0.0173300   -1.4675058  
O   -4.7313507    0.0149490   -1.1793472  
C   -2.9763626    0.0305537   -2.8186325  
O   -4.0166449    0.0397860   -3.7247623  
C   -1.6418538    0.0336381   -3.1673481  
H    1.4178738    0.0310004   -2.9571209  
H   -2.8160170   -0.0039189    0.5845965  
H   -5.1938800    0.0234412   -2.0274384  
H   -3.6464643    0.0484782   -4.6127344  
H    2.1062469    0.0051381   -0.3505407  
C    2.5128556    2.1077716    2.9199648  
C    1.9592212    1.6432552    4.0696553  
C    0.8915788    0.7479214    3.6910360  
C    0.8684491    0.7287414    2.2159470  
N    1.8754542    1.5738793    1.8102719  
C    0.0000000    0.0000000    1.4700000  
C   -0.9772830   -0.8200135    2.1664417  
O   -1.8021297   -1.5120829    1.5842315  
C   -0.9711318   -0.8147624    3.7284083  
O   -1.7894187   -1.5009653    4.3257297  
C    0.0140216    0.0115358    4.4216297  
H    2.2638494    1.8988021    5.0689105  
H    0.0117648    0.0094386    5.5031631  
H    3.3327358    2.7953732    2.7900019  
H    2.1123206    1.7707734    0.8551938  
