60

C    7.1263341   -3.3838066   -1.2179727  
C    8.4856618   -3.3738787   -1.0067886  
C    8.9335665   -2.0399215   -1.2403256  
C    7.7932792   -1.2738419   -1.5935869  
N    6.7131196   -2.1208477   -1.5722852  
C    7.8616834    0.0901130   -1.8931485  
C    9.1037828    0.6917407   -1.8347399  
O    9.2274715    2.0213277   -2.1174268  
C   10.2532587   -0.0558809   -1.4846199  
O   11.4161588    0.6862926   -1.4709847  
C   10.1865606   -1.4015498   -1.1892342  
H    9.0813262   -4.2238104   -0.7207934  
H    6.9963445    0.6795627   -2.1632205  
H   10.1643847    2.2353530   -2.0191946  
H   12.1438544    0.1069362   -1.2252022  
H   11.0841725   -1.9480686   -0.9244934  
H    6.4190728   -4.1921735   -1.1452878  
C    4.1985330   -2.1423500   -1.2324143  
C    5.3247411   -1.7348288   -1.8626208  
C    4.8654772   -0.8236655   -2.8996155  
C    3.3948132   -0.7971456   -2.7478595  
N    2.9980296   -1.5681521   -1.7721028  
C    2.5562217   -0.0001543   -3.6003001  
C    3.1594329    0.7371398   -4.5604401  
O    2.5003399    1.5262936   -5.4258144  
C    4.6414691    0.7318289   -4.7384883  
O    5.1222591    1.4271709   -5.6332287  
C    5.4799811   -0.0940152   -3.8514688  
H    3.1964045    1.9185700   -5.9832786  
H    6.5493677   -0.0702008   -4.0129491  
H    4.1121693   -2.8248211   -0.4019036  
C    0.0000000    0.0000000    0.0000000  
C    1.0541688   -0.0001719   -0.8560391  
C    0.5103141   -0.0000449   -2.1935955  
C   -0.9576367    0.0002461   -2.0455733  
N   -1.2018459   -0.0001392   -0.6915970  
C   -1.8348306    0.0008319   -3.0810611  
C   -1.2972842    0.0009739   -4.4314605  
O   -2.0050664    0.0014267   -5.4301321  
C    0.2542628    0.0004190   -4.6117571  
O    0.7184677    0.0002263   -5.7439119  
C    1.0974556    0.0000880   -3.4189127  
H    2.0940752   -0.0005479   -0.5817978  
H   -2.9081050    0.0011669   -2.9507065  
H   -2.1128195    0.0014911   -0.2706793  
C    1.0672568    0.0000697    2.3021913  
C    0.0000000    0.0000000    1.4700000  
C   -1.1601224    0.0000736    2.3478473  
C   -0.5938729    0.0000769    3.7138435  
N    0.7113367    0.0001554    3.6934124  
C   -1.4286986    0.0001879    4.8835240  
C   -2.7683114    0.0006799    4.6970523  
O   -3.6653903    0.0008304    5.6976972  
C   -3.3702025    0.0010610    3.3310774  
O   -4.5974910    0.0013779    3.2362962  
C   -2.4926826    0.0008943    2.1470656  
H   -0.9878360   -0.0000190    5.8697035  
H   -4.5324246    0.0012261    5.2533954  
H   -2.9677772    0.0012974    1.1752040  
H    2.1134392    0.0000545    2.0405121  
