62

C    6.8548572    0.0082882   -4.3983054  
C    7.8528423   -0.6686212   -3.7362728  
C    9.0844187   -0.3081423   -4.3590676  
C    8.7726223    0.5994488   -5.4035708  
N    7.4102241    0.7682137   -5.4010165  
C    9.7478328    1.1635059   -6.2315765  
C   11.0617647    0.8050562   -6.0007658  
O   12.0539947    1.3265449   -6.7795738  
C   11.3927632   -0.0992636   -4.9637202  
O   12.7442685   -0.3565732   -4.8609297  
C   10.4311861   -0.6563166   -4.1466593  
H    7.7105556   -1.3405159   -2.9072342  
H    6.8982108    1.3651550   -6.0251038  
H    9.5166964    1.8557205   -7.0294597  
H   12.8824001    0.9507634   -6.4543062  
H   12.8818601   -0.9755934   -4.1374062  
H   10.7149459   -1.3462339   -3.3605469  
C    4.3489000   -2.1006739   -1.4732762  
C    3.1285972   -1.6364581   -1.8466928  
C    3.3412599   -0.7405810   -2.9589044  
C    4.7959154   -0.7207996   -3.2046233  
N    5.3494459   -1.5655069   -2.2702982  
C    5.4017639    0.0079522   -4.1759999  
C    4.5653395    0.8276897   -5.0367901  
O    5.0159503    1.5198388   -5.9402171  
C    3.0222821    0.8221880   -4.7944083  
O    2.3079746    1.5086269   -5.5126189  
C    2.4861704   -0.0045255   -3.7159919  
H    2.1869565   -1.8922660   -1.3944884  
H    4.6014745   -2.7885458   -0.6827524  
H    6.3291323   -1.7643312   -2.1823793  
C    0.0000000    0.0000000    0.0000000  
C    1.0521669   -0.0011848   -0.8862341  
C    0.4917221   -0.0011931   -2.1979130  
C   -0.9187427    0.0003100   -2.0478683  
N   -1.1833170   -0.0009472   -0.7007915  
C   -1.7951698    0.0010259   -3.1372090  
C   -1.2375835    0.0005161   -4.4010425  
O   -2.0474208    0.0015256   -5.4997580  
C    0.1673584   -0.0013557   -4.5711962  
O    0.5673529   -0.0020659   -5.8915551  
C    1.0325773   -0.0023359   -3.4969890  
H    2.0953059   -0.0030542   -0.6200560  
H   -2.0989777    0.0102265   -0.2891825  
H   -2.8710930    0.0020274   -3.0295514  
H   -1.4634881    0.0006427   -6.2693593  
H    1.5290715   -0.0033076   -5.9180042  
C    1.0965515   -0.0001358    2.2710304  
C    0.0000000    0.0000000    1.4700000  
C   -1.1546562   -0.0001469    2.3369512  
C   -0.6372014   -0.0003519    3.7186280  
N    0.7342871   -0.0007337    3.6095011  
C   -1.4147739   -0.0001353    4.8308716  
C   -2.8576048    0.0001048    4.6554461  
O   -3.6427778    0.0002493    5.5944904  
C   -3.4275839    0.0000726    3.2011665  
O   -4.6406829   -0.0000333    3.0410059  
C   -2.4891866    0.0001091    2.0816745  
H   -1.0150448   -0.0001615    5.8354244  
H   -2.8919121    0.0002919    1.0779135  
H    2.1388271   -0.0000662    1.9961646  
H    1.3735872    0.0006099    4.3830260  
