62

C    6.7983741    0.1789853   -4.5956020  
C    7.8253123   -0.4798831   -3.9601833  
C    9.0340844   -0.0929912   -4.6111716  
C    8.6791773    0.8113779   -5.6446531  
N    7.3141526    0.9529028   -5.6087028  
C    9.6227059    1.3973154   -6.4939001  
C   10.9486959    1.0644643   -6.2960575  
O   11.9112698    1.6080316   -7.0966819  
C   11.3225481    0.1637722   -5.2704821  
O   12.6809914   -0.0668183   -5.2011695  
C   10.3922436   -0.4148567   -4.4324803  
H    7.7164693   -1.1570114   -3.1303378  
H    6.7754539    1.5414054   -6.2181701  
H    9.3586576    2.0872092   -7.2835376  
H   12.7545935    1.2478715   -6.7927821  
H   12.8482902   -0.6851734   -4.4833592  
H   10.7085600   -1.1013675   -3.6558690  
C    4.5241710   -2.0197346   -1.5987491  
C    3.2543047   -1.6359766   -1.8666077  
C    3.3687740   -0.7183910   -2.9897433  
C    4.8178232   -0.6623649   -3.2790556  
N    5.5001626   -1.4232182   -2.4669566  
C    5.3513652    0.1489627   -4.3383795  
C    4.4770152    0.8711786   -5.0754344  
O    4.8354295    1.6710202   -6.0941754  
C    3.0088452    0.8354824   -4.8082935  
O    2.2716040    1.5186018   -5.5189579  
C    2.4861704   -0.0045255   -3.7159919  
H    2.3514149   -1.9383096   -1.3641538  
H    3.9981217    2.0475216   -6.4202357  
H    4.8653811   -2.6984179   -0.8332835  
C    0.0000000    0.0000000    0.0000000  
C    1.0521669   -0.0011848   -0.8862341  
C    0.4917221   -0.0011931   -2.1979130  
C   -0.9187427    0.0003100   -2.0478683  
N   -1.1833170   -0.0009472   -0.7007915  
C   -1.7951698    0.0010259   -3.1372090  
C   -1.2375835    0.0005161   -4.4010425  
O   -2.0474208    0.0015256   -5.4997580  
C    0.1673584   -0.0013557   -4.5711962  
O    0.5673529   -0.0020659   -5.8915551  
C    1.0325773   -0.0023359   -3.4969890  
H    2.0953059   -0.0030542   -0.6200560  
H   -2.0989777    0.0102265   -0.2891825  
H   -2.8710930    0.0020274   -3.0295514  
H   -1.4634881    0.0006427   -6.2693593  
H    1.5290715   -0.0033076   -5.9180042  
C    0.0000000    0.0000000    1.4700000  
C    1.0541688    0.0001722    2.3260392  
C    0.5103138    0.0000454    3.6635956  
C   -0.9576371   -0.0002459    3.5155732  
N   -1.2018458    0.0001392    2.1615969  
C   -1.8348311   -0.0008317    4.5510609  
C   -1.2972847   -0.0009736    5.9014604  
O   -2.0050672   -0.0014265    6.9001319  
C    0.2542623   -0.0004184    6.0817573  
O    0.7184670   -0.0002256    7.2139121  
C    1.0974552   -0.0000873    4.8889129  
H    2.0940752    0.0005483    2.0517982  
H   -2.9081052   -0.0011668    4.4207061  
H    2.1707277    0.0000911    5.0223670  
H   -2.1128194   -0.0014912    1.7406791  
