64

C    3.3962369   -0.7229191   -6.2430010  
C    2.8126089   -0.0037922   -7.2602046  
C    3.8552271    0.7231670   -7.9075655  
C    5.0634538    0.4048620   -7.2361521  
N    4.7487316   -0.4740645   -6.2296457  
C    6.2993745    0.9428258   -7.6074805  
C    6.3159425    1.8178252   -8.6762547  
O    7.4958148    2.3719618   -9.0810361  
C    5.1208839    2.1480444   -9.3586082  
O    5.3024635    3.0333498  -10.4010129  
C    3.9012223    1.6179185   -8.9926597  
H    5.4056845   -0.8839630   -5.5906015  
H    7.2237955    0.7043580   -7.0997591  
H    7.2858391    2.9440072   -9.8306623  
H    4.4474850    3.2033655  -10.8080874  
H    3.0026414    1.8896392   -9.5341378  
H    2.9545463   -1.3925523   -5.5250461  
C   -0.8712823    0.0001712   -4.7267111  
C    0.4339910   -0.0007924   -5.1611391  
C    0.3982147   -0.0008750   -6.5870849  
C   -0.9677830    0.0003575   -6.9691518  
N   -1.7116540   -0.0009829   -5.8153444  
C   -1.3793555    0.0009339   -8.3053389  
C   -0.3940115    0.0005606   -9.2734678  
O   -0.7402460    0.0014435  -10.5937458  
C    0.9742899   -0.0010408   -8.9121275  
O    1.8341074   -0.0016430   -9.9910415  
C    1.3810435   -0.0018835   -7.5941454  
H    1.3048042   -0.0024708   -4.5281506  
H   -2.7146164    0.0100072   -5.7714419  
H   -2.4188447    0.0017287   -8.6031023  
H    0.0868493    0.0006900  -11.0929228  
H    2.7374600   -0.0027016   -9.6600480  
C    1.0965515    0.0001358   -0.8010304  
C    0.0000000    0.0000000    0.0000000  
C   -1.1546562    0.0001470   -0.8669514  
C   -0.6372012    0.0003520   -2.2486282  
N    0.7342873    0.0007338   -2.1395014  
C   -1.4147737    0.0001354   -3.3608717  
C   -2.8576047   -0.0001047   -3.1854463  
O   -3.6427778   -0.0002491   -4.1244908  
C   -3.4275837   -0.0000725   -1.7311667  
O   -4.6406828    0.0000333   -1.5710061  
C   -2.4891866   -0.0001090   -0.6116745  
H   -2.8919121   -0.0002919    0.3920865  
H    2.1388272    0.0000662   -0.5261647  
H    1.3735873   -0.0006098   -2.9130261  
C    0.8676693    0.7151171    2.2619005  
C    0.5875920    0.4624972    3.5848544  
C   -0.5048400   -0.4542819    3.6114698  
C   -0.8517165   -0.7276451    2.2635546  
N    0.0000000    0.0000000    1.4700000  
C   -1.8902865   -1.5946756    1.9108239  
C   -2.5912627   -2.1969500    2.9375057  
O   -3.6148162   -3.0527051    2.6493466  
C   -2.2603868   -1.9365747    4.2886322  
O   -3.0513550   -2.6123276    5.1947621  
C   -1.2361111   -1.0811317    4.6373480  
H    1.1060808    0.8876438    4.4271209  
H   -2.1597133   -1.8070987    0.8854031  
H   -3.9636755   -3.3565188    3.4974381  
H   -2.7621927   -2.3810384    6.0827341  
H   -1.0058879   -0.9010589    5.6809233  
H    1.6167816    1.3499334    1.8205408  
