60

C   -4.0096167    0.7069510   -6.2040466  
C   -5.3615037    0.4559168   -6.2470676  
C   -5.5821418   -0.4529807   -7.3240189  
C   -4.3172805   -0.7233928   -7.9061958  
N   -3.3846727   -0.0016373   -7.2033945  
C   -4.1549831   -1.5828053   -8.9970014  
C   -5.2901994   -2.1803564   -9.5092478  
O   -5.1887803   -3.0286229  -10.5737530  
C   -6.5610686   -1.9228173   -8.9423413  
O   -7.5936555   -2.5931567   -9.5650389  
C   -6.7219585   -1.0748878   -7.8663972  
H   -6.0981651    0.8770401   -5.5845128  
H   -3.1937317   -1.7929437   -9.4453768  
H   -6.0855562   -3.3301973  -10.7689758  
H   -8.4161185   -2.3642497   -9.1214624  
H   -7.7080544   -0.8968228   -7.4536189  
H   -3.4419001    1.3365022   -5.5404791  
C   -0.0307354   -0.0004645   -4.4215603  
C    1.0331812   -0.0004858   -5.2580179  
C    0.4592705   -0.0007207   -6.5948520  
C   -1.0026765   -0.0009308   -6.3728279  
N   -1.2959505   -0.0007012   -5.1008297  
C   -1.9379347   -0.0011511   -7.4638724  
C   -1.4355466   -0.0007721   -8.7196356  
O   -2.1917708   -0.0009257   -9.8305658  
C    0.0349299   -0.0001817   -8.9762653  
O    0.4213592    0.0000164  -10.1449796  
C    0.9738587   -0.0000095   -7.8403354  
H    2.0783477   -0.0002675   -4.9997498  
H   -1.5524490   -0.0005378  -10.5656984  
H    2.0313129    0.0005373   -8.0684166  
C    3.2573669   -0.0002919   -1.5109381  
C    2.5379467   -0.0001709   -0.3591962  
C    1.1435042    0.0000332   -0.7338501  
C    1.1092607   -0.0000081   -2.2088477  
N    2.4227561    0.0001910   -2.6182614  
C   -0.0265534   -0.0002522   -2.9515663  
C   -1.3003036   -0.0002639   -2.2514981  
O   -2.3786785   -0.0004131   -2.8306428  
C   -1.2877726    0.0000312   -0.6895608  
O   -2.3539957    0.0003306   -0.0892035  
C    0.0000000    0.0000000    0.0000000  
H    2.9384091   -0.0000368    0.6389238  
H    4.3270391   -0.0004764   -1.6439447  
H    2.7280492   -0.0013405   -3.5742114  
C    2.5128556    2.1077716    2.9199648  
C    1.9592212    1.6432552    4.0696553  
C    0.8915788    0.7479214    3.6910360  
C    0.8684491    0.7287414    2.2159470  
N    1.8754542    1.5738793    1.8102719  
C    0.0000000    0.0000000    1.4700000  
C   -0.9772830   -0.8200135    2.1664417  
O   -1.8021297   -1.5120829    1.5842315  
C   -0.9711318   -0.8147624    3.7284083  
O   -1.7894187   -1.5009653    4.3257297  
C    0.0140216    0.0115358    4.4216297  
H    2.2638494    1.8988021    5.0689105  
H    0.0117648    0.0094386    5.5031631  
H    3.3327358    2.7953732    2.7900019  
H    2.1123206    1.7707734    0.8551938  
