60

C    5.6407084    0.0170451   -0.6743878  
C    6.9070328    0.0276883   -1.2117678  
C    6.7574705    0.0178706   -2.6302651  
C    5.3653958    0.0014762   -2.9019005  
N    4.7161324   -0.0005436   -1.6923263  
C    4.8484260   -0.0112556   -4.2008880  
C    5.7532269   -0.0070596   -5.2446776  
O    5.3026480   -0.0186573   -6.5330319  
C    7.1459462    0.0088555   -4.9938830  
O    7.9167817    0.0107073   -6.1380644  
C    7.6566613    0.0211486   -3.7126557  
H    7.8255871    0.0397976   -0.6504254  
H    3.7885338   -0.0239203   -4.4145927  
H    6.0871799   -0.0135228   -7.0967235  
H    8.8436403    0.0218184   -5.8803511  
H    8.7282987    0.0330394   -3.5516247  
H    5.3238838    0.0191630    0.3544836  
C    3.2573666   -0.0002920   -1.5109384  
C    2.5379463   -0.0001710   -0.3591964  
C    1.1435039    0.0000331   -0.7338498  
C    1.1092600   -0.0000083   -2.2088476  
N    2.4227554    0.0001909   -2.6182613  
C   -0.0265538   -0.0002524   -2.9515660  
C   -1.3003040   -0.0002640   -2.2514976  
O   -2.3786789   -0.0004133   -2.8306420  
C   -1.2877727    0.0000311   -0.6895603  
O   -2.3539960    0.0003306   -0.0892032  
C    0.0000000    0.0000000    0.0000000  
H    2.9384090   -0.0000368    0.6389236  
H    2.7280484   -0.0013407   -3.5742118  
C    2.4782000   -2.1081880   -5.8783654  
C    1.9212487   -1.6438943   -7.0265430  
C    0.8545957   -0.7486155   -6.6450164  
C    0.8356614   -0.7292248   -5.1698703  
N    1.8439038   -1.5742006   -4.7669401  
C   -0.0307367   -0.0004647   -4.4215603  
C   -1.0100819    0.8193479   -5.1153365  
O   -1.8333399    1.5114168   -4.5308810  
C   -1.0083747    0.8138718   -6.6773133  
O   -1.8284286    1.4999045   -7.2724029  
C   -0.0251127   -0.0124254   -7.3732162  
H    2.2230587   -1.8995542   -8.0266241  
H   -0.0304472   -0.0104847   -8.4547391  
H    3.2985176   -2.7956866   -5.7506369  
H    2.0835073   -1.7709325   -3.8125117  
C    0.0000000    0.0000000    1.4700000  
C    1.0541688    0.0001722    2.3260392  
C    0.5103138    0.0000454    3.6635956  
C   -0.9576371   -0.0002459    3.5155732  
N   -1.2018458    0.0001392    2.1615969  
C   -1.8348311   -0.0008317    4.5510609  
C   -1.2972847   -0.0009736    5.9014604  
O   -2.0050672   -0.0014265    6.9001319  
C    0.2542623   -0.0004184    6.0817573  
O    0.7184670   -0.0002256    7.2139121  
C    1.0974552   -0.0000873    4.8889129  
H    2.0940752    0.0005483    2.0517982  
H   -2.9081052   -0.0011668    4.4207061  
H    2.1707277    0.0000911    5.0223670  
H   -2.1128194   -0.0014912    1.7406791  
