64

C    0.7656482   -0.8850155   -9.6237285  
C    0.3179158    0.1980486   -8.9033285  
C    0.3989592    1.3327591   -9.7638313  
C    0.9072719    0.8768366  -11.0070839  
N    1.1209140   -0.4739342  -10.8871153  
C    1.1185510    1.7282597  -12.0957656  
C    0.8108038    3.0642182  -11.9264019  
O    0.9975424    3.9392999  -12.9571173  
C    0.3029967    3.5382790  -10.6934323  
O    0.0458931    4.8936835  -10.6824575  
C    0.0945676    2.6989464   -9.6189069  
H    1.4692425   -1.0731731  -11.6134494  
H    1.5058329    1.3870237  -13.0459091  
H    0.7246601    4.8069291  -12.6315109  
H   -0.2937754    5.1318041   -9.8143976  
H   -0.2954014    3.0909616   -8.6868522  
H    0.8610317   -1.9179674   -9.3358548  
C    1.8623198   -2.0072653   -5.4771202  
C    1.0190395   -1.6263759   -4.4895066  
C    0.0870117   -0.7080514   -5.1255131  
C    0.5265224   -0.6485023   -6.5361401  
N    1.5667223   -1.4080939   -6.7482582  
C   -0.1488129    0.1645214   -7.5097935  
C   -1.2149984    0.8849935   -7.0932569  
O   -1.9385158    1.6861030   -7.8937481  
C   -1.6831429    0.8457385   -5.6764077  
O   -2.6605019    1.5274253   -5.3677109  
C   -0.9736297    0.0040464   -4.6965763  
H    1.0282688   -1.9310392   -3.4569512  
H   -2.6258529    2.0607756   -7.3137990  
H    2.6982354   -2.6854685   -5.4118586  
C    1.1188642    0.0008222   -0.8003808  
C    0.0000000    0.0000000    0.0000000  
C   -1.1323862    0.0008899   -0.8673528  
C   -0.6382663    0.0019679   -2.1969280  
N    0.7324016    0.0038481   -2.1202242  
C   -1.4770914    0.0027318   -3.3154808  
C   -2.8395473    0.0020945   -3.0876857  
O   -3.7039201    0.0024425   -4.1440349  
C   -3.3517868    0.0013931   -1.7684331  
O   -4.7300497    0.0012366   -1.7073121  
C   -2.5248543    0.0009123   -0.6644817  
H    1.3576314   -0.0056167   -2.9057046  
H   -4.5940032    0.0021826   -3.7685128  
H   -4.9934602    0.0007259   -0.7819913  
H   -2.9462577    0.0005603    0.3339659  
H    2.1619895    0.0009355   -0.5342068  
C    0.8676693    0.7151171    2.2619005  
C    0.5875920    0.4624972    3.5848544  
C   -0.5048400   -0.4542819    3.6114698  
C   -0.8517165   -0.7276451    2.2635546  
N    0.0000000    0.0000000    1.4700000  
C   -1.8902865   -1.5946756    1.9108239  
C   -2.5912627   -2.1969500    2.9375057  
O   -3.6148162   -3.0527051    2.6493466  
C   -2.2603868   -1.9365747    4.2886322  
O   -3.0513550   -2.6123276    5.1947621  
C   -1.2361111   -1.0811317    4.6373480  
H    1.1060808    0.8876438    4.4271209  
H   -2.1597133   -1.8070987    0.8854031  
H   -3.9636755   -3.3565188    3.4974381  
H   -2.7621927   -2.3810384    6.0827341  
H   -1.0058879   -0.9010589    5.6809233  
H    1.6167816    1.3499334    1.8205408  
