62

C    4.6628240   -4.2339060    1.0250993  
C    5.8511487   -4.8978390    0.8262368  
C    6.3288338   -4.5192926   -0.4633835  
C    5.3822936   -3.6145610   -1.0087709  
N    4.3825039   -3.4648035   -0.0800023  
C    5.5305766   -3.0357197   -2.2727897  
C    6.6550202   -3.3761714   -2.9993548  
O    6.8495982   -2.8397311   -4.2392690  
C    7.6105588   -4.2773528   -2.4724454  
O    8.6747100   -4.5159573   -3.3174272  
C    7.4647854   -4.8489839   -1.2256442  
H    6.3159075   -5.5729013    1.5242945  
H    3.5773778   -2.8741157   -0.1841208  
H    7.6819806   -3.2044213   -4.5669946  
H    9.2727499   -5.1340903   -2.8863076  
H    8.2132680   -5.5360647   -0.8485850  
H    3.9923130   -4.2492282    1.8672028  
C    4.5546440   -2.0975048   -2.8456843  
C    3.3966019   -1.6333850   -2.3093948  
C    2.8128206   -0.7373020   -3.2794823  
C    3.7322607   -0.7172945   -4.4331806  
N    4.7679899   -1.5620810   -4.1068522  
C    3.5352967    0.0116911   -5.5607837  
C    2.3379415    0.8314599   -5.6435736  
O    2.0707004    1.5238122   -6.6169856  
C    1.3504333    0.8257213   -4.4333664  
O    0.3391711    1.5121845   -4.4914814  
C    1.6707636   -0.0012343   -3.2725974  
H    2.9970337   -1.8893867   -1.3442927  
H    4.2221656    0.0121016   -6.3957216  
H    5.5563145   -1.7607940   -4.6951595  
C    1.0965514    0.0001358   -0.8010306  
C    0.0000000    0.0000000    0.0000000  
C   -1.1546565    0.0001470   -0.8669508  
C   -0.6372019    0.0003520   -2.2486278  
N    0.7342867    0.0007338   -2.1395012  
C   -1.4147744    0.0001354   -3.3608712  
C   -2.8576052   -0.0001047   -3.1854454  
O   -3.6427785   -0.0002490   -4.1244896  
C   -3.4275841   -0.0000727   -1.7311660  
O   -4.6406832    0.0000333   -1.5710049  
C   -2.4891868   -0.0001090   -0.6116739  
H   -1.0150456    0.0001617   -4.3654239  
H   -2.8919122   -0.0002919    0.3920871  
H    2.1388270    0.0000663   -0.5261650  
C    2.5285572    2.1210227    2.9438989  
C    1.9331703    1.6216660    4.0790748  
C    0.8903039    0.7472258    3.6520102  
C    0.8972198    0.7527806    2.2336141  
N    1.9028376    1.5986179    1.8362361  
C    0.0000000    0.0000000    1.4700000  
C   -0.9207814   -0.7726952    2.1506477  
O   -1.8198395   -1.5274828    1.4542253  
C   -0.9436862   -0.7911793    3.5655508  
O   -1.9197945   -1.6098497    4.0950179  
C   -0.0590329   -0.0485852    4.3195194  
H    2.2150357    1.8593692    5.0905303  
H    2.1533708    1.7953814    0.8841339  
H   -2.3621246   -1.9821033    2.1118817  
H   -1.8668290   -1.5649508    5.0545920  
H   -0.1007624   -0.0827977    5.4019087  
H    3.3491200    2.8096064    2.8367138  
