64

C    3.8878169   -0.7221146   -4.5427241  
C    3.9719333   -0.4862744   -5.8954145  
C    2.9171610    0.4147690   -6.2273419  
C    2.2168608    0.6962708   -5.0263992  
N    2.8310663   -0.0116218   -4.0232754  
C    1.1122532    1.5520024   -4.9778755  
C    0.7074027    2.1344025   -6.1632375  
O   -0.3652176    2.9784457   -6.1726996  
C    1.3930192    1.8656308   -7.3717529  
O    0.8682187    2.5214018   -8.4662355  
C    2.4826536    1.0213232   -7.4204131  
H    0.5741178    1.7705382   -4.0658149  
H   -0.4758803    3.2691040   -7.0873238  
H    1.3885183    2.2856105   -9.2403767  
H    2.9875785    0.8344065   -8.3609397  
H    4.4971333   -1.3420427   -3.9076012  
C    3.3041273    0.0001179   -1.5420438  
C    2.5845372   -0.0004778   -0.3695858  
C    1.2040009   -0.0000008   -0.7283598  
C    1.1422372    0.0006037   -2.1454375  
N    2.4348637    0.0026111   -2.6077468  
C   -0.0655182    0.0008797   -2.8497921  
C   -1.2321770    0.0002322   -2.1101399  
O   -2.4392816    0.0001144   -2.7472523  
C   -1.1911211   -0.0000008   -0.6955263  
O   -2.4371524   -0.0002326   -0.1032861  
C    0.0000000    0.0000000    0.0000000  
H    3.0031535   -0.0000658    0.6222573  
H   -0.1193551    0.0014842   -3.9297475  
H   -3.1132989   -0.0000654   -2.0551787  
H   -2.3200281   -0.0004077    0.8516411  
H    4.3686625    0.0004074   -1.7024298  
C    5.4291083   -2.3632028   -6.7522791  
C    6.3659141   -2.5527940   -7.7416818  
C    6.4928310   -1.3142544   -8.4377506  
C    5.6014475   -0.3980635   -7.8229705  
N    4.9699744   -1.0678985   -6.8045495  
C    5.4626781    0.9254614   -8.2517049  
C    6.2380987    1.3315801   -9.3203332  
O    6.1424810    2.6134142   -9.7794325  
C    7.1329903    0.4320718   -9.9471300  
O    7.8342871    0.9872004  -10.9975391  
C    7.2702087   -0.8738365   -9.5248752  
H    6.8921695   -3.4711527   -7.9383158  
H    4.7849994    1.6286412   -7.7874930  
H    6.7597648    2.6852954  -10.5190663  
H    8.4152780    0.3140542  -11.3648637  
H    7.9637846   -1.5398003  -10.0247982  
H    5.0510681   -3.0498646   -6.0143493  
C    0.8681109    0.7263879    2.2709268  
C    0.6127770    0.5096195    3.5869401  
C   -0.4920590   -0.4175482    3.6542670  
C   -0.8620974   -0.7254003    2.2596025  
N    0.0000000    0.0000000    1.4700000  
C   -1.8641242   -1.5660088    1.8976294  
C   -2.6293522   -2.2103885    2.9520183  
O   -3.5512764   -2.9839180    2.7283916  
C   -2.2549728   -1.8987399    4.4361073  
O   -2.8923672   -2.4351063    5.3323774  
C   -1.1543735   -0.9755647    4.7012123  
H    1.1382914    0.9492124    4.4159191  
H   -2.1192137   -1.7782617    0.8686553  
H   -0.9013378   -0.7652422    5.7314848  
H    1.6172880    1.3558399    1.8188057  
