60

C    9.2250472    0.0006541   -3.4431011  
C    9.8804515    0.0005059   -4.6526101  
C   11.2783059    0.0014467   -4.3687045  
C   11.4162942    0.0018597   -2.9570086  
N   10.1504412    0.0033120   -2.4257572  
C   12.6602291    0.0024821   -2.3187182  
C   13.7853627    0.0023844   -3.1201262  
O   15.0250267    0.0026228   -2.5489457  
C   13.6681835    0.0023499   -4.5304752  
O   14.8805126    0.0026758   -5.1889597  
C   12.4413349    0.0020093   -5.1608460  
H    9.4090283    0.0009110   -5.6204702  
H    9.9323034   -0.0066568   -1.4458091  
H   12.7721478    0.0029433   -1.2432294  
H   15.6607947    0.0028010   -3.2763132  
H   14.7121317    0.0026015   -6.1361938  
H   12.3829712    0.0021734   -6.2430072  
C    6.7793184   -0.0000204   -4.0582541  
C    7.7853564    0.0004709   -3.1461341  
C    7.1695415    0.0010649   -1.8401451  
C    5.7118176    0.0008488   -2.0678072  
N    5.5416283    0.0005848   -3.4330637  
C    4.7795901    0.0008674   -1.0815733  
C    5.2428769    0.0013429    0.2960699  
O    4.4818131    0.0014588    1.2547580  
C    6.7823177    0.0018304    0.5605059  
O    7.1842444    0.0025395    1.7162372  
C    7.6891545    0.0014822   -0.5847011  
H    8.7535772    0.0016182   -0.3930572  
H    6.8379584   -0.0005568   -5.1345671  
H    4.6549020   -0.0011625   -3.9029153  
C    3.3321168    0.0004716   -1.3379341  
C    2.6974177    0.0000118   -2.5332316  
C    1.2800432   -0.0002116   -2.2052842  
C    1.2395033    0.0000644   -0.7271298  
N    2.4394059    0.0005460   -0.2131041  
C    0.0000000    0.0000000    0.0000000  
C   -1.1468704    0.0000635   -0.7169542  
O   -2.3742206    0.0000074   -0.1695488  
C   -1.1388774    0.0001608   -2.2096352  
O   -2.2206238    0.0000906   -2.7970409  
C    0.1454514    0.0001818   -2.9324241  
H    3.1367978   -0.0000649   -3.5160956  
H   -2.9844350    0.0001027   -0.9290164  
H    0.1083567    0.0003684   -4.0135594  
C    2.4951002    2.0940188    2.9809380  
C    1.9440701    1.6314916    1.8291961  
C    0.8759964    0.7350050    2.2038498  
C    0.8497377    0.7130254    3.6788474  
N    1.8560616    1.5571714    4.0882609  
C   -0.0205033   -0.0168748    4.4215661  
C   -0.9962600   -0.8356168    3.7214979  
O   -1.8224391   -1.5286685    4.3006425  
C   -0.9864710   -0.8277881    2.1595606  
O   -1.8030528   -1.5133726    1.5592035  
C    0.0000000    0.0000000    1.4700000  
H    2.2509283    1.8888011    0.8310761  
H   -0.0229599   -0.0187323    5.5027230  
H    3.3143982    2.7817323    3.1139444  
H    2.0889452    1.7545833    5.0442112  
