62

C    1.3137301   -1.1096751   -7.6955144  
C    2.3660875   -1.9943223   -7.7446109  
C    2.6289705   -2.2525865   -9.1225776  
C    1.6975997   -1.4909608   -9.8738428  
N    0.9127413   -0.8102464   -8.9764903  
C    1.6649151   -1.5011749  -11.2715618  
C    2.5894803   -2.2944660  -11.9227499  
O    2.6020584   -2.3412935  -13.2868112  
C    3.5265226   -3.0618546  -11.1907097  
O    4.3806382   -3.8002833  -11.9835226  
C    3.5591692   -3.0524725   -9.8118071  
H    2.8802267   -2.4040449   -6.8920962  
H    0.1695345   -0.1795818   -9.2170862  
H    0.9574981   -0.9230852  -11.8499871  
H    3.3142379   -2.9459450  -13.5327014  
H    4.9805143   -4.2887584  -11.4115565  
H    4.2884176   -3.6508939   -9.2783594  
C    0.9350723   -0.7259388   -5.2319052  
C    0.6347936   -0.5089070   -6.5383526  
C   -0.4715634    0.4184304   -6.5675990  
C   -0.7935139    0.7260948   -5.1610140  
N    0.0950446    0.0004351   -4.4015596  
C   -1.7824138    1.5667841   -4.7647529  
C   -2.5832518    2.2114553   -5.7921735  
O   -3.4968502    2.9850780   -5.5369348  
C   -2.2600296    1.9000089   -7.2882796  
O   -2.9277036    2.4366213   -8.1620756  
C   -1.1693058    0.9767222   -7.5911236  
H   -2.0020372    1.7788961   -3.7276009  
H   -0.9517792    0.7665411   -8.6295017  
H    1.6992187   -1.3555760   -4.8058457  
C    3.3321173    0.0004713   -1.3379338  
C    2.6974181    0.0000116   -2.5332314  
C    1.2800438   -0.0002119   -2.2052841  
C    1.2395034    0.0000643   -0.7271299  
N    2.4394062    0.0005460   -0.2131038  
C    0.0000000    0.0000000    0.0000000  
C   -1.1468702    0.0000634   -0.7169543  
O   -2.3742203    0.0000074   -0.1695487  
C   -1.1388770    0.0001607   -2.2096355  
O   -2.2206234    0.0000905   -2.7970411  
C    0.1454522    0.0001815   -2.9324241  
H    3.1367984   -0.0000653   -3.5160950  
H   -2.9844346    0.0001026   -0.9290167  
H    4.3940038    0.0007618   -1.1498640  
C    2.5285572    2.1210227    2.9438989  
C    1.9331703    1.6216660    4.0790748  
C    0.8903039    0.7472258    3.6520102  
C    0.8972198    0.7527806    2.2336141  
N    1.9028376    1.5986179    1.8362361  
C    0.0000000    0.0000000    1.4700000  
C   -0.9207814   -0.7726952    2.1506477  
O   -1.8198395   -1.5274828    1.4542253  
C   -0.9436862   -0.7911793    3.5655508  
O   -1.9197945   -1.6098497    4.0950179  
C   -0.0590329   -0.0485852    4.3195194  
H    2.2150357    1.8593692    5.0905303  
H    2.1533708    1.7953814    0.8841339  
H   -2.3621246   -1.9821033    2.1118817  
H   -1.8668290   -1.5649508    5.0545920  
H   -0.1007624   -0.0827977    5.4019087  
H    3.3491200    2.8096064    2.8367138  
