62

C    2.4675469   -1.8387512   -7.7211594  
C    3.5612412   -2.6577224   -7.8811163  
C    3.9492597   -2.5713656   -9.2510007  
C    3.0480956   -1.6768848   -9.8832452  
N    2.1601707   -1.2519349   -8.9263630  
C    3.1317326   -1.3528780  -11.2407479  
C    4.1437064   -1.9423522  -11.9732814  
O    4.2713554   -1.6607439  -13.3027235  
C    5.0523819   -2.8376713  -11.3604766  
O    6.0033413   -3.3418421  -12.2235139  
C    4.9703041   -3.1579799  -10.0213756  
H    4.0219600   -3.2459624   -7.1060643  
H    1.4102731   -0.6018933   -9.0782863  
H    2.4479238   -0.6719974  -11.7286107  
H    5.0293953   -2.1698356  -13.6181063  
H    6.5763719   -3.9370473  -11.7305933  
H    5.6805349   -3.8472422   -9.5798242  
C    1.8886554   -2.0886686   -5.2633577  
C    0.9763566   -1.6271610   -4.3696034  
C    0.1009361   -0.7303188   -5.0866450  
C    0.5814325   -0.7070197   -6.4814099  
N    1.6673587   -1.5508187   -6.5221206  
C    0.0179872    0.0235611   -7.4766416  
C   -1.1387597    0.8416957   -7.1524079  
O   -1.7168203    1.5352810   -7.9788982  
C   -1.6645099    0.8324699   -5.6815895  
O   -2.6375204    1.5175330   -5.3966331  
C   -0.9736297    0.0040464   -4.6965763  
H    0.9228834   -1.8853689   -3.3269704  
H    0.3859649    0.0263856   -8.4932501  
H    2.7041548   -2.7762785   -5.1082997  
C    1.1188642    0.0008222   -0.8003808  
C    0.0000000    0.0000000    0.0000000  
C   -1.1323862    0.0008899   -0.8673528  
C   -0.6382663    0.0019679   -2.1969280  
N    0.7324016    0.0038481   -2.1202242  
C   -1.4770914    0.0027318   -3.3154808  
C   -2.8395473    0.0020945   -3.0876857  
O   -3.7039201    0.0024425   -4.1440349  
C   -3.3517868    0.0013931   -1.7684331  
O   -4.7300497    0.0012366   -1.7073121  
C   -2.5248543    0.0009123   -0.6644817  
H    1.3576314   -0.0056167   -2.9057046  
H   -4.5940032    0.0021826   -3.7685128  
H   -4.9934602    0.0007259   -0.7819913  
H   -2.9462577    0.0005603    0.3339659  
H    2.1619895    0.0009355   -0.5342068  
C    2.5128556    2.1077716    2.9199648  
C    1.9592212    1.6432552    4.0696553  
C    0.8915788    0.7479214    3.6910360  
C    0.8684491    0.7287414    2.2159470  
N    1.8754542    1.5738793    1.8102719  
C    0.0000000    0.0000000    1.4700000  
C   -0.9772830   -0.8200135    2.1664417  
O   -1.8021297   -1.5120829    1.5842315  
C   -0.9711318   -0.8147624    3.7284083  
O   -1.7894187   -1.5009653    4.3257297  
C    0.0140216    0.0115358    4.4216297  
H    2.2638494    1.8988021    5.0689105  
H    0.0117648    0.0094386    5.5031631  
H    3.3327358    2.7953732    2.7900019  
H    2.1123206    1.7707734    0.8551938  
