62

C   -4.2271468    0.7161810   -6.0727058  
C   -3.5842425   -0.0024177   -7.0539080  
C   -4.5864157   -0.7306359   -7.7609772  
C   -5.8321850   -0.4136079   -7.1614124  
N   -5.5778295    0.4658024   -6.1383983  
C   -7.0436793   -0.9530135   -7.6042585  
C   -6.9967541   -1.8281685   -8.6720046  
O   -8.1503220   -2.3836877   -9.1449657  
C   -5.7634774   -2.1571268   -9.2832562  
O   -5.8828116   -3.0427701  -10.3343216  
C   -4.5678912   -1.6255782   -8.8467300  
H   -6.2714784    0.8750416   -5.5389353  
H   -7.9964691   -0.7155235   -7.1514984  
H   -7.8962387   -2.9555922   -9.8809219  
H   -5.0053067   -3.2118736  -10.6906823  
H   -3.6388861   -1.8963548   -9.3346934  
H   -3.8289364    1.3864042   -5.3302853  
C   -0.1496416   -0.0015616   -4.3176961  
C    0.8605985   -0.0020609   -5.2251593  
C    0.2508220   -0.0027750   -6.5339791  
C   -1.2079383   -0.0026205   -6.3130522  
N   -1.3844309   -0.0022740   -4.9485963  
C   -2.1356004   -0.0027544   -7.3035806  
C   -1.6659559   -0.0032977   -8.6790695  
O   -2.4225836   -0.0035181   -9.6412627  
C   -0.1253100   -0.0037218   -8.9363926  
O    0.2819500   -0.0044871  -10.0902550  
C    0.7762281   -0.0032491   -7.7870095  
H    1.9128694   -0.0021248   -5.0030348  
H    1.8415248   -0.0033417   -7.9737355  
H   -2.2733176   -0.0005419   -4.4828447  
C    3.3003544    0.0005274   -1.4738988  
C    2.5232813    0.0003494   -2.6090747  
C    1.1623199   -0.0001321   -2.1820103  
C    1.1711883    0.0000582   -0.7636141  
N    2.4852299   -0.0014920   -0.3662360  
C    0.0000000    0.0000000    0.0000000  
C   -1.2020383    0.0000519   -0.6806477  
O   -2.3759250    0.0003494    0.0157744  
C   -1.2314656   -0.0005115   -2.0955510  
O   -2.5054391   -0.0008040   -2.6250180  
C   -0.0764517   -0.0007275   -2.8495195  
H    2.8919953   -0.0005622   -3.6205304  
H    2.8036267    0.0088182    0.5858661  
H   -3.0835639    0.0000346   -0.6418817  
H   -2.4360050   -0.0011531   -3.5845921  
H    4.3715546    0.0004893   -1.3667137  
C    0.8400945    0.7047457    2.2710304  
C    0.0000000    0.0000000    1.4700000  
C   -0.8844236   -0.7423113    2.3369512  
C   -0.4878984   -0.4098547    3.7186280  
N    0.5629682    0.4714286    3.6095011  
C   -1.0836927   -0.9095027    4.8308716  
C   -2.1891196   -1.8367527    4.6554461  
O   -2.7906899   -2.3413415    5.5944904  
C   -2.6257283   -2.2031529    3.2011665  
O   -3.5549479   -2.9829990    3.0410059  
C   -1.9068976   -1.5999348    2.0816745  
H   -0.7774656   -0.6525820    5.8354244  
H   -2.2155208   -1.8586617    1.0779135  
H    1.6384792    1.3747609    1.9961646  
H    1.0518368    0.8833920    4.3830260  
