60

C   -6.3143419    1.1089215   -0.9135921  
C   -6.1434264    1.9931762    0.1262869  
C   -7.4365481    2.2512125    0.6702126  
C   -8.3651398    1.4898586   -0.0847591  
N   -7.6507096    0.8095187   -1.0394021  
C   -9.7390722    1.4999518    0.1740822  
C  -10.1836596    2.2928402    1.2142013  
O  -11.5152542    2.3395334    1.5103259  
C   -9.2726923    3.0599531    1.9787225  
O   -9.8704610    3.7979918    2.9793785  
C   -7.9171724    3.0506902    1.7237590  
H   -5.2026036    2.4027904    0.4519580  
H   -8.0406604    0.1791051   -1.7165267  
H  -10.4520139    0.9220678   -0.3977275  
H  -11.6075986    2.9438990    2.2583098  
H   -9.1862114    4.2863003    3.4473109  
H   -7.2436821    3.6488937    2.3262882  
C   -3.9834218    0.7255592   -1.7966835  
C   -5.3237509    0.5085137   -1.8186564  
C   -5.5825288   -0.4184187   -2.8950701  
C   -4.2737047   -0.7258308   -3.5027435  
N   -3.3460097   -0.0004262   -2.7913647  
C   -4.0918496   -1.5661180   -4.5527675  
C   -5.2633971   -2.2105922   -5.1225625  
O   -5.2038133   -2.9838537   -6.0695664  
C   -6.6595195   -1.8994068   -4.4950176  
O   -7.6531001   -2.4358567   -4.9664843  
C   -6.7288169   -0.9765510   -3.3648030  
H   -3.1230855   -1.7780504   -4.9834532  
H   -7.6992173   -0.7665488   -2.9359134  
H   -3.4077090    1.3549553   -1.1376654  
C    0.0000000    0.0000000    0.0000000  
C    1.0662919   -0.0000103   -0.8334272  
C    0.4961868    0.0000066   -2.1718889  
C   -0.9663860   -0.0000849   -1.9540248  
N   -1.2632775   -0.0000084   -0.6828659  
C   -1.8985364   -0.0000515   -3.0477258  
C   -1.3925778    0.0004567   -4.3020543  
O   -2.1456385    0.0005412   -5.4151314  
C    0.0786229    0.0009326   -4.5544999  
O    0.4683756    0.0012594   -5.7221104  
C    1.0143162    0.0008443   -3.4159034  
H    2.1107195    0.0000631   -0.5721869  
H   -1.5042277    0.0009692   -6.1484420  
H    2.0724151    0.0013151   -3.6409746  
C    3.1301144    0.0010313    3.1728260  
C    2.5367765    0.0002768    1.9564670  
C    1.1089900   -0.0001027    2.2356185  
C    1.0177864    0.0004150    3.7115134  
N    2.1993570    0.0011613    4.2663826  
C   -0.2459220    0.0002880    4.3957118  
C   -1.3675327    0.0000606    3.6398520  
O   -2.6129319   -0.0000866    4.1448486  
C   -1.3083589   -0.0000910    2.1483229  
O   -2.3693264   -0.0004206    1.5241687  
C    0.0000000    0.0000000    1.4700000  
H    3.0096015    0.0001008    0.9892483  
H   -0.2829642    0.0004689    5.4753125  
H   -3.1967446   -0.0002093    3.3649027  
H    4.1849273    0.0015113    3.3971983  
