64

C    1.5863830   -2.0669239   -5.3411590  
C    1.3190610   -1.5554378   -6.5899138  
C    0.1997767   -0.6821750   -6.4512979  
C   -0.1758779   -0.7009155   -5.0836507  
N    0.6853198   -1.5531293   -4.4381370  
C   -1.2456330    0.0471743   -4.5828767  
C   -1.9487894    0.8286489   -5.4790053  
O   -3.0022040    1.5793744   -5.0434094  
C   -1.5894721    0.8603290   -6.8474734  
O   -2.3866518    1.6865229   -7.6124898  
C   -0.5344172    0.1223697   -7.3422473  
H    1.8630961   -1.7845050   -7.4902181  
H    0.6699298   -1.7594015   -3.4556932  
H   -3.3471043    2.0415492   -5.8184599  
H   -2.0770086    1.6503906   -8.5226657  
H    2.3476098   -2.7586952   -5.0234418  
C    1.1243409    0.0099908   -0.7919005  
C    0.7474077    0.0234536   -2.1148550  
C   -0.6787381    0.0234499   -2.1414703  
C   -1.1201744    0.0098606   -0.7935549  
N    0.0000000    0.0000000    0.0000000  
C   -2.4730814    0.0063740   -0.4408242  
C   -3.3971958    0.0171024   -1.4675060  
O   -4.7313518    0.0146320   -1.1793472  
C   -2.9763649    0.0303543   -2.8186327  
O   -4.0166479    0.0395170   -3.7247623  
C   -1.6418562    0.0335281   -3.1673485  
H    1.4178715    0.0310955   -2.9571212  
H   -2.8160164   -0.0041077    0.5845964  
H   -5.1938818    0.0230932   -2.0274384  
H   -3.6464674    0.0482340   -4.6127344  
H    2.1062467    0.0052796   -0.3505408  
C    0.7327967   -3.0053957  -10.2005913  
C    0.8587834   -2.1941098  -11.3044070  
C    0.5186355   -0.8721453  -10.8905127  
C    0.1911348   -0.9389157   -9.5120313  
N    0.3296696   -2.2488046   -9.1252282  
C   -0.1931884    0.1825570   -8.7708269  
C   -0.2476044    1.3935465   -9.4331872  
O   -0.6164669    2.5204871   -8.7571997  
C    0.0750950    1.4803450  -10.8083780  
O   -0.0274586    2.7558879  -11.3239521  
C    0.4540577    0.3743498  -11.5402846  
H    1.1578702   -2.5157626  -12.2873006  
H    0.1747984   -2.5993980   -8.1972835  
H   -0.5891842    3.2438573   -9.3969315  
H    0.2072247    2.7267753  -12.2565180  
H    0.6951857    0.4716695  -12.5923605  
H    0.8972168   -4.0641254  -10.0956301  
C    0.0000000    0.0000000    1.4700000  
C    1.0541688    0.0001722    2.3260392  
C    0.5103138    0.0000454    3.6635956  
C   -0.9576371   -0.0002459    3.5155732  
N   -1.2018458    0.0001392    2.1615969  
C   -1.8348311   -0.0008317    4.5510609  
C   -1.2972847   -0.0009736    5.9014604  
O   -2.0050672   -0.0014265    6.9001319  
C    0.2542623   -0.0004184    6.0817573  
O    0.7184670   -0.0002256    7.2139121  
C    1.0974552   -0.0000873    4.8889129  
H    2.0940752    0.0005483    2.0517982  
H   -2.9081052   -0.0011668    4.4207061  
H    2.1707277    0.0000911    5.0223670  
H   -2.1128194   -0.0014912    1.7406791  
