62

C    0.5335753   -0.7189664   -5.2240529  
C   -0.2963289   -0.0005348   -4.3948470  
C   -1.1926763    0.7276175   -5.2320779  
C   -0.8591806    0.4107232   -6.5738253  
N    0.1943088   -0.4685472   -6.5330745  
C   -1.5394153    0.9501093   -7.6697869  
C   -2.5753767    1.8251064   -7.4064600  
O   -3.2733090    2.3805997   -8.4395776  
C   -2.9228600    2.1539302   -6.0745639  
O   -3.9763323    3.0394244   -5.9774101  
C   -2.2520516    1.6224005   -4.9928895  
H    0.6400945   -0.8776732   -7.3342434  
H   -1.2900295    0.7127208   -8.6948023  
H   -3.9422210    2.9523873   -8.0409805  
H   -4.1466492    3.2084433   -5.0457295  
H   -2.5407495    1.8930714   -3.9839946  
H    1.3415964   -1.3890960   -4.9853337  
C    3.1301148   -0.0010315   -1.7028253  
C    2.5367766   -0.0002767   -0.4864666  
C    1.1089903    0.0001025   -0.7656183  
C    1.0177867   -0.0004153   -2.2415131  
N    2.1993574   -0.0011616   -2.7963821  
C   -0.2459218   -0.0002884   -2.9257117  
C   -1.3675324   -0.0000610   -2.1698519  
O   -2.6129318    0.0000862   -2.6748483  
C   -1.3083588    0.0000908   -0.6783229  
O   -2.3693264    0.0004202   -0.0541688  
C    0.0000000    0.0000000    0.0000000  
H    3.0096015   -0.0001006    0.4807520  
H   -3.1967441    0.0002093   -1.8949029  
C    4.5679459   -0.0016858   -2.0086704  
C    5.6245800   -0.0018699   -1.1556762  
C    6.8197129   -0.0025289   -1.9659190  
C    6.3695107   -0.0026859   -3.3709487  
N    4.9943545   -0.0025539   -3.3281077  
C    7.1998306   -0.0028683   -4.4443882  
C    8.6325199   -0.0031392   -4.1995666  
O    9.4620772   -0.0033788   -5.0996420  
C    9.1316829   -0.0032312   -2.7194850  
O   10.3356432   -0.0037654   -2.5009923  
C    8.1403751   -0.0027360   -1.6465634  
H    5.5727012   -0.0017596   -0.0814685  
H    6.8490261   -0.0028511   -5.4670542  
H    8.4942119   -0.0025979   -0.6245440  
H    4.3931129   -0.0010552   -4.1315715  
C    2.5311839    2.1237619    3.0120429  
C    1.9795631    1.6616747    1.8395852  
C    0.9223175    0.7739173    2.1983588  
C    0.8753926    0.7337535    3.6154372  
N    1.8668922    1.5631002    4.0777464  
C   -0.0496243   -0.0427881    4.3197917  
C   -0.9437528   -0.7922060    3.5801400  
O   -1.8685244   -1.5680278    4.2172520  
C   -0.9124520   -0.7656372    2.1655264  
O   -1.8671164   -1.5663939    1.5732860  
C    0.0000000    0.0000000    1.4700000  
H    2.3005065    1.9304404    0.8477417  
H    2.0679347    1.7444845    5.0445261  
H   -0.0904770   -0.0778569    5.3997470  
H   -2.3849669   -2.0011402    3.5251786  
H   -1.7775064   -1.4909735    0.6183591  
H    3.3468514    2.8078103    3.1724291  
