60

C    2.9028842   -3.2327675   -7.9656482  
C    3.6275132   -3.1851677   -9.1340294  
C    3.5761451   -1.8384440   -9.6012515  
C    2.7997073   -1.1037607   -8.6688821  
N    2.4049833   -1.9809185   -7.6893901  
C    2.5392574    0.2624511   -8.8117822  
C    3.0725814    0.8986578   -9.9158589  
O    2.8495195    2.2320238  -10.1039850  
C    3.8495579    0.1826932  -10.8574110  
O    4.3095956    0.9572892  -11.9022589  
C    4.1066765   -1.1651798  -10.7172144  
H    4.1302576   -4.0188155   -9.5936738  
H    1.9481367    0.8280775   -8.1047845  
H    3.3036750    2.4720695  -10.9221440  
H    4.8245744    0.3979460  -12.4917812  
H    4.7051219   -1.6869677  -11.4548319  
H    2.7006157   -4.0609471   -7.3082559  
C    1.7704312   -2.0997831   -5.2515186  
C    1.5928585   -1.6333167   -6.5144327  
C    0.4607457   -0.7379007   -6.4771951  
C   -0.0100421   -0.7207976   -5.0790331  
N    0.8257127   -1.5670939   -4.3875226  
C   -1.0641734    0.0073898   -4.6315339  
C   -1.7831600    0.8289565   -5.5910244  
O   -2.7459474    1.5206789   -5.2862920  
C   -1.3021140    0.8259151   -7.0770897  
O   -1.8998117    1.5134385   -7.8939923  
C   -0.1528625    0.0000284   -7.4390071  
H    0.1740159    0.0036596   -8.4699583  
H    2.5118282   -2.7880436   -4.8793394  
H    0.7607705   -1.7654786   -3.4059561  
C    1.1319248    0.0015675   -0.8009270  
C    0.7969916    0.0034959   -2.1169404  
C   -0.6453336    0.0035703   -2.1842672  
C   -1.1266831    0.0015415   -0.7896027  
N    0.0000000    0.0000000    0.0000000  
C   -2.4346129    0.0013924   -0.4276297  
C   -3.4350110    0.0031352   -1.4820184  
O   -4.6384610    0.0030897   -1.2583919  
C   -2.9478958    0.0050460   -2.9661075  
O   -3.7809377    0.0062160   -3.8623775  
C   -1.5113821    0.0053068   -3.2312125  
H    1.4821240    0.0045436   -2.9459192  
H   -2.7664565    0.0000185    0.6013447  
H    2.1104318    0.0009428   -0.3488058  
C    0.8400945    0.7047457    2.2710304  
C    0.0000000    0.0000000    1.4700000  
C   -0.8844236   -0.7423113    2.3369512  
C   -0.4878984   -0.4098547    3.7186280  
N    0.5629682    0.4714286    3.6095011  
C   -1.0836927   -0.9095027    4.8308716  
C   -2.1891196   -1.8367527    4.6554461  
O   -2.7906899   -2.3413415    5.5944904  
C   -2.6257283   -2.2031529    3.2011665  
O   -3.5549479   -2.9829990    3.0410059  
C   -1.9068976   -1.5999348    2.0816745  
H   -0.7774656   -0.6525820    5.8354244  
H   -2.2155208   -1.8586617    1.0779135  
H    1.6384792    1.3747609    1.9961646  
H    1.0518368    0.8833920    4.3830260  
