60

C    3.1114194   -3.0309912   -4.9633892  
C    3.4833927   -3.6808064   -3.8093341  
C    4.6261795   -4.4729412   -4.1273904  
C    4.9080089   -4.2639935   -5.5017412  
N    3.9681688   -3.3846856   -5.9793760  
C    5.9722520   -4.8886429   -6.1590007  
C    6.7666407   -5.7394923   -5.4152403  
O    7.8195176   -6.3751870   -6.0071474  
C    6.5012540   -5.9611098   -4.0429164  
O    7.3820236   -6.8356446   -3.4406055  
C    5.4513626   -5.3454259   -3.3939276  
H    2.9909075   -3.5953520   -2.8558409  
H    3.9209524   -3.0408106   -6.9214491  
H    6.1922604   -4.7337018   -7.2062792  
H    8.2346851   -6.9131666   -5.3205034  
H    7.1326880   -6.9298940   -2.5161853  
H    5.2726390   -5.5348118   -2.3419440  
C    2.0060352   -2.0933379   -5.2079955  
C    1.0681397   -1.6309432   -4.3416127  
C    0.2140990   -0.7346498   -5.0846523  
C    0.7350358   -0.7126392   -6.4648451  
N    1.8215793   -1.5565845   -6.4731483  
C    0.2009223    0.0171140   -7.4767175  
C   -0.9646767    0.8356540   -7.1870522  
O   -1.5183206    1.5285631   -8.0306489  
C   -1.5330623    0.8277890   -5.7321703  
O   -2.5138754    1.5132041   -5.4762935  
C   -0.8712826    0.0001710   -4.7267111  
H    0.9842759   -1.8882191   -3.3007528  
H    0.5983667    0.0189976   -8.4821755  
H    2.3914337   -1.7539288   -7.2752512  
C    1.0965514    0.0001359   -0.8010305  
C    0.0000000    0.0000000    0.0000000  
C   -1.1546563    0.0001470   -0.8669513  
C   -0.6372014    0.0003519   -2.2486282  
N    0.7342871    0.0007337   -2.1395014  
C   -1.4147739    0.0001352   -3.3608717  
C   -2.8576049   -0.0001048   -3.1854462  
O   -3.6427779   -0.0002494   -4.1244907  
C   -3.4275840   -0.0000725   -1.7311666  
O   -4.6406831    0.0000333   -1.5710060  
C   -2.4891867   -0.0001091   -0.6116744  
H   -2.8919122   -0.0002918    0.3920866  
H    2.1388272    0.0000663   -0.5261648  
H    1.3735872   -0.0006099   -2.9130262  
C    0.8681109    0.7263879    2.2709268  
C    0.6127770    0.5096195    3.5869401  
C   -0.4920590   -0.4175482    3.6542670  
C   -0.8620974   -0.7254003    2.2596025  
N    0.0000000    0.0000000    1.4700000  
C   -1.8641242   -1.5660088    1.8976294  
C   -2.6293522   -2.2103885    2.9520183  
O   -3.5512764   -2.9839180    2.7283916  
C   -2.2549728   -1.8987399    4.4361073  
O   -2.8923672   -2.4351063    5.3323774  
C   -1.1543735   -0.9755647    4.7012123  
H    1.1382914    0.9492124    4.4159191  
H   -2.1192137   -1.7782617    0.8686553  
H   -0.9013378   -0.7652422    5.7314848  
H    1.6172880    1.3558399    1.8188057  
