60

C    7.2116283   -3.3801195   -1.7411867  
C    8.5840544   -3.3694622   -1.6473748  
C    9.0095409   -2.0351912   -1.9180824  
C    7.8427331   -1.2696811   -2.1720108  
N    6.7688485   -2.1173124   -2.0583827  
C    7.8844375    0.0943853   -2.4759393  
C    9.1266381    0.6967122   -2.5241128  
O    9.2248890    2.0264386   -2.8159808  
C   10.3023214   -0.0503338   -2.2740970  
O   11.4616948    0.6925043   -2.3600442  
C   10.2619481   -1.3961123   -1.9744699  
H    9.2025235   -4.2191207   -1.4137738  
H    6.9987977    0.6834032   -2.6706201  
H   10.1666579    2.2409782   -2.7984126  
H   12.2081100    0.1135065   -2.1777542  
H   11.1792605   -1.9421795   -1.7878563  
H    6.5136541   -4.1889102   -1.6083391  
C    4.2926942   -2.1403414   -1.5040813  
C    5.3604709   -1.7320208   -2.2284477  
C    4.8134481   -0.8208702   -3.2219621  
C    3.3612071   -0.7952319   -2.9446112  
N    3.0500070   -1.5667026   -1.9386405  
C    2.4521483    0.0014840   -3.7217481  
C    2.9703730    0.7393569   -4.7298756  
O    2.2390463    1.5283419   -5.5352977  
C    4.4316781    0.7349405   -5.0343914  
O    4.8335658    1.4307755   -5.9668722  
C    5.3436396   -0.0906365   -4.2228046  
H    2.8845126    1.9211527   -6.1502982  
H    6.3952201   -0.0661688   -4.4754097  
H    4.2782626   -2.8230632   -0.6694219  
C    0.0000000    0.0000000    0.0000000  
C    1.0662923   -0.0000101   -0.8334270  
C    0.4961873    0.0000065   -2.1718887  
C   -0.9663854   -0.0000848   -1.9540250  
N   -1.2632773   -0.0000083   -0.6828660  
C   -1.8985359   -0.0000514   -3.0477261  
C   -1.3925770    0.0004566   -4.3020547  
O   -2.1456378    0.0005414   -5.4151314  
C    0.0786240    0.0009326   -4.5545000  
O    0.4683767    0.0012591   -5.7221100  
C    1.0143171    0.0008444   -3.4159031  
H    2.1107200    0.0000633   -0.5721865  
H   -2.9622181   -0.0003268   -2.8593381  
H   -1.5042265    0.0009697   -6.1484419  
C    0.0000000    0.0000000    1.4700000  
C    1.0662921    0.0000102    2.3034270  
C    0.4961870   -0.0000064    3.6418889  
C   -0.9663858    0.0000850    3.4240247  
N   -1.2632773    0.0000084    2.1528658  
C   -1.8985362    0.0000517    4.5177257  
C   -1.3925775   -0.0004564    5.7720543  
O   -2.1456383   -0.0005410    6.8851312  
C    0.0786232   -0.0009323    6.0245000  
O    0.4683759   -0.0012588    7.1921102  
C    1.0143166   -0.0008442    4.8859032  
H    2.1107198   -0.0000632    2.0421868  
H   -2.9622183    0.0003270    4.3293377  
H   -1.5042274   -0.0009692    7.6184419  
H    2.0724152   -0.0013148    5.1109744  
