62

C    0.0000000    0.0000000    0.0000000  
C    1.0521661   -0.0011902   -0.8862344  
C    0.4917211   -0.0011956   -2.1979132  
C   -0.9187435    0.0003148   -2.0478678  
N   -1.1833170   -0.0009412   -0.7007910  
C   -1.7951711    0.0010351   -3.1372085  
C   -1.2375846    0.0005226   -4.4010421  
O   -2.0474229    0.0015361   -5.4997574  
C    0.1673569   -0.0013566   -4.5711963  
O    0.5673506   -0.0020687   -5.8915553  
C    1.0325765   -0.0023412   -3.4969895  
H    2.0953057   -0.0030649   -0.6200566  
H   -2.0989777    0.0102372   -0.2891821  
H   -1.4634903    0.0006498   -6.2693591  
H    1.5290693   -0.0033152   -5.9180049  
H    2.1042134   -0.0039609   -3.6584462  
C   -3.2578661    0.0024039   -2.9908499  
C   -4.0046944    0.0033125   -1.8566885  
C   -5.3897524    0.0044627   -2.2646688  
C   -5.3886204    0.0041180   -3.7400636  
N   -4.0656866    0.0032564   -4.1178659  
C   -6.5062997    0.0045471   -4.5098019  
C   -7.7964690    0.0056317   -3.8404755  
O   -8.8606472    0.0061495   -4.4453096  
C   -7.8213911    0.0062654   -2.2786869  
O   -8.9017022    0.0074857   -1.7040673  
C   -6.5505227    0.0054371   -1.5584479  
H   -3.6282787    0.0033734   -0.8492537  
H   -6.5764546    0.0056780   -0.4772210  
H   -3.7375619    0.0012866   -5.0662212  
C   -5.6188552   -0.7015619   -6.7623242  
C   -6.4752356    0.0040105   -5.9794738  
C   -7.3406633    0.7465679   -6.8651819  
C   -6.9152430    0.4133547   -8.2380536  
N   -5.8674848   -0.4685571   -8.1064340  
C   -7.4870784    0.9129757   -9.3628149  
C   -8.5953687    1.8409928   -9.2111147  
O   -9.1766356    2.3456215  -10.1628388  
C   -9.0623754    2.2082016   -7.7665149  
O   -9.9942694    2.9886972   -7.6263012  
C   -8.3677505    1.6049349   -6.6318709  
H   -7.1598568    0.6554935  -10.3605818  
H   -8.6973507    1.8642245   -5.6349467  
H   -4.8268888   -1.3719845   -6.4704124  
H   -5.3626444   -0.8811138   -8.8693108  
C    3.3003543   -0.0005276    2.9438989  
C    2.5232812   -0.0003497    4.0790748  
C    1.1623199    0.0001319    3.6520102  
C    1.1711883   -0.0000583    2.2336141  
N    2.4852299    0.0014920    1.8362361  
C    0.0000000    0.0000000    1.4700000  
C   -1.2020384   -0.0000520    2.1506477  
O   -2.3759250   -0.0003494    1.4542253  
C   -1.2314658    0.0005113    3.5655508  
O   -2.5054393    0.0008037    4.0950179  
C   -0.0764518    0.0007272    4.3195194  
H    2.8919952    0.0005619    5.0905303  
H    2.8036267   -0.0088181    0.8841339  
H   -3.0835639   -0.0000348    2.1118817  
H   -2.4360050    0.0011527    5.0545920  
H   -0.1304098    0.0013421    5.4019087  
H    4.3715549   -0.0004895    2.8367138  
