64

C    3.3283787   -3.6081530   -3.8495691  
C    4.4304785   -4.4135153   -4.0205512  
C    4.8027044   -4.3236288   -5.3945845  
C    3.8836851   -3.4411160   -6.0178828  
N    3.0007931   -3.0263969   -5.0518987  
C    3.9487239   -3.1173978   -7.3764730  
C    4.9601119   -3.6948580   -8.1193146  
O    5.0699880   -3.4129571   -9.4502797  
C    5.8864429   -4.5781335   -7.5155328  
O    6.8343585   -5.0711873   -8.3882870  
C    5.8227203   -4.8981520   -6.1753638  
H    4.9068018   -4.9951902   -3.2499897  
H    3.2512536   -2.4456072   -7.8575487  
H    5.8309322   -3.9128190   -9.7733408  
H    7.4200460   -5.6586920   -7.9010379  
H    6.5462188   -5.5780379   -5.7408716  
H    2.7491961   -3.4037954   -2.9654063  
C    1.8886553   -2.0886683   -5.2633582  
C    0.9763563   -1.6271607   -4.3696036  
C    0.1009358   -0.7303187   -5.0866451  
C    0.5814320   -0.7070193   -6.4814111  
N    1.6673581   -1.5508183   -6.5221213  
C    0.0179864    0.0235615   -7.4766414  
C   -1.1387604    0.8416958   -7.1524076  
O   -1.7168214    1.5352814   -7.9788976  
C   -1.6645103    0.8324700   -5.6815891  
O   -2.6375207    1.5175330   -5.3966322  
C   -0.9736297    0.0040464   -4.6965763  
H    0.9228836   -1.8853689   -3.3269711  
H    0.3859637    0.0263862   -8.4932505  
H    2.2136183   -1.7473796   -7.3406635  
C    1.1188642    0.0008222   -0.8003808  
C    0.0000000    0.0000000    0.0000000  
C   -1.1323862    0.0008899   -0.8673528  
C   -0.6382663    0.0019679   -2.1969280  
N    0.7324016    0.0038481   -2.1202242  
C   -1.4770914    0.0027318   -3.3154808  
C   -2.8395473    0.0020945   -3.0876857  
O   -3.7039201    0.0024425   -4.1440349  
C   -3.3517868    0.0013931   -1.7684331  
O   -4.7300497    0.0012366   -1.7073121  
C   -2.5248543    0.0009123   -0.6644817  
H    1.3576314   -0.0056167   -2.9057046  
H   -4.5940032    0.0021826   -3.7685128  
H   -4.9934602    0.0007259   -0.7819913  
H   -2.9462577    0.0005603    0.3339659  
H    2.1619895    0.0009355   -0.5342068  
C    0.8576279    0.7185626    2.2703808  
C    0.0000000    0.0000000    1.4700000  
C   -0.8668858   -0.7285659    2.3373528  
C   -0.4876752   -0.4117774    3.6669281  
N    0.5635254    0.4678311    3.5902241  
C   -1.1297612   -0.9515493    4.7854808  
C   -2.1738724   -1.8268314    4.5576857  
O   -2.8357962   -2.3827064    5.6140350  
C   -2.5667212   -2.1555554    3.2384331  
O   -3.6226318   -3.0413663    3.1773122  
C   -1.9335634   -1.6236449    2.1344818  
H    1.0363952    0.8769718    4.3757045  
H   -0.8454472   -0.7142436    5.8013813  
H   -3.5178062   -2.9546422    5.2385129  
H   -3.8247440   -3.2102924    2.2519915  
H   -2.2566033   -1.8942483    1.1360343  
H    1.6567807    1.3889844    2.0042067  
