62

C   -8.4065428    0.9853973   -1.8165103  
C   -9.7118041    0.5692539   -1.6916711  
C   -9.7282499   -0.8332983   -1.9508566  
C   -8.3926109   -1.2206484   -2.2300570  
N   -7.6161291   -0.0919663   -2.1419065  
C   -8.0344888   -2.5381896   -2.5310934  
C   -9.0430150   -3.4819503   -2.5503362  
O   -8.7488084   -4.7833560   -2.8380836  
C  -10.3817374   -3.1148956   -2.2748216  
O  -11.2703260   -4.1686084   -2.3335087  
C  -10.7358009   -1.8152492   -1.9780303  
H  -10.5492596    1.1993066   -1.4453086  
H   -7.0183776   -2.8398309   -2.7449450  
H   -9.5840483   -5.2672026   -2.7989276  
H  -12.1507956   -3.8353770   -2.1351795  
H  -11.7695930   -1.5640790   -1.7714687  
H   -7.9770623    1.9657382   -1.7005911  
C   -4.4234436    2.1223642   -0.0294722  
C   -3.3650553    1.6607020   -0.7772355  
C   -3.9025226    0.7730947   -1.7559501  
C   -5.3060603    0.7325803   -1.5550348  
N   -5.5885468    1.5615827   -0.4978812  
C   -6.1607755   -0.0439296   -2.3432494  
C   -5.5882321   -0.7929544   -3.3528697  
O   -6.3766930   -1.5687276   -4.1525694  
C   -4.1898435   -0.7660323   -3.5687436  
O   -3.7729988   -1.5664199   -4.6122782  
C   -3.3460097   -0.0004262   -2.7913647  
H   -2.3324969    1.9296472   -0.6341108  
H   -6.5054887    1.7426746   -0.1312688  
H   -5.7851989   -2.0015455   -4.7819092  
H   -2.8170936   -1.4907765   -4.6905560  
H   -4.4392678    2.8061852    0.8018504  
C    0.0000000    0.0000000    0.0000000  
C    1.0662919   -0.0000103   -0.8334272  
C    0.4961868    0.0000066   -2.1718889  
C   -0.9663860   -0.0000849   -1.9540248  
N   -1.2632775   -0.0000084   -0.6828659  
C   -1.8985364   -0.0000515   -3.0477258  
C   -1.3925778    0.0004567   -4.3020543  
O   -2.1456385    0.0005412   -5.4151314  
C    0.0786229    0.0009326   -4.5544999  
O    0.4683756    0.0012594   -5.7221104  
C    1.0143162    0.0008443   -3.4159034  
H    2.1107195    0.0000631   -0.5721869  
H   -1.5042277    0.0009692   -6.1484420  
H    2.0724151    0.0013151   -3.6409746  
C    1.0672568    0.0000697    2.3021913  
C    0.0000000    0.0000000    1.4700000  
C   -1.1601224    0.0000736    2.3478473  
C   -0.5938729    0.0000769    3.7138435  
N    0.7113367    0.0001554    3.6934124  
C   -1.4286986    0.0001879    4.8835240  
C   -2.7683114    0.0006799    4.6970523  
O   -3.6653903    0.0008304    5.6976972  
C   -3.3702025    0.0010610    3.3310774  
O   -4.5974910    0.0013779    3.2362962  
C   -2.4926826    0.0008943    2.1470656  
H   -0.9878360   -0.0000190    5.8697035  
H   -4.5324246    0.0012261    5.2533954  
H   -2.9677772    0.0012974    1.1752040  
H    2.1134392    0.0000545    2.0405121  
