66

C    4.6817176   -1.0174625   -5.0514508  
C    5.5279859   -1.9095778   -4.4346635  
C    6.6030020   -2.1570380   -5.3389329  
C    6.3565743   -1.3814300   -6.5006700  
N    5.1811236   -0.7031307   -6.2936814  
C    7.2151153   -1.3784313   -7.6041586  
C    8.3431266   -2.1726428   -7.5334726  
O    9.2154472   -2.2069107   -8.5827080  
C    8.6061055   -2.9538781   -6.3831116  
O    9.7690995   -3.6913831   -6.4660192  
C    7.7594336   -2.9575340   -5.2942322  
H    5.3871743   -2.3310803   -3.4541019  
H    4.7575330   -0.0646389   -6.9424346  
H    7.0328789   -0.7896491   -8.4925998  
H    9.9226376   -2.8146436   -8.3301045  
H    9.8721130   -4.1896810   -5.6495075  
H    7.9870239   -3.5663950   -4.4270705  
C    2.8320534   -0.6842461   -3.3638062  
C    1.6628945    0.0339172   -3.2649299  
C    1.5251285    0.7739971   -4.4764999  
C    2.6497195    0.4643214   -5.2835456  
N    3.4240287   -0.4223174   -4.5771929  
C    2.8441976    1.0160065   -6.5534315  
C    1.8857970    1.8961105   -7.0171810  
O    2.0260218    2.4635787   -8.2506027  
C    0.7569696    2.2178791   -6.2265923  
O   -0.1068566    3.1097693   -6.8279902  
C    0.5646030    1.6742142   -4.9736157  
H    3.6992248    0.7841692   -7.1734164  
H    1.2587972    3.0370518   -8.3761373  
H   -0.8411877    3.2733640   -6.2283251  
H   -0.3098402    1.9397123   -4.3910878  
H    3.2912523   -1.3614900   -2.6642093  
C    1.1243410    0.0100105   -0.7919003  
C    0.7474072    0.0234665   -2.1148542  
C   -0.6787384    0.0234379   -2.1414698  
C   -1.1201748    0.0098411   -0.7935547  
N    0.0000000    0.0000000    0.0000000  
C   -2.4730818    0.0063307   -0.4408240  
C   -3.3971962    0.0170429   -1.4675058  
O   -4.7313520    0.0145490   -1.1793468  
C   -2.9763654    0.0303020   -2.8186325  
O   -4.0166484    0.0394464   -3.7247625  
C   -1.6418567    0.0334992   -3.1673480  
H   -2.8160166   -0.0041569    0.5845966  
H   -5.1938823    0.0230023   -2.0274386  
H   -3.6464680    0.0481700   -4.6127343  
H   -1.3497475    0.0435647   -4.2109234  
H    2.1062466    0.0053162   -0.3505405  
C    0.8676693    0.7151171    2.2619005  
C    0.5875920    0.4624972    3.5848544  
C   -0.5048400   -0.4542819    3.6114698  
C   -0.8517165   -0.7276451    2.2635546  
N    0.0000000    0.0000000    1.4700000  
C   -1.8902865   -1.5946756    1.9108239  
C   -2.5912627   -2.1969500    2.9375057  
O   -3.6148162   -3.0527051    2.6493466  
C   -2.2603868   -1.9365747    4.2886322  
O   -3.0513550   -2.6123276    5.1947621  
C   -1.2361111   -1.0811317    4.6373480  
H    1.1060808    0.8876438    4.4271209  
H   -2.1597133   -1.8070987    0.8854031  
H   -3.9636755   -3.3565188    3.4974381  
H   -2.7621927   -2.3810384    6.0827341  
H   -1.0058879   -0.9010589    5.6809233  
H    1.6167816    1.3499334    1.8205408  
