60

C    6.2051227   -4.6214661   -5.7737543  
C    5.4413831   -3.5148924   -5.4827827  
C    5.9048425   -2.4572306   -6.3201341  
C    6.9614358   -2.9822445   -7.1074695  
N    7.1190671   -4.2980732   -6.7491880  
C    7.6553972   -2.2165519   -8.0492349  
C    7.2756165   -0.8969023   -8.1991311  
O    7.9195278   -0.1044065   -9.1048597  
C    6.2240593   -0.3547341   -7.4225387  
O    5.9648849    0.9740228   -7.6882005  
C    5.5391904   -1.1094507   -6.4930844  
H    4.6485667   -3.4746206   -4.7555874  
H    7.7883925   -4.9317544   -7.1472233  
H    8.4616917   -2.6107236   -8.6523267  
H    7.5045706    0.7662345   -9.0495427  
H    5.2422032    1.2620203   -7.1221692  
H    6.1711873   -5.6154374   -5.3616527  
C    4.2034632   -0.7255611   -4.3886927  
C    4.4527392   -0.5087782   -5.7058645  
C    3.4509038    0.4181860   -6.1769258  
C    2.5913884    0.7259028   -5.0179026  
N    3.1006054    0.0006263   -3.9654951  
C    1.5263726    1.5663063   -5.0520706  
C    1.2050739    2.2105929   -6.3146855  
O    0.2656473    2.9839394   -6.4477796  
C    2.1016856    1.8990847   -7.5551920  
O    1.8407233    2.4353745   -8.6236264  
C    3.2224910    0.9761281   -7.3945737  
H    0.9088831    1.7784629   -4.1903242  
H    3.8385514    0.7659019   -8.2582846  
H    4.7325171   -1.3548943   -3.6916046  
C    3.2798083    0.0005857   -1.4499652  
C    2.5571142    0.0005565   -2.5996556  
C    1.1637432    0.0001548   -2.2210361  
C    1.1336964   -0.0000200   -0.7459473  
N    2.4483512   -0.0001428   -0.3402723  
C    0.0000000    0.0000000    0.0000000  
C   -1.2757368   -0.0000186   -0.6964415  
O   -2.3524598   -0.0000639   -0.1142311  
C   -1.2676497   -0.0000872   -2.2584083  
O   -2.3355766   -0.0004101   -2.8557295  
C    0.0181558    0.0001758   -2.9516296  
H    0.0150788    0.0003319   -4.0331631  
H    4.3498547    0.0008612   -1.3200026  
H    2.7563626    0.0012823    0.6148059  
C    0.8681109    0.7263879    2.2709268  
C    0.6127770    0.5096195    3.5869401  
C   -0.4920590   -0.4175482    3.6542670  
C   -0.8620974   -0.7254003    2.2596025  
N    0.0000000    0.0000000    1.4700000  
C   -1.8641242   -1.5660088    1.8976294  
C   -2.6293522   -2.2103885    2.9520183  
O   -3.5512764   -2.9839180    2.7283916  
C   -2.2549728   -1.8987399    4.4361073  
O   -2.8923672   -2.4351063    5.3323774  
C   -1.1543735   -0.9755647    4.7012123  
H    1.1382914    0.9492124    4.4159191  
H   -2.1192137   -1.7782617    0.8686553  
H   -0.9013378   -0.7652422    5.7314848  
H    1.6172880    1.3558399    1.8188057  
