62

C   -7.6413793    5.3324282    0.5000169  
C   -6.7361759    4.4093265    0.0299542  
C   -7.4104925    3.1534100   -0.0207388  
C   -8.7358468    3.3739526    0.4339266  
N   -8.8417919    4.7071527    0.7437194  
C   -9.6868421    2.3524073    0.5166462  
C   -9.2928077    1.0851986    0.1331140  
O  -10.1815846    0.0510673    0.1936390  
C   -7.9747653    0.8451707   -0.3229204  
O   -7.7366091   -0.4692684   -0.6677025  
C   -7.0359825    1.8524210   -0.4045289  
H   -5.7150940    4.6155557   -0.2418081  
H   -9.6712798    5.1601182    1.0824667  
H  -10.6985340    2.5139520    0.8624579  
H   -9.7090970   -0.7333938   -0.1140013  
H   -6.8246797   -0.5453701   -0.9646813  
H   -7.5252959    6.3871001    0.6820882  
C   -4.5109071    2.0977186   -0.3577879  
C   -3.4201851    1.6341429   -1.0207351  
C   -3.9001607    0.7380705   -2.0461682  
C   -5.3704635    0.7174770   -1.9254398  
N   -5.6768568    1.5619483   -0.8833834  
C   -6.1968217   -0.0116749   -2.7173831  
C   -5.5981518   -0.8310168   -3.7579638  
O   -6.2573266   -1.5234764   -4.5223515  
C   -4.0429941   -0.8246547   -3.9037356  
O   -3.5275663   -1.5107550   -4.7760092  
C   -3.2578655    0.0024282   -2.9908505  
H   -2.3962312    1.8904974   -0.8147870  
H   -7.2728523   -0.0125174   -2.6121839  
H   -4.5610337    2.7855092    0.4706574  
C    0.0000000    0.0000000    0.0000000  
C    1.0521666   -0.0011982   -0.8862343  
C    0.4917215   -0.0011996   -2.1979132  
C   -0.9187429    0.0003215   -2.0478682  
N   -1.1833171   -0.0009323   -0.7007913  
C   -1.7951703    0.0010483   -3.1372089  
C   -1.2375841    0.0005313   -4.4010422  
O   -2.0474218    0.0015510   -5.4997578  
C    0.1673576   -0.0013585   -4.5711963  
O    0.5673520   -0.0020735   -5.8915554  
C    1.0325768   -0.0023493   -3.4969892  
H    2.0953056   -0.0030808   -0.6200564  
H   -2.0989778    0.0102529   -0.2891822  
H   -1.4634888    0.0006601   -6.2693595  
H    1.5290707   -0.0033271   -5.9180047  
H    2.1042146   -0.0039770   -3.6584456  
C    1.1319247   -0.0015655    2.2709268  
C    0.7969915   -0.0034943    3.5869401  
C   -0.6453339   -0.0035710    3.6542670  
C   -1.1266833   -0.0015433    2.2596025  
N    0.0000000    0.0000000    1.4700000  
C   -2.4346130   -0.0013964    1.8976294  
C   -3.4350110   -0.0031408    2.9520183  
O   -4.6384611   -0.0030974    2.7283916  
C   -2.9478959   -0.0050506    4.4361073  
O   -3.7809380   -0.0062218    5.3323774  
C   -1.5113823   -0.0053090    4.7012123  
H    1.4821238   -0.0045407    4.4159191  
H   -2.7664565   -0.0000232    0.8686553  
H   -1.1823530   -0.0068408    5.7314848  
H    2.1104316   -0.0009391    1.8188057  
