62

C    9.0071987    0.0003575   -0.1919581  
C   10.1059247    0.0009041   -1.0197684  
C   11.2594163    0.0007535   -0.1806895  
C   10.7983347   -0.0001845    1.1607010  
N    9.4261882    0.0015477    1.1179256  
C   11.6645697   -0.0008798    2.2581637  
C   13.0209746   -0.0009305    1.9967384  
O   13.9112115   -0.0019468    3.0313844  
C   13.5004267    0.0003726    0.6652200  
O   14.8767554    0.0005649    0.5700274  
C   12.6464408    0.0013321   -0.4179396  
H   10.0792953    0.0024609   -2.0960036  
H    8.8205804   -0.0091710    1.9186160  
H   11.3194755   -0.0014519    3.2829138  
H   14.7917333   -0.0014953    2.6339617  
H   15.1171987    0.0014423   -0.3615249  
H   13.0430195    0.0025036   -1.4265041  
C    6.8742260    0.0004673   -4.0661423  
C    5.5942422    0.0008992   -3.5620504  
C    5.7067592    0.0008100   -2.1401013  
C    7.0913505    0.0006002   -1.8321531  
N    7.7720040   -0.0015555   -3.0243458  
C    7.5742853    0.0007687   -0.5200693  
C    6.6425085    0.0014633    0.4997193  
O    7.0593435    0.0020074    1.7994356  
C    5.2567325    0.0013069    0.2125910  
O    4.4562659    0.0016418    1.3362443  
C    4.7795901    0.0008674   -1.0815733  
H    4.6906028    0.0001318   -4.1472243  
H    8.7711574    0.0083685   -3.1221988  
H    6.2603308    0.0021429    2.3424295  
H    3.5363981    0.0015350    1.0543802  
H    7.2178043   -0.0000037   -5.0863941  
C    3.3321168    0.0004716   -1.3379341  
C    2.6974177    0.0000118   -2.5332316  
C    1.2800432   -0.0002116   -2.2052842  
C    1.2395033    0.0000644   -0.7271298  
N    2.4394059    0.0005460   -0.2131041  
C    0.0000000    0.0000000    0.0000000  
C   -1.1468704    0.0000635   -0.7169542  
O   -2.3742206    0.0000074   -0.1695488  
C   -1.1388774    0.0001608   -2.2096352  
O   -2.2206238    0.0000906   -2.7970409  
C    0.1454514    0.0001818   -2.9324241  
H    3.1367978   -0.0000649   -3.5160956  
H   -2.9844350    0.0001027   -0.9290164  
H    0.1083567    0.0003684   -4.0135594  
C    0.0000000    0.0000000    1.4700000  
C    1.0541688    0.0001722    2.3260392  
C    0.5103138    0.0000454    3.6635956  
C   -0.9576371   -0.0002459    3.5155732  
N   -1.2018458    0.0001392    2.1615969  
C   -1.8348311   -0.0008317    4.5510609  
C   -1.2972847   -0.0009736    5.9014604  
O   -2.0050672   -0.0014265    6.9001319  
C    0.2542623   -0.0004184    6.0817573  
O    0.7184670   -0.0002256    7.2139121  
C    1.0974552   -0.0000873    4.8889129  
H    2.0940752    0.0005483    2.0517982  
H   -2.9081052   -0.0011668    4.4207061  
H    2.1707277    0.0000911    5.0223670  
H   -2.1128194   -0.0014912    1.7406791  
