60

C    4.5236614   -2.7974352   -9.0843278  
C    3.8730149   -1.8761299   -8.2967205  
C    3.9629613   -0.6193480   -8.9653074  
C    4.6855944   -0.8375372  -10.1661908  
N    5.0126205   -2.1702269  -10.2063235  
C    4.9643086    0.1854098  -11.0776109  
C    4.5049018    1.4516257  -10.7713114  
O    4.7488575    2.4870476  -11.6265322  
C    3.7824345    1.6893086   -9.5778437  
O    3.3935160    3.0030146   -9.4157879  
C    3.5073455    0.6806746   -8.6781162  
H    3.3935998   -2.0840793   -7.3554919  
H    5.5183266   -2.6216555  -10.9469009  
H    5.5146879    0.0256603  -11.9945430  
H    4.3479077    3.2704979  -11.2281465  
H    2.9119140    3.0775156   -8.5862618  
H    4.6788737   -3.8520522   -8.9338235  
C    3.9401659   -0.7297684   -4.5164159  
C    4.0974222   -0.5149780   -5.8480353  
C    3.0659753    0.4122204   -6.2496023  
C    2.2893659    0.7222461   -5.0340559  
N    2.8699641   -0.0020530   -4.0185824  
C    1.2252020    1.5635280   -4.9952719  
C    0.8173885    2.2063907   -6.2333959  
O   -0.1284207    2.9803730   -6.3019364  
C    1.6253360    1.8924315   -7.5328017  
O    1.2911306    2.4275068   -8.5812585  
C    2.7538829    0.9687189   -7.4492041  
H    4.8499670   -0.9558997   -6.4772237  
H    0.6692887    1.7773825   -4.0929762  
H    4.5159219   -1.3586207   -3.8569165  
C    3.2573670   -0.0002921   -1.5109382  
C    2.5379468   -0.0001711   -0.3591962  
C    1.1435043    0.0000330   -0.7338498  
C    1.1092608   -0.0000085   -2.2088474  
N    2.4227562    0.0001906   -2.6182610  
C   -0.0265533   -0.0002525   -2.9515663  
C   -1.3003033   -0.0002641   -2.2514979  
O   -2.3786785   -0.0004132   -2.8306425  
C   -1.2877724    0.0000310   -0.6895608  
O   -2.3539956    0.0003306   -0.0892035  
C    0.0000000    0.0000000    0.0000000  
H    2.9384091   -0.0000370    0.6389240  
H   -0.0296290   -0.0004088   -4.0327231  
H    4.3270394   -0.0004767   -1.6439445  
C    0.8400945    0.7047457    2.2710304  
C    0.0000000    0.0000000    1.4700000  
C   -0.8844236   -0.7423113    2.3369512  
C   -0.4878984   -0.4098547    3.7186280  
N    0.5629682    0.4714286    3.6095011  
C   -1.0836927   -0.9095027    4.8308716  
C   -2.1891196   -1.8367527    4.6554461  
O   -2.7906899   -2.3413415    5.5944904  
C   -2.6257283   -2.2031529    3.2011665  
O   -3.5549479   -2.9829990    3.0410059  
C   -1.9068976   -1.5999348    2.0816745  
H   -0.7774656   -0.6525820    5.8354244  
H   -2.2155208   -1.8586617    1.0779135  
H    1.6384792    1.3747609    1.9961646  
H    1.0518368    0.8833920    4.3830260  
