62

C    8.3562011    0.7140888   -3.8290107  
C    9.6121554    0.4658266   -4.3324100  
C   10.2476688   -0.4437387   -3.4360773  
C    9.3230266   -0.7173961   -2.3958495  
N    8.1857344    0.0031518   -2.6641678  
C    9.6132592   -1.5782891   -1.3331089  
C   10.8595057   -2.1740109   -1.3203991  
O   11.1949347   -3.0236031   -0.3061538  
C   11.7957979   -1.9132300   -2.3490724  
O   12.9924577   -2.5820695   -2.1941472  
C   11.5102544   -1.0638385   -3.3976551  
H   10.0204993    0.8891788   -5.2340884  
H    8.9129514   -1.7908997   -0.5371387  
H   12.0951449   -3.3235135   -0.4876451  
H   13.5675319   -2.3509841   -2.9300096  
H   12.2476474   -0.8832866   -4.1710444  
H    7.5690239    1.3431519   -4.2079450  
C    5.6692779    0.0013337   -2.3388887  
C    4.7630507    0.0004755   -1.3275395  
C    5.5107321   -0.0007787   -0.0923042  
C    6.9370632   -0.0005500   -0.4696228  
N    6.9650294    0.0003506   -1.8451615  
C    7.9663623   -0.0010976    0.4148250  
C    7.6481548   -0.0021966    1.8330204  
O    8.5043582   -0.0028173    2.7077865  
C    6.1443522   -0.0027088    2.2553735  
O    5.8642064   -0.0039399    3.4464980  
C    5.1238530   -0.0017578    1.2101785  
H    9.0057222   -0.0007868    0.1170995  
H    4.0849824   -0.0019147    1.5109647  
H    5.4995508    0.0023847   -3.4033514  
C    3.3003548    0.0005276   -1.4738982  
C    2.5232817    0.0003497   -2.6090743  
C    1.1623204   -0.0001319   -2.1820101  
C    1.1711886    0.0000583   -0.7636140  
N    2.4852302   -0.0014919   -0.3662356  
C    0.0000000    0.0000000    0.0000000  
C   -1.2020379    0.0000520   -0.6806479  
O   -2.3759249    0.0003495    0.0157742  
C   -1.2314652   -0.0005112   -2.0955511  
O   -2.5054384   -0.0008036   -2.6250184  
C   -0.0764510   -0.0007271   -2.8495195  
H    2.8919962   -0.0005619   -3.6205297  
H    2.8036267    0.0088181    0.5858667  
H   -3.0835636    0.0000348   -0.6418823  
H   -2.4360038   -0.0011526   -3.5845925  
H   -0.1304090   -0.0013420   -3.9319089  
C    0.8175213    0.6860729    2.3021913  
C    0.0000000    0.0000000    1.4700000  
C   -0.8887526   -0.7456559    2.3478473  
C   -0.4549825   -0.3816753    3.7138435  
N    0.5448156    0.4573574    3.6934124  
C   -1.0945674   -0.9182058    4.8835240  
C   -2.1210866   -1.7789155    4.6970523  
O   -2.8083856   -2.3554314    5.6976972  
C   -2.5824069   -2.1655116    3.3310774  
O   -3.5227682   -2.9541547    3.2362962  
C   -1.9100805   -1.6015804    2.1470656  
H   -0.7567140   -0.6349833    5.8697035  
H   -3.4728268   -2.9124471    5.2533954  
H   -2.2742832   -1.9066565    1.1752040  
H    1.6189533    1.3585343    2.0405121  
