62

C    7.3940460   -3.0768338   -2.1547311  
C    8.7655233   -2.9720982   -2.1780888  
C    9.0742088   -1.6081936   -2.4592974  
C    7.8404298   -0.9223993   -2.5985832  
N    6.8405820   -1.8439131   -2.4095503  
C    7.7627636    0.4449995   -2.8796135  
C    8.9522598    1.1326805   -3.0223404  
O    8.9341760    2.4695987   -3.2968139  
C   10.1932652    0.4659699   -2.8873670  
O   11.2876100    1.2885382   -3.0580568  
C   10.2706388   -0.8830396   -2.6103960  
H    9.4582643   -3.7796464   -2.0138634  
H    6.8255794    0.9735157   -2.9871219  
H    9.8571445    2.7487696   -3.3556272  
H   12.0846607    0.7605071   -2.9508360  
H   11.2356837   -1.3664115   -2.5128282  
H    6.7668433   -3.9337466   -1.9778807  
C    4.4498807   -2.0927813   -1.5965445  
C    3.2085348   -1.6305559   -1.8956811  
C    3.3524544   -0.7335190   -3.0179322  
C    4.7897029   -0.7108881   -3.3504915  
N    5.3998261   -1.5552206   -2.4517471  
C    5.3348521    0.0196507   -4.3558920  
C    4.4468029    0.8384416   -5.1642766  
O    4.8411378    1.5320447   -6.0925629  
C    2.9210858    0.8299296   -4.8297318  
O    2.1637301    1.5155489   -5.5032295  
C    2.4521483    0.0014840   -3.7217481  
H    2.2961916   -1.8884108   -1.3879858  
H    6.3918374    0.0219794   -4.5832375  
H    4.7506790   -2.7807341   -0.8231549  
C    0.0000000    0.0000000    0.0000000  
C    1.0662923   -0.0000101   -0.8334270  
C    0.4961873    0.0000065   -2.1718887  
C   -0.9663854   -0.0000848   -1.9540250  
N   -1.2632773   -0.0000083   -0.6828660  
C   -1.8985359   -0.0000514   -3.0477261  
C   -1.3925770    0.0004566   -4.3020547  
O   -2.1456378    0.0005414   -5.4151314  
C    0.0786240    0.0009326   -4.5545000  
O    0.4683767    0.0012591   -5.7221100  
C    1.0143171    0.0008444   -3.4159031  
H    2.1107200    0.0000633   -0.5721865  
H   -2.9622181   -0.0003268   -2.8593381  
H   -1.5042265    0.0009697   -6.1484419  
C    3.3003543   -0.0005276    2.9438989  
C    2.5232812   -0.0003497    4.0790748  
C    1.1623199    0.0001319    3.6520102  
C    1.1711883   -0.0000583    2.2336141  
N    2.4852299    0.0014920    1.8362361  
C    0.0000000    0.0000000    1.4700000  
C   -1.2020384   -0.0000520    2.1506477  
O   -2.3759250   -0.0003494    1.4542253  
C   -1.2314658    0.0005113    3.5655508  
O   -2.5054393    0.0008037    4.0950179  
C   -0.0764518    0.0007272    4.3195194  
H    2.8919952    0.0005619    5.0905303  
H    2.8036267   -0.0088181    0.8841339  
H   -3.0835639   -0.0000348    2.1118817  
H   -2.4360050    0.0011527    5.0545920  
H   -0.1304098    0.0013421    5.4019087  
H    4.3715549   -0.0004895    2.8367138  
