60

C    3.3960028   -5.6131053   -8.6202667  
C    3.6513299   -5.1789433   -9.9004148  
C    3.3495904   -3.7852676   -9.9353597  
C    2.9111411   -3.4216437   -8.6363347  
N    2.9495509   -4.5553681   -7.8631524  
C    2.5290135   -2.1183610   -8.3043374  
C    2.5909094   -1.1647191   -9.3017909  
O    2.2296130    0.1235601   -9.0319481  
C    3.0253727   -1.5081426  -10.6041433  
O    3.0311481   -0.4471797  -11.4859970  
C    3.4022446   -2.7937203  -10.9324476  
H    4.0097959   -5.7916274  -10.7098052  
H    2.7036112   -4.6034118   -6.8909453  
H    2.3453878    0.6175150   -9.8540604  
H    3.3369213   -0.7642709  -12.3413091  
H    3.7305292   -3.0268578  -11.9386053  
H    3.4956676   -6.5938921   -8.1877370  
C    2.5632301   -2.1406391   -5.7671238  
C    2.0732866   -1.7328926   -6.9609732  
C    0.9882149   -0.8221521   -6.6298070  
C    0.9615394   -0.7960980   -5.1515667  
N    1.8825657   -1.5669911   -4.6402698  
C    0.0139741    0.0003876   -4.4216236  
C   -0.8666505    0.7376430   -5.1359692  
O   -1.8054110    1.5263495   -4.5857773  
C   -0.8647107    0.7327951   -6.6286625  
O   -1.6951609    1.4280735   -7.2136077  
C    0.1171803   -0.0925343   -7.3543662  
H   -2.2750002    1.9187220   -5.3438555  
H    0.0858060   -0.0683943   -8.4354135  
H    3.3774711   -2.8229275   -5.5814675  
C    3.2798085    0.0005853   -1.4499648  
C    2.5571144    0.0005562   -2.5996554  
C    1.1637436    0.0001546   -2.2210360  
C    1.1336965   -0.0000201   -0.7459470  
N    2.4483513   -0.0001430   -0.3402717  
C    0.0000000    0.0000000    0.0000000  
C   -1.2757367   -0.0000188   -0.6964414  
O   -2.3524597   -0.0000640   -0.1142313  
C   -1.2676494   -0.0000875   -2.2584081  
O   -2.3355762   -0.0004102   -2.8557294  
C    0.0181562    0.0001757   -2.9516296  
H    2.9547357    0.0006072   -3.5989105  
H    4.3498550    0.0008609   -1.3200021  
H    2.7563627    0.0012824    0.6148063  
C    2.4951002    2.0940188    2.9809380  
C    1.9440701    1.6314916    1.8291961  
C    0.8759964    0.7350050    2.2038498  
C    0.8497377    0.7130254    3.6788474  
N    1.8560616    1.5571714    4.0882609  
C   -0.0205033   -0.0168748    4.4215661  
C   -0.9962600   -0.8356168    3.7214979  
O   -1.8224391   -1.5286685    4.3006425  
C   -0.9864710   -0.8277881    2.1595606  
O   -1.8030528   -1.5133726    1.5592035  
C    0.0000000    0.0000000    1.4700000  
H    2.2509283    1.8888011    0.8310761  
H   -0.0229599   -0.0187323    5.5027230  
H    3.3143982    2.7817323    3.1139444  
H    2.0889452    1.7545833    5.0442112  
