62

C   -8.4370995    1.1514569   -2.2228917  
C   -7.6302191    0.0673161   -2.4798923  
C   -8.4859484   -1.0658467   -2.6150548  
C   -9.8154798   -0.6079136   -2.4291324  
N   -9.7497704    0.7425119   -2.1911188  
C  -10.9240209   -1.4574412   -2.4941728  
C  -10.6860946   -2.7935361   -2.7518918  
O  -11.7324415   -3.6668158   -2.8264182  
C   -9.3666823   -3.2695889   -2.9398829  
O   -9.2947795   -4.6248654   -3.1876714  
C   -8.2725837   -2.4321271   -2.8755896  
H  -10.5386468    1.3428957   -2.0323944  
H  -11.9398192   -1.1146680   -2.3532450  
H  -11.3509538   -4.5348908   -3.0112885  
H   -8.3701108   -4.8643986   -3.3026327  
H   -7.2737331   -2.8256447   -3.0236406  
H   -8.1800010    2.1838204   -2.0583175  
C   -4.3329665    2.1450166   -0.3175484  
C   -5.5711456    1.7385431   -0.6826118  
C   -5.3538018    0.8273993   -1.7957508  
C   -3.8860920    0.7997433   -1.9736450  
N   -3.2823480    1.5701205   -1.1099310  
C   -3.2578655    0.0024282   -2.9908505  
C   -4.0594180   -0.7340898   -3.7935894  
O   -3.6090879   -1.5234311   -4.7836320  
C   -5.5440614   -0.7276254   -3.6388177  
O   -6.2117105   -1.4223047   -4.4049022  
C   -6.1645244    0.0985302   -2.5879055  
H   -6.5153527    2.0219329   -0.2499008  
H   -4.4116857   -1.9150018   -5.1730704  
H   -4.0641812    2.8271376    0.4732985  
C    0.0000000    0.0000000    0.0000000  
C    1.0521666   -0.0011982   -0.8862343  
C    0.4917215   -0.0011996   -2.1979132  
C   -0.9187429    0.0003215   -2.0478682  
N   -1.1833171   -0.0009323   -0.7007913  
C   -1.7951703    0.0010483   -3.1372089  
C   -1.2375841    0.0005313   -4.4010422  
O   -2.0474218    0.0015510   -5.4997578  
C    0.1673576   -0.0013585   -4.5711963  
O    0.5673520   -0.0020735   -5.8915554  
C    1.0325768   -0.0023493   -3.4969892  
H    2.0953056   -0.0030808   -0.6200564  
H   -2.0989778    0.0102529   -0.2891822  
H   -1.4634888    0.0006601   -6.2693595  
H    1.5290707   -0.0033271   -5.9180047  
H    2.1042146   -0.0039770   -3.6584456  
C    0.0000000    0.0000000    1.4700000  
C    1.0662921    0.0000102    2.3034270  
C    0.4961870   -0.0000064    3.6418889  
C   -0.9663858    0.0000850    3.4240247  
N   -1.2632773    0.0000084    2.1528658  
C   -1.8985362    0.0000517    4.5177257  
C   -1.3925775   -0.0004564    5.7720543  
O   -2.1456383   -0.0005410    6.8851312  
C    0.0786232   -0.0009323    6.0245000  
O    0.4683759   -0.0012588    7.1921102  
C    1.0143166   -0.0008442    4.8859032  
H    2.1107198   -0.0000632    2.0421868  
H   -2.9622183    0.0003270    4.3293377  
H   -1.5042274   -0.0009692    7.6184419  
H    2.0724152   -0.0013148    5.1109744  
