62

C   10.0865256    0.7095830   -1.0972534  
C   11.3218483    0.4594296   -0.5460105  
C   11.1191113   -0.4482641    0.5354651  
C    9.7280823   -0.7188835    0.5965158  
N    9.1302743    0.0015974   -0.4075514  
C    9.1655866   -1.5773160    1.5459801  
C   10.0229857   -2.1736554    2.4500964  
O    9.5267925   -3.0209299    3.3982157  
C   11.4138068   -1.9158900    2.4054690  
O   12.1344487   -2.5849721    3.3731200  
C   11.9693815   -1.0689268    1.4692449  
H   12.2542461    0.8803531   -0.8813500  
H    8.1062067   -1.7876056    1.5978808  
H   10.2832499   -3.3217549    3.9183502  
H   13.0635246   -2.3559946    3.2731653  
H   13.0383095   -0.8906596    1.4597282  
H    9.8117085    1.3381250   -1.9269338  
C    6.6781261    0.0000524   -4.1292993  
C    7.7444182    0.0009684   -3.2958728  
C    7.1743128    0.0014027   -1.9574109  
C    5.7117403    0.0007371   -2.1752745  
N    5.4148486   -0.0001362   -3.4464332  
C    4.7795901    0.0008674   -1.0815733  
C    5.2855494    0.0012391    0.1727552  
O    4.5324883    0.0014070    1.2858322  
C    6.7567502    0.0015422    0.4252007  
O    7.1465030    0.0019990    1.5928107  
C    7.6924431    0.0014448   -0.7133963  
H    8.7888458    0.0012168   -3.5571132  
H    5.1738997    0.0016452    2.0191429  
H    6.6781258   -0.0005127   -5.2077115  
C    3.3321168    0.0004716   -1.3379341  
C    2.6974177    0.0000118   -2.5332316  
C    1.2800432   -0.0002116   -2.2052842  
C    1.2395033    0.0000644   -0.7271298  
N    2.4394059    0.0005460   -0.2131041  
C    0.0000000    0.0000000    0.0000000  
C   -1.1468704    0.0000635   -0.7169542  
O   -2.3742206    0.0000074   -0.1695488  
C   -1.1388774    0.0001608   -2.2096352  
O   -2.2206238    0.0000906   -2.7970409  
C    0.1454514    0.0001818   -2.9324241  
H    3.1367978   -0.0000649   -3.5160956  
H   -2.9844350    0.0001027   -0.9290164  
H    0.1083567    0.0003684   -4.0135594  
C    2.5311839    2.1237619    3.0120429  
C    1.9795631    1.6616747    1.8395852  
C    0.9223175    0.7739173    2.1983588  
C    0.8753926    0.7337535    3.6154372  
N    1.8668922    1.5631002    4.0777464  
C   -0.0496243   -0.0427881    4.3197917  
C   -0.9437528   -0.7922060    3.5801400  
O   -1.8685244   -1.5680278    4.2172520  
C   -0.9124520   -0.7656372    2.1655264  
O   -1.8671164   -1.5663939    1.5732860  
C    0.0000000    0.0000000    1.4700000  
H    2.3005065    1.9304404    0.8477417  
H    2.0679347    1.7444845    5.0445261  
H   -0.0904770   -0.0778569    5.3997470  
H   -2.3849669   -2.0011402    3.5251786  
H   -1.7775064   -1.4909735    0.6183591  
H    3.3468514    2.8078103    3.1724291  
