62

C    3.4497185   -0.7084685   -2.8313370  
C    4.7277972   -0.4583052   -3.2745100  
C    4.6186625    0.4497396   -4.3691078  
C    3.2380226    0.7205535   -4.5491655  
N    2.5562222   -0.0001542   -3.6002998  
C    2.7591278    1.5793430   -5.5431117  
C    3.6909770    2.1758461   -6.3701666  
O    3.2780229    3.0234689   -7.3570888  
C    5.0728187    1.9178918   -6.2064857  
O    5.8738728    2.5871740   -7.1085489  
C    5.5459556    1.0705763   -5.2263205  
H    5.6279511   -0.8794476   -2.8605605  
H    1.7081250    1.7897823   -5.6856247  
H    4.0763374    3.3243550   -7.8103276  
H    6.7909278    2.3580490   -6.9293420  
H    6.6101108    0.8921709   -5.1252065  
H    3.1046851   -1.3372253   -2.0284827  
C    0.0000000    0.0000000    0.0000000  
C    1.0541691   -0.0001719   -0.8560389  
C    0.5103143   -0.0000448   -2.1935953  
C   -0.9576364    0.0002464   -2.0455731  
N   -1.2018458   -0.0001389   -0.6915972  
C   -1.8348303    0.0008322   -3.0810611  
C   -1.2972837    0.0009745   -4.4314603  
O   -2.0050658    0.0014276   -5.4301322  
C    0.2542633    0.0004194   -4.6117570  
O    0.7184681    0.0002269   -5.7439118  
C    1.0974560    0.0000881   -3.4189126  
H    2.0940754   -0.0005481   -0.5817976  
H   -2.1128195    0.0014913   -0.2706792  
C   -3.9753705    0.7163942   -1.9468235  
C   -5.3225287    0.4642670   -2.0654151  
C   -5.4809782   -0.4521811   -3.1469032  
C   -4.1848124   -0.7258596   -3.6538361  
N   -3.2941065    0.0012879   -2.9038247  
C   -3.9601719   -1.5926927   -4.7275792  
C   -5.0640863   -2.1944419   -5.2998100  
O   -4.9017322   -3.0499840   -6.3508588  
C   -6.3653737   -1.9337455   -4.8083773  
O   -7.3604914   -2.6089840   -5.4844972  
C   -6.5877560   -1.0784969   -3.7493105  
H   -6.0959912    0.8895216   -1.4490486  
H   -2.9747891   -1.8053541   -5.1187294  
H   -5.7858027   -3.3534318   -6.5949968  
H   -8.2070420   -2.3775050   -5.0903229  
H   -7.5958987   -0.8981687   -3.3948980  
H   -3.4466929    1.3508524   -1.2562280  
C    3.3321173   -0.0004715    2.8079335  
C    2.6974184   -0.0000116    4.0032312  
C    1.2800439    0.0002118    3.6752840  
C    1.2395035   -0.0000644    2.1971295  
N    2.4394063   -0.0005460    1.6831036  
C    0.0000000    0.0000000    1.4700000  
C   -1.1468701   -0.0000635    2.1869543  
O   -2.3742202   -0.0000073    1.6395491  
C   -1.1388768   -0.0001607    3.6796354  
O   -2.2206231   -0.0000905    4.2670412  
C    0.1454524   -0.0001816    4.4024240  
H    3.1367986    0.0000651    4.9860947  
H   -2.9844344   -0.0001026    2.3990168  
H    0.1083576   -0.0003682    5.4835595  
H    4.3940039   -0.0007619    2.6198634  
