60

C    1.7131551   -1.1094257   -7.1794277  
C    2.6804805   -1.9936545   -6.7612315  
C    3.5219281   -2.2517694   -7.8837033  
C    3.0148467   -1.4904881   -8.9677900  
N    1.9153785   -0.8101139   -8.5064043  
C    3.5993400   -1.5006694  -10.2378510  
C    4.7162513   -2.2935729  -10.4167099  
O    5.3266401   -2.3403508  -11.6366491  
C    5.2368732   -3.0606144   -9.3474033  
O    6.3526715   -3.7986788   -9.6844458  
C    4.6606099   -3.0512645   -8.0942635  
H    2.7681245   -2.4032014   -5.7694741  
H    1.3531150   -0.1797358   -9.0490496  
H    3.2176181   -0.9228411  -11.0682755  
H    6.0746751   -2.9447123  -11.5446925  
H    6.6405823   -4.2869350   -8.9070673  
H    5.0817060   -3.6494146   -7.2946557  
C    0.2908545   -0.7259201   -5.1324812  
C    0.5947728   -0.5089645   -6.4380994  
C   -0.3866749    0.4179357   -6.9504006  
C   -1.2937755    0.7254266   -5.8281667  
N   -0.8287665    0.0000939   -4.7555305  
C   -2.3565432    1.5657114   -5.9065952  
C   -2.6250282    2.2100991   -7.1814348  
O   -3.5581860    2.9833517   -7.3534768  
C   -1.6774676    1.8988296   -8.3835351  
O   -1.8937474    2.4352061   -9.4618602  
C   -0.5642182    0.9759847   -8.1764497  
H   -3.0094295    1.7777024   -5.0713052  
H    0.0873222    0.7659237   -9.0137624  
H    0.7904773   -1.3552685   -4.4140198  
C    1.0672569   -0.0000698   -0.8321910  
C    0.0000000    0.0000000    0.0000000  
C   -1.1601223   -0.0000736   -0.8778472  
C   -0.5938729   -0.0000768   -2.2438435  
N    0.7113367   -0.0001553   -2.2234123  
C   -1.4286985   -0.0001877   -3.4135239  
C   -2.7683113   -0.0006798   -3.2270524  
O   -3.6653902   -0.0008302   -4.2276970  
C   -3.3702024   -0.0010610   -1.8610774  
O   -4.5974910   -0.0013779   -1.7662963  
C   -2.4926825   -0.0008943   -0.6770658  
H   -4.5324245   -0.0012258   -3.7833954  
H   -2.9677772   -0.0012974    0.2947961  
H    2.1134391   -0.0000547   -0.5705119  
C    0.0000000    0.0000000    1.4700000  
C    1.0541688    0.0001722    2.3260392  
C    0.5103138    0.0000454    3.6635956  
C   -0.9576371   -0.0002459    3.5155732  
N   -1.2018458    0.0001392    2.1615969  
C   -1.8348311   -0.0008317    4.5510609  
C   -1.2972847   -0.0009736    5.9014604  
O   -2.0050672   -0.0014265    6.9001319  
C    0.2542623   -0.0004184    6.0817573  
O    0.7184670   -0.0002256    7.2139121  
C    1.0974552   -0.0000873    4.8889129  
H    2.0940752    0.0005483    2.0517982  
H   -2.9081052   -0.0011668    4.4207061  
H    2.1707277    0.0000911    5.0223670  
H   -2.1128194   -0.0014912    1.7406791  
