60

C   -4.5189775    2.1246694   -0.2045469  
C   -3.4217425    1.6624058   -0.8936442  
C   -3.9056800    0.7751177   -1.9001854  
C   -5.3180923    0.7354090   -1.7759236  
N   -5.6571955    1.5645633   -0.7356687  
C   -6.1291076   -0.0406008   -2.6095007  
C   -5.5029174   -0.7899449   -3.5865099  
O   -6.2471510   -1.5652559   -4.4279511  
C   -4.0948410   -0.7638251   -3.7259887  
O   -3.6223028   -1.5644416   -4.7453337  
C   -3.2941075    0.0012873   -2.9038235  
H   -2.3983457    1.9307552   -0.6945477  
H   -6.5926190    1.7461788   -0.4194748  
H   -7.2061218   -0.0753210   -2.5198566  
H   -5.6225447   -1.9984079   -5.0241983  
H   -2.6635122   -1.4893478   -4.7714900  
H   -4.5796114    2.8084909    0.6247125  
C    0.0000000    0.0000000    0.0000000  
C    1.0541688   -0.0001722   -0.8560392  
C    0.5103135   -0.0000454   -2.1935954  
C   -0.9576375    0.0002459   -2.0455728  
N   -1.2018462   -0.0001392   -0.6915966  
C   -1.8348315    0.0008316   -3.0810604  
C   -1.2972851    0.0009737   -4.4314603  
O   -2.0050681    0.0014265   -5.4301316  
C    0.2542617    0.0004185   -4.6117570  
O    0.7184664    0.0002257   -5.7439119  
C    1.0974549    0.0000874   -3.4189129  
H    2.0940751   -0.0005482   -0.5817983  
H   -2.1128195    0.0014911   -0.2706785  
C    4.5414470   -2.0136874   -1.4319375  
C    3.2784302   -1.6314307   -1.7323504  
C    3.4206900   -0.7132117   -2.8517857  
C    4.8766543   -0.6552136   -3.1035534  
N    5.5387693   -1.4155504   -2.2744081  
C    5.4363354    0.1572537   -4.1484175  
C    4.5803855    0.8786758   -4.9075184  
O    4.9639641    1.6794165   -5.9163409  
C    3.1058527    0.8409930   -4.6784008  
O    2.3863352    1.5234821   -5.4075945  
C    2.5562209   -0.0001551   -3.6003007  
H    2.3632537   -1.9351324   -1.2535051  
H    6.5041744    0.1807528   -4.3099031  
H    4.1348737    2.0549929   -6.2637674  
H    4.8636451   -2.6922686   -0.6581874  
C    1.0965515   -0.0001358    2.2710304  
C    0.0000000    0.0000000    1.4700000  
C   -1.1546562   -0.0001469    2.3369512  
C   -0.6372014   -0.0003519    3.7186280  
N    0.7342871   -0.0007337    3.6095011  
C   -1.4147739   -0.0001353    4.8308716  
C   -2.8576048    0.0001048    4.6554461  
O   -3.6427778    0.0002493    5.5944904  
C   -3.4275839    0.0000726    3.2011665  
O   -4.6406829   -0.0000333    3.0410059  
C   -2.4891866    0.0001091    2.0816745  
H   -1.0150448   -0.0001615    5.8354244  
H   -2.8919121    0.0002919    1.0779135  
H    2.1388271   -0.0000662    1.9961646  
H    1.3735872    0.0006099    4.3830260  
