60

C    3.6198302   -2.1100261   -4.7699652  
C    4.8084328   -1.6100260   -5.2492251  
C    4.4869056   -0.7348467   -6.3287070  
C    3.0748438   -0.7406346   -6.4627761  
N    2.5797042   -1.5873148   -5.5022624  
C    2.4039879    0.0127183   -7.4308672  
C    3.1725823    0.7862361   -8.2788713  
O    2.5687674    1.5416079   -9.2421128  
C    4.5827546    0.8049648   -8.1610496  
O    5.2064029    1.6244761   -9.0790943  
C    5.2452587    0.0618067   -7.2064137  
H    5.7869299   -1.8477855   -4.8684256  
H    1.6074656   -1.7844250   -5.3477285  
H    3.2769488    1.9967544   -9.7160200  
H    6.1559746    1.5796902   -8.9310712  
H    6.3264286    0.0962254   -7.1403533  
H    3.4317994   -2.7992624   -3.9646353  
C   -1.0641738    0.0073911   -4.6315339  
C    0.2051250    0.0079405   -5.1010654  
C    0.0692344    0.0101845   -6.5495227  
C   -1.3902928    0.0106356   -6.7869340  
N   -2.0598284    0.0090848   -5.6663498  
C   -1.9455301    0.0127602   -8.1123750  
C   -1.0819568    0.0147505   -9.1533229  
O   -1.4606988    0.0168498  -10.4427381  
C    0.3963100    0.0147277   -8.9462282  
O    1.1228030    0.0164809   -9.9399210  
C    0.9412638    0.0124825   -7.5769419  
H    1.1205720    0.0070362   -4.5344688  
H   -3.0161069    0.0128371   -8.2565139  
H   -0.6265995    0.0179429  -10.9461568  
C    1.1319245    0.0015656   -0.8009271  
C    0.7969914    0.0034943   -2.1169404  
C   -0.6453340    0.0035712   -2.1842672  
C   -1.1266833    0.0015434   -0.7896027  
N    0.0000000    0.0000000    0.0000000  
C   -2.4346131    0.0013965   -0.4276296  
C   -3.4350110    0.0031409   -1.4820182  
O   -4.6384610    0.0030975   -1.2583916  
C   -2.9478961    0.0050507   -2.9661073  
O   -3.7809383    0.0062220   -3.8623773  
C   -1.5113824    0.0053091   -3.2312124  
H    1.4821237    0.0045409   -2.9459193  
H   -2.7664564    0.0000233    0.6013449  
H    2.1104315    0.0009392   -0.3488061  
C    2.4951002    2.0940188    2.9809380  
C    1.9440701    1.6314916    1.8291961  
C    0.8759964    0.7350050    2.2038498  
C    0.8497377    0.7130254    3.6788474  
N    1.8560616    1.5571714    4.0882609  
C   -0.0205033   -0.0168748    4.4215661  
C   -0.9962600   -0.8356168    3.7214979  
O   -1.8224391   -1.5286685    4.3006425  
C   -0.9864710   -0.8277881    2.1595606  
O   -1.8030528   -1.5133726    1.5592035  
C    0.0000000    0.0000000    1.4700000  
H    2.2509283    1.8888011    0.8310761  
H   -0.0229599   -0.0187323    5.5027230  
H    3.3143982    2.7817323    3.1139444  
H    2.0889452    1.7545833    5.0442112  
