62

C    0.1383276   -3.2637830  -10.3087884  
C    0.0728882   -2.5570043   -9.1303792  
C   -0.1863576   -1.1971851   -9.4743035  
C   -0.2700583   -1.1343251  -10.8888595  
N   -0.0663151   -2.4060293  -11.3641216  
C   -0.5172528    0.0558165  -11.5796889  
C   -0.6832727    1.2033532  -10.8288408  
O   -0.9272527    2.3926932  -11.4525058  
C   -0.6029513    1.1609497   -9.4165495  
O   -0.7900706    2.3869099   -8.8121061  
C   -0.3588475   -0.0127536   -8.7343753  
H    0.1978527   -2.9704518   -8.1442566  
H   -0.0787644   -2.6728290  -12.3319257  
H   -0.5820815    0.1104099  -12.6576594  
H   -1.0092431    3.0553340  -10.7543291  
H   -0.7202525    2.2702518   -7.8596781  
H    0.3162085   -4.3116288  -10.4800703  
C    2.2882816   -2.1097767   -5.8897962  
C    1.6780090   -1.6459960   -7.0107556  
C    0.6303821   -0.7506084   -6.5799497  
C    0.6807209   -0.7305951   -5.1055495  
N    1.7068259   -1.5753508   -4.7500430  
C   -0.1496415   -0.0015615   -4.3176961  
C   -1.1605341    0.8179096   -4.9650744  
O   -1.9554938    1.5101850   -4.3429046  
C   -1.2321584    0.8117733   -6.5254067  
O   -2.0792931    1.4975140   -7.0816287  
C   -0.2825939   -0.0147697   -7.2663562  
H    1.9325532   -1.9020639   -8.0237955  
H    3.1137390   -2.7971810   -5.8004316  
H    1.9909865   -1.7716676   -3.8078329  
C    3.3003543    0.0005276   -1.4738987  
C    2.5232814    0.0003497   -2.6090747  
C    1.1623200   -0.0001320   -2.1820103  
C    1.1711883    0.0000582   -0.7636140  
N    2.4852300   -0.0014919   -0.3662360  
C    0.0000000    0.0000000    0.0000000  
C   -1.2020384    0.0000519   -0.6806477  
O   -2.3759249    0.0003493    0.0157743  
C   -1.2314656   -0.0005115   -2.0955510  
O   -2.5054392   -0.0008039   -2.6250180  
C   -0.0764516   -0.0007274   -2.8495195  
H    2.8919955   -0.0005620   -3.6205304  
H    2.8036267    0.0088183    0.5858662  
H   -3.0835638    0.0000347   -0.6418818  
H   -2.4360047   -0.0011529   -3.5845921  
H    4.3715549    0.0004895   -1.3667136  
C    0.8175213    0.6860729    2.3021913  
C    0.0000000    0.0000000    1.4700000  
C   -0.8887526   -0.7456559    2.3478473  
C   -0.4549825   -0.3816753    3.7138435  
N    0.5448156    0.4573574    3.6934124  
C   -1.0945674   -0.9182058    4.8835240  
C   -2.1210866   -1.7789155    4.6970523  
O   -2.8083856   -2.3554314    5.6976972  
C   -2.5824069   -2.1655116    3.3310774  
O   -3.5227682   -2.9541547    3.2362962  
C   -1.9100805   -1.6015804    2.1470656  
H   -0.7567140   -0.6349833    5.8697035  
H   -3.4728268   -2.9124471    5.2533954  
H   -2.2742832   -1.9066565    1.1752040  
H    1.6189533    1.3585343    2.0405121  
