60

C    8.9686247   -0.0019181    1.1016482  
C    9.5085411   -0.0028481    2.3669374  
C   10.9267599   -0.0035346    2.2144456  
C   11.1956178   -0.0026884    0.8217356  
N    9.9847404   -0.0036679    0.1749042  
C   12.4935900   -0.0027405    0.3020656  
C   13.5391999   -0.0033568    1.2047728  
O   14.8266682   -0.0030848    0.7515232  
C   13.2911856   -0.0045802    2.5980797  
O   14.4369225   -0.0054925    3.3666046  
C   12.0109630   -0.0048027    3.1114560  
H    8.9490299   -0.0041168    3.2866877  
H    9.8588115    0.0071746   -0.8210904  
H   12.7051824   -0.0022425   -0.7583265  
H   15.3919351   -0.0039112    1.5349380  
H   14.1810591   -0.0062630    4.2940407  
H   11.8520726   -0.0059321    4.1834776  
C    6.4550013   -0.0009257    1.4492351  
C    7.5628463   -0.0014712    0.6718951  
C    7.0625117   -0.0013728   -0.6941812  
C    5.5906514   -0.0008360   -0.5520179  
N    5.2286132   -0.0004915    0.7021423  
C    4.7161325   -0.0005435   -1.6923264  
C    5.2860919   -0.0003878   -2.9188990  
O    4.5914239   -0.0001202   -4.0693237  
C    6.7683520   -0.0005474   -3.0951530  
O    7.2177891   -0.0005154   -4.2411141  
C    7.6440945   -0.0008911   -1.9098259  
H    5.2697914   -0.0000404   -4.7685877  
H    8.7123899   -0.0008825   -2.0800417  
H    6.3993977   -0.0008022    2.5262130  
C    3.2573665   -0.0002920   -1.5109385  
C    2.5379463   -0.0001709   -0.3591964  
C    1.1435038    0.0000331   -0.7338500  
C    1.1092599   -0.0000083   -2.2088477  
N    2.4227553    0.0001909   -2.6182613  
C   -0.0265539   -0.0002524   -2.9515660  
C   -1.3003040   -0.0002640   -2.2514977  
O   -2.3786790   -0.0004133   -2.8306421  
C   -1.2877727    0.0000311   -0.6895603  
O   -2.3539959    0.0003306   -0.0892030  
C    0.0000000    0.0000000    0.0000000  
H    2.9384091   -0.0000367    0.6389234  
H   -0.0296303   -0.0004086   -4.0327229  
H    2.7280482   -0.0013407   -3.5742119  
C    0.0000000    0.0000000    1.4700000  
C    1.0662921    0.0000102    2.3034270  
C    0.4961870   -0.0000064    3.6418889  
C   -0.9663858    0.0000850    3.4240247  
N   -1.2632773    0.0000084    2.1528658  
C   -1.8985362    0.0000517    4.5177257  
C   -1.3925775   -0.0004564    5.7720543  
O   -2.1456383   -0.0005410    6.8851312  
C    0.0786232   -0.0009323    6.0245000  
O    0.4683759   -0.0012588    7.1921102  
C    1.0143166   -0.0008442    4.8859032  
H    2.1107198   -0.0000632    2.0421868  
H   -2.9622183    0.0003270    4.3293377  
H   -1.5042274   -0.0009692    7.6184419  
H    2.0724152   -0.0013148    5.1109744  
