60

C    8.6213016   -0.0025477   -0.2574580  
C    7.9169766   -0.0022394    0.9242333  
C    8.8757084   -0.0028155    1.9803739  
C   10.1594655   -0.0031815    1.3771374  
N    9.9687681   -0.0049577    0.0176345  
C   11.3440513   -0.0034765    2.1197984  
C   11.2306261   -0.0030936    3.4965016  
O   12.3553536   -0.0030062    4.2698065  
C    9.9586658   -0.0031008    4.1169334  
O   10.0126520   -0.0031178    5.4954943  
C    8.7896226   -0.0030831    3.3849070  
H    6.8441586   -0.0027744    1.0139775  
H   10.6993894    0.0049624   -0.6708966  
H   12.3255438   -0.0039001    1.6660662  
H   12.0553378   -0.0030254    5.1880961  
H    9.1125104   -0.0030945    5.8351247  
H    7.8297793   -0.0032710    3.8880759  
C    4.5679461   -0.0016854   -2.0086701  
C    5.6245801   -0.0018694   -1.1556757  
C    6.8197132   -0.0025282   -1.9659181  
C    6.3695112   -0.0026850   -3.3709478  
N    4.9943549   -0.0025530   -3.3281074  
C    7.1998322   -0.0028671   -4.4443873  
C    8.6325205   -0.0031379   -4.1995651  
O    9.4620790   -0.0033773   -5.0996404  
C    9.1316833   -0.0032302   -2.7194835  
O   10.3356446   -0.0037642   -2.5009907  
C    8.1403754   -0.0027352   -1.6465621  
H    5.5727011   -0.0017595   -0.0814681  
H    6.8490268   -0.0028498   -5.4670534  
H    4.3931139   -0.0010543   -4.1315712  
C    3.1301149   -0.0010311   -1.7028252  
C    2.5367768   -0.0002767   -0.4864665  
C    1.1089904    0.0001028   -0.7656183  
C    1.0177872   -0.0004148   -2.2415132  
N    2.1993578   -0.0011611   -2.7963820  
C   -0.2459209   -0.0002877   -2.9257118  
C   -1.3675319   -0.0000605   -2.1698524  
O   -2.6129313    0.0000867   -2.6748490  
C   -1.3083584    0.0000910   -0.6783232  
O   -2.3693261    0.0004206   -0.0541692  
C    0.0000000    0.0000000    0.0000000  
H    3.0096017   -0.0001007    0.4807525  
H   -0.2829630   -0.0004687   -4.0053125  
H   -3.1967441    0.0002094   -1.8949034  
C    2.3971438    2.0127888    3.1728260  
C    1.9431056    1.6308205    1.9564670  
C    0.8496017    0.7127664    2.2356185  
C    0.7794028    0.6545384    3.7115134  
N    1.6840587    1.4146091    4.2663826  
C   -0.1885723   -0.1578550    4.3957118  
C   -1.0476298   -0.8789867    3.6398520  
O   -2.0015663   -1.6796266    4.1448486  
C   -1.0022026   -0.8410666    2.1483229  
O   -1.8147390   -1.5232959    1.5241687  
C    0.0000000    0.0000000    1.4700000  
H    2.3054237    1.9346118    0.9892483  
H   -0.2170646   -0.1815267    5.4753125  
H   -2.4487139   -2.0549881    3.3649027  
H    3.2048689    2.6911772    3.3971983  
