60

C    6.7636938   -0.0009527    0.9023169  
C    5.4671763   -0.0013101    0.4424133  
C    5.5308674   -0.0015360   -0.9825579  
C    6.9040849   -0.0015865   -1.3378040  
N    7.6252196    0.0007239   -0.1696528  
C    7.3417435   -0.0020994   -2.6656760  
C    6.3755446   -0.0028771   -3.6529133  
O    6.7475665   -0.0037537   -4.9661586  
C    5.0004299   -0.0024646   -3.3184348  
O    4.1619027   -0.0029228   -4.4139783  
C    4.5679461   -0.0016852   -2.0086700  
H    4.5841351   -0.0002918    1.0582295  
H    8.6271383   -0.0093205   -0.1061169  
H    8.3868646   -0.0019967   -2.9430282  
H    5.9304031   -0.0038905   -5.4814346  
H    3.2522420   -0.0026268   -4.1007370  
H    7.1420553   -0.0003154    1.9101865  
C    3.1301152   -0.0010311   -1.7028251  
C    2.5367770   -0.0002766   -0.4864665  
C    1.1089905    0.0001028   -0.7656183  
C    1.0177873   -0.0004148   -2.2415130  
N    2.1993580   -0.0011610   -2.7963820  
C   -0.2459208   -0.0002877   -2.9257119  
C   -1.3675318   -0.0000605   -2.1698523  
O   -2.6129310    0.0000866   -2.6748492  
C   -1.3083584    0.0000911   -0.6783232  
O   -2.3693259    0.0004206   -0.0541692  
C    0.0000000    0.0000000    0.0000000  
H    3.0096019   -0.0001007    0.4807529  
H   -3.1967440    0.0002093   -1.8949035  
C    0.5437040   -0.7271852   -5.2249461  
C    0.2434242   -0.5105991   -6.5314673  
C   -0.8629381    0.4167217   -6.5610286  
C   -1.1848909    0.7248624   -5.1545487  
N   -0.2963281   -0.0005339   -4.3948471  
C   -2.1737958    1.5656806   -4.7585731  
C   -2.9746372    2.2099976   -5.7862130  
O   -3.8882405    2.9837018   -5.5312379  
C   -2.6514130    1.8980447   -7.2822130  
O   -3.3190897    2.4343559   -8.1561915  
C   -1.5606839    0.9746613   -7.5847434  
H    0.7401404   -0.9504091   -7.3779032  
H   -2.3934205    1.7781438   -3.7214936  
H   -1.3431558    0.7641286   -8.6230505  
H    1.3078540   -1.3566728   -4.7986720  
C    2.4951002    2.0940188    2.9809380  
C    1.9440701    1.6314916    1.8291961  
C    0.8759964    0.7350050    2.2038498  
C    0.8497377    0.7130254    3.6788474  
N    1.8560616    1.5571714    4.0882609  
C   -0.0205033   -0.0168748    4.4215661  
C   -0.9962600   -0.8356168    3.7214979  
O   -1.8224391   -1.5286685    4.3006425  
C   -0.9864710   -0.8277881    2.1595606  
O   -1.8030528   -1.5133726    1.5592035  
C    0.0000000    0.0000000    1.4700000  
H    2.2509283    1.8888011    0.8310761  
H   -0.0229599   -0.0187323    5.5027230  
H    3.3143982    2.7817323    3.1139444  
H    2.0889452    1.7545833    5.0442112  
