62

C    4.1688916   -3.7010152   -6.5810264  
C    3.4652985   -3.0686353   -5.5822669  
C    4.0308190   -3.4912167   -4.3428271  
C    5.0851918   -4.3886162   -4.6508832  
N    5.1406351   -4.4950923   -6.0184380  
C    5.8669447   -5.0029235   -3.6678890  
C    5.5792676   -4.7056651   -2.3499142  
O    6.3117220   -5.2774355   -1.3501134  
C    4.5310007   -3.8130552   -2.0224989  
O    4.3687465   -3.6198484   -0.6661479  
C    3.7591982   -3.2068709   -2.9917188  
H    5.7980101   -5.0548569   -6.5307877  
H    6.6718704   -5.6879090   -3.8961223  
H    5.9508630   -4.9399246   -0.5199742  
H    3.6415588   -3.0045010   -0.5314283  
H    2.9628929   -2.5276770   -2.7105220  
H    4.0535212   -3.6495638   -7.6501384  
C    2.3446867   -2.1385756   -5.7825620  
C    1.7992126   -1.7303697   -6.9519228  
C    0.7308350   -0.8198476   -6.5697989  
C    0.7735872   -0.7944097   -5.0919259  
N    1.7176442   -1.5654463   -4.6247557  
C   -0.1387079    0.0017019   -4.3179684  
C   -1.0519387    0.7391884   -4.9898748  
O   -1.9638775    1.5275967   -4.3958873  
C   -1.1200794    0.7349610   -6.4810151  
O   -1.9771136    1.4304206   -7.0260370  
C   -0.1732958   -0.0899934   -7.2523615  
H    2.0864373   -2.0122467   -7.9504840  
H   -2.4685602    1.9202492   -5.1309193  
H   -0.2553893   -0.0654070   -8.3307328  
C    3.3041273    0.0001178   -1.5420428  
C    2.5845373   -0.0004780   -0.3695851  
C    1.2040007   -0.0000007   -0.7283589  
C    1.1422374    0.0006038   -2.1454372  
N    2.4348641    0.0026111   -2.6077464  
C   -0.0655179    0.0008799   -2.8497918  
C   -1.2321766    0.0002325   -2.1101402  
O   -2.4392814    0.0001148   -2.7472522  
C   -1.1911209   -0.0000007   -0.6955266  
O   -2.4371528   -0.0002320   -0.1032862  
C    0.0000000    0.0000000    0.0000000  
H    3.0031533   -0.0000660    0.6222584  
H    2.7054631   -0.0071097   -3.5745261  
H   -3.1132988   -0.0000648   -2.0551787  
H   -2.3200282   -0.0004072    0.8516409  
H    4.3686625    0.0004073   -1.7024290  
C    0.8400945    0.7047457    2.2710304  
C    0.0000000    0.0000000    1.4700000  
C   -0.8844236   -0.7423113    2.3369512  
C   -0.4878984   -0.4098547    3.7186280  
N    0.5629682    0.4714286    3.6095011  
C   -1.0836927   -0.9095027    4.8308716  
C   -2.1891196   -1.8367527    4.6554461  
O   -2.7906899   -2.3413415    5.5944904  
C   -2.6257283   -2.2031529    3.2011665  
O   -3.5549479   -2.9829990    3.0410059  
C   -1.9068976   -1.5999348    2.0816745  
H   -0.7774656   -0.6525820    5.8354244  
H   -2.2155208   -1.8586617    1.0779135  
H    1.6384792    1.3747609    1.9961646  
H    1.0518368    0.8833920    4.3830260  
