60

C   -8.4455308    0.5445599   -2.7393923  
C   -7.9898067   -0.6867340   -3.1501210  
C   -9.0668507   -1.6066656   -2.9818883  
C  -10.1633432   -0.8729926   -2.4609727  
N   -9.7514980    0.4294067   -2.3240147  
C  -11.3978599   -1.4617766   -2.1709902  
C  -11.5279381   -2.8158067   -2.4115309  
O  -12.7118731   -3.4411801   -2.1465462  
C  -10.4453045   -3.5649624   -2.9306519  
O  -10.7320659   -4.9018315   -3.1147497  
C   -9.2270515   -2.9848240   -3.2167062  
H  -10.3195199    1.1852436   -1.9863137  
H  -12.2374173   -0.9081538   -1.7736878  
H  -12.5888305   -4.3699269   -2.3822463  
H   -9.9488703   -5.3351160   -3.4675572  
H   -8.4160166   -3.5842635   -3.6134073  
H   -7.9418811    1.4955296   -2.7085276  
C   -3.9842743    0.7276665   -1.9452916  
C   -5.3215475    0.5113821   -2.0401476  
C   -5.5219107   -0.4154365   -3.1290448  
C   -4.1821418   -0.7236117   -3.6646168  
N   -3.2941076    0.0012878   -2.9038237  
C   -3.9439121   -1.5640346   -4.7031926  
C   -5.0830931   -2.2078601   -5.3358774  
O   -4.9725199   -2.9811854   -6.2782374  
C   -6.5111101   -1.8958620   -4.7852126  
O   -7.4778764   -2.4317609   -5.3100327  
C   -6.6412652   -0.9729315   -3.6604414  
H   -6.0809665    0.9510761   -1.4184043  
H   -2.9532732   -1.7765312   -5.0805389  
H   -3.4449075    1.3567558   -1.2559297  
C    0.0000000    0.0000000    0.0000000  
C    1.0541688   -0.0001723   -0.8560392  
C    0.5103136   -0.0000455   -2.1935956  
C   -0.9576373    0.0002461   -2.0455730  
N   -1.2018460   -0.0001389   -0.6915968  
C   -1.8348314    0.0008319   -3.0810607  
C   -1.2972851    0.0009739   -4.4314603  
O   -2.0050676    0.0014268   -5.4301316  
C    0.2542619    0.0004184   -4.6117572  
O    0.7184666    0.0002257   -5.7439122  
C    1.0974551    0.0000873   -3.4189129  
H    2.0940752   -0.0005484   -0.5817983  
H    2.1707276   -0.0000912   -3.5523673  
H   -2.1128194    0.0014915   -0.2706789  
C    3.2798086   -0.0005857    2.9199648  
C    2.5571146   -0.0005566    4.0696553  
C    1.1637436   -0.0001548    3.6910360  
C    1.1336965    0.0000200    2.2159470  
N    2.4483514    0.0001428    1.8102719  
C    0.0000000    0.0000000    1.4700000  
C   -1.2757367    0.0000186    2.1664417  
O   -2.3524596    0.0000640    1.5842315  
C   -1.2676493    0.0000873    3.7284083  
O   -2.3355761    0.0004100    4.3257297  
C    0.0181563   -0.0001760    4.4216297  
H    2.9547357   -0.0006076    5.0689105  
H    0.0150794   -0.0003319    5.5031631  
H    4.3498549   -0.0008612    2.7900019  
H    2.7563627   -0.0012824    0.8551938  
