62

C    5.7554223   -0.0170914   -2.0504792  
C    6.9923547   -0.0274544   -1.4485178  
C    6.7698532   -0.0170657   -0.0396229  
C    5.3656236   -0.0006277    0.1598689  
N    4.7795897    0.0008677   -1.0815734  
C    4.7823655    0.0126087    1.4304684  
C    5.6321446    0.0088818    2.5195224  
O    5.1157366    0.0209829    3.7829268  
C    7.0359426   -0.0070683    2.3408776  
O    7.7467592   -0.0084166    3.5232821  
C    7.6120393   -0.0198591    1.0876918  
H    7.9386302   -0.0397482   -1.9617473  
H    3.7128637    0.0253093    1.5892348  
H    5.8701611    0.0161160    4.3863208  
H    8.6856723   -0.0195880    3.3137053  
H    8.6905542   -0.0317639    0.9821341  
H    5.4920675   -0.0196439   -3.0943167  
C    3.3321166    0.0004717   -1.3379342  
C    2.6974176    0.0000121   -2.5332317  
C    1.2800432   -0.0002115   -2.2052842  
C    1.2395033    0.0000645   -0.7271297  
N    2.4394059    0.0005461   -0.2131042  
C    0.0000000    0.0000000    0.0000000  
C   -1.1468704    0.0000636   -0.7169540  
O   -2.3742206    0.0000073   -0.1695488  
C   -1.1388774    0.0001610   -2.2096351  
O   -2.2206238    0.0000908   -2.7970408  
C    0.1454514    0.0001820   -2.9324241  
H    3.1367977   -0.0000646   -3.5160953  
H   -2.9844351    0.0001027   -0.9290163  
C    0.0950440    0.0004357   -4.4015596  
C    1.1162021   -0.0007520   -5.3233524  
C    0.5111084   -0.0004511   -6.6150418  
C   -0.8933813    0.0012352   -6.4167190  
N   -1.1116079   -0.0002153   -5.0613621  
C   -1.8066473    0.0022687   -7.4753656  
C   -1.2927268    0.0018944   -8.7575755  
O   -2.1397638    0.0032134   -9.8278750  
C    0.1055537   -0.0001561   -8.9758068  
O    0.4600367   -0.0006975  -10.3091048  
C    1.0070991   -0.0014497   -7.9319004  
H    2.1678548   -0.0028218   -5.0931012  
H   -2.0126141    0.0110229   -4.6185949  
H   -2.8782462    0.0034108   -7.3308770  
H   -1.5825646    0.0023764  -10.6170478  
H    1.4202825   -0.0020770  -10.3685167  
H    2.0725700   -0.0031948   -8.1300091  
C    0.8681109    0.7263879    2.2709268  
C    0.6127770    0.5096195    3.5869401  
C   -0.4920590   -0.4175482    3.6542670  
C   -0.8620974   -0.7254003    2.2596025  
N    0.0000000    0.0000000    1.4700000  
C   -1.8641242   -1.5660088    1.8976294  
C   -2.6293522   -2.2103885    2.9520183  
O   -3.5512764   -2.9839180    2.7283916  
C   -2.2549728   -1.8987399    4.4361073  
O   -2.8923672   -2.4351063    5.3323774  
C   -1.1543735   -0.9755647    4.7012123  
H    1.1382914    0.9492124    4.4159191  
H   -2.1192137   -1.7782617    0.8686553  
H   -0.9013378   -0.7652422    5.7314848  
H    1.6172880    1.3558399    1.8188057  
