62

C   -0.6507265   -0.7351606   -9.4348042  
C   -1.0205341    0.5284373   -9.0360189  
C   -0.9453615    1.3670871  -10.1873728  
C   -0.5207778    0.5528187  -11.2684008  
N   -0.3491493   -0.7172879  -10.7764754  
C   -0.3379040    1.0490393  -12.5626618  
C   -0.5884976    2.3916541  -12.7694632  
O   -0.4261738    2.9281813  -14.0139723  
C   -1.0124824    3.2203518  -11.7034826  
O   -1.2203158    4.5341732  -12.0695727  
C   -1.1928391    2.7315541  -10.4263478  
H   -0.0616693   -1.5143221  -11.3150601  
H   -0.0143535    0.4336955  -13.3908334  
H   -0.6502573    3.8648800  -13.9388349  
H   -1.5044037    5.0251405  -11.2924959  
H   -1.5182348    3.3905311   -9.6298896  
H   -0.5768429   -1.6474526   -8.8680387  
C    0.6255546   -0.6879834   -5.1891748  
C   -0.1496415   -0.0015615   -4.3176961  
C   -1.0811321    0.7434623   -5.1506212  
C   -0.7158465    0.3787721   -6.5363166  
N    0.2838787   -0.4600982   -6.5652208  
C   -1.4129712    0.9145426   -7.6730016  
C   -2.4290869    1.7752032   -7.4361337  
O   -3.1654577    2.3510479   -8.4016396  
C   -2.8218936    2.1625048   -6.0491001  
O   -3.7565102    2.9510597   -5.9080581  
C   -2.0913496    1.5993468   -4.8997165  
H   -3.8070526    2.9082154   -7.9251186  
H   -2.4067672    1.9049195   -3.9110974  
H    1.4391412   -1.3601754   -4.9673468  
C    3.3003543    0.0005276   -1.4738987  
C    2.5232814    0.0003497   -2.6090747  
C    1.1623200   -0.0001320   -2.1820103  
C    1.1711883    0.0000582   -0.7636140  
N    2.4852300   -0.0014919   -0.3662360  
C    0.0000000    0.0000000    0.0000000  
C   -1.2020384    0.0000519   -0.6806477  
O   -2.3759249    0.0003493    0.0157743  
C   -1.2314656   -0.0005115   -2.0955510  
O   -2.5054392   -0.0008039   -2.6250180  
C   -0.0764516   -0.0007274   -2.8495195  
H    2.8919955   -0.0005620   -3.6205304  
H    2.8036267    0.0088183    0.5858662  
H   -3.0835638    0.0000347   -0.6418818  
H   -2.4360047   -0.0011529   -3.5845921  
H    4.3715549    0.0004895   -1.3667136  
C    0.8681109    0.7263879    2.2709268  
C    0.6127770    0.5096195    3.5869401  
C   -0.4920590   -0.4175482    3.6542670  
C   -0.8620974   -0.7254003    2.2596025  
N    0.0000000    0.0000000    1.4700000  
C   -1.8641242   -1.5660088    1.8976294  
C   -2.6293522   -2.2103885    2.9520183  
O   -3.5512764   -2.9839180    2.7283916  
C   -2.2549728   -1.8987399    4.4361073  
O   -2.8923672   -2.4351063    5.3323774  
C   -1.1543735   -0.9755647    4.7012123  
H    1.1382914    0.9492124    4.4159191  
H   -2.1192137   -1.7782617    0.8686553  
H   -0.9013378   -0.7652422    5.7314848  
H    1.6172880    1.3558399    1.8188057  
