60

C   -3.2941079    0.0012875   -2.9038234  
C   -4.0470176    0.0024419   -1.7524792  
C   -5.4167001    0.0030193   -2.1506872  
C   -5.4378084    0.0018787   -3.5689535  
N   -4.1324585    0.0027951   -3.9940136  
C   -6.6248732    0.0017548   -4.3076459  
C   -7.8122590    0.0024946   -3.6017475  
O   -9.0006013    0.0020606   -4.2732058  
C   -7.8117785    0.0040117   -2.1865389  
O   -9.0742772    0.0050151   -1.6302675  
C   -6.6410880    0.0044080   -1.4571485  
H   -3.6570098    0.0039262   -0.7490426  
H   -3.8342571   -0.0082406   -4.9526250  
H   -6.6477250    0.0010321   -5.3887009  
H   -9.6941844    0.0030131   -3.6007419  
H   -8.9845805    0.0059860   -0.6723754  
H   -6.6721590    0.0057614   -0.3738613  
C    0.0000000    0.0000000    0.0000000  
C    1.0541686   -0.0001722   -0.8560393  
C    0.5103131   -0.0000453   -2.1935957  
C   -0.9576377    0.0002459   -2.0455727  
N   -1.2018463   -0.0001391   -0.6915965  
C   -1.8348318    0.0008318   -3.0810604  
C   -1.2972856    0.0009738   -4.4314602  
O   -2.0050684    0.0014267   -5.4301314  
C    0.2542612    0.0004186   -4.6117571  
O    0.7184659    0.0002259   -5.7439120  
C    1.0974545    0.0000875   -3.4189131  
H    2.0940750   -0.0005483   -0.5817985  
H   -2.1128195    0.0014912   -0.2706785  
C    4.1985322   -2.1423510   -1.2324155  
C    5.3247406   -1.7348301   -1.8626227  
C    4.8654760   -0.8236667   -2.8996170  
C    3.3948124   -0.7971465   -2.7478607  
N    2.9980289   -1.5681529   -1.7721038  
C    2.5562205   -0.0001551   -3.6003010  
C    3.1594315    0.7371387   -4.5604409  
O    2.5003386    1.5262928   -5.4258153  
C    4.6414676    0.7318277   -4.7384901  
O    5.1222579    1.4271700   -5.6332304  
C    5.4799802   -0.0940164   -3.8514708  
H    6.3415660   -2.0175441   -1.6499861  
H    3.1964033    1.9185688   -5.9832794  
H    6.5493667   -0.0702023   -4.0129514  
H    4.1121691   -2.8248219   -0.4019048  
C    3.2798086   -0.0005857    2.9199648  
C    2.5571146   -0.0005566    4.0696553  
C    1.1637436   -0.0001548    3.6910360  
C    1.1336965    0.0000200    2.2159470  
N    2.4483514    0.0001428    1.8102719  
C    0.0000000    0.0000000    1.4700000  
C   -1.2757367    0.0000186    2.1664417  
O   -2.3524596    0.0000640    1.5842315  
C   -1.2676493    0.0000873    3.7284083  
O   -2.3355761    0.0004100    4.3257297  
C    0.0181563   -0.0001760    4.4216297  
H    2.9547357   -0.0006076    5.0689105  
H    0.0150794   -0.0003319    5.5031631  
H    4.3498549   -0.0008612    2.7900019  
H    2.7563627   -0.0012824    0.8551938  
