60

C   -4.7889435    2.1186390   -6.5735812  
C   -5.7454145    1.6188929   -7.4267421  
C   -5.0775236    0.7450716   -8.3350142  
C   -3.7032009    0.7513873   -7.9841274  
N   -3.5622322    1.5970637   -6.9119439  
C   -2.7442356   -0.0006476   -8.6694134  
C   -3.1806381   -0.7733657   -9.7280149  
O   -2.2864082   -1.5274430  -10.4313891  
C   -4.5476848   -0.7926029  -10.0935688  
O   -4.8239716   -1.6111945  -11.1691696  
C   -5.4942379   -0.0507448   -9.4181351  
H   -6.7951818    1.8559467   -7.3986775  
H   -2.6994985    1.7942462   -6.4378229  
H   -2.7925441   -1.9822156  -11.1171535  
H   -5.7677471   -1.5668320  -11.3506197  
H   -6.5341310   -0.0855245   -9.7212696  
H   -4.8844943    2.8069740   -5.7513748  
C   -0.8287671    0.0000935   -4.7555305  
C    0.4848182    0.0005136   -5.0812193  
C    0.5106010    0.0006421   -6.5358100  
C   -0.9135391    0.0001375   -6.9338162  
N   -1.7033614   -0.0001048   -5.8945041  
C   -1.3181690    0.0001437   -8.3127145  
C   -0.3443518    0.0010207   -9.2513381  
O   -0.5775774    0.0011272  -10.5748360  
C    1.1017783    0.0019184   -8.8813818  
O    1.9341165    0.0025678   -9.7882630  
C    1.4913197    0.0018496   -7.4600501  
H    1.3316904    0.0008021   -4.4164766  
H    0.3072611    0.0018585  -10.9825257  
H    2.5491448    0.0026322   -7.2336964  
C    1.0672566   -0.0000698   -0.8321912  
C    0.0000000    0.0000000    0.0000000  
C   -1.1601226   -0.0000736   -0.8778472  
C   -0.5938732   -0.0000770   -2.2438435  
N    0.7113365   -0.0001555   -2.2234123  
C   -1.4286989   -0.0001880   -3.4135239  
C   -2.7683117   -0.0006800   -3.2270522  
O   -3.6653907   -0.0008306   -4.2276967  
C   -3.3702026   -0.0010611   -1.8610771  
O   -4.5974909   -0.0013781   -1.7662957  
C   -2.4926826   -0.0008944   -0.6770655  
H   -4.5324249   -0.0012263   -3.7833950  
H   -2.9677773   -0.0012975    0.2947963  
H    2.1134390   -0.0000546   -0.5705121  
C    0.0000000    0.0000000    1.4700000  
C    1.0662921    0.0000102    2.3034270  
C    0.4961870   -0.0000064    3.6418889  
C   -0.9663858    0.0000850    3.4240247  
N   -1.2632773    0.0000084    2.1528658  
C   -1.8985362    0.0000517    4.5177257  
C   -1.3925775   -0.0004564    5.7720543  
O   -2.1456383   -0.0005410    6.8851312  
C    0.0786232   -0.0009323    6.0245000  
O    0.4683759   -0.0012588    7.1921102  
C    1.0143166   -0.0008442    4.8859032  
H    2.1107198   -0.0000632    2.0421868  
H   -2.9622183    0.0003270    4.3293377  
H   -1.5042274   -0.0009692    7.6184419  
H    2.0724152   -0.0013148    5.1109744  
