60

C    5.1796234   -3.0746154   -1.7704282  
C    6.3647857   -3.7538229   -1.9333216  
C    6.5719563   -4.5198813   -0.7480648  
C    5.4709737   -4.2659092    0.1094092  
N    4.6454787   -3.3827773   -0.5411704  
C    5.3426255   -4.8559877    1.3704101  
C    6.3438009   -5.7183905    1.7730069  
O    6.2683264   -6.3221876    2.9947871  
C    7.4503836   -5.9841742    0.9317867  
O    8.3631664   -6.8642800    1.4754647  
C    7.5777917   -5.4021930   -0.3122360  
H    7.0022040   -3.7025028   -2.7993805  
H    3.7780346   -3.0269602   -0.1821220  
H    4.5060452   -4.6664419    2.0287484  
H    7.0566938   -6.8746629    3.0754895  
H    9.0783300   -6.9892989    0.8441838  
H    8.4368254   -5.6248133   -0.9343126  
C    4.4889031   -2.1447422   -2.6754921  
C    4.8757511   -1.7386733   -3.9071719  
C    3.8306318   -0.8272349   -4.3470648  
C    2.8651833   -0.7989830   -3.2273799  
N    3.2457608   -1.5692929   -2.2446427  
C    1.6707636   -0.0012343   -3.2725974  
C    1.4510168    0.7351292   -4.3856180  
O    0.3782653    1.5248311   -4.5634278  
C    2.4067064    0.7280670   -5.5322520  
O    2.1427787    1.4226360   -6.5136469  
C    3.6247810   -0.0985257   -5.4618026  
H    5.7610391   -2.0225071   -4.4501093  
H    0.5021826    1.9161685   -5.4469730  
H    4.2917388   -0.0759836   -6.3132059  
C    1.0965514    0.0001358   -0.8010306  
C    0.0000000    0.0000000    0.0000000  
C   -1.1546565    0.0001470   -0.8669508  
C   -0.6372019    0.0003520   -2.2486278  
N    0.7342867    0.0007338   -2.1395012  
C   -1.4147744    0.0001354   -3.3608712  
C   -2.8576052   -0.0001047   -3.1854454  
O   -3.6427785   -0.0002490   -4.1244896  
C   -3.4275841   -0.0000727   -1.7311660  
O   -4.6406832    0.0000333   -1.5710049  
C   -2.4891868   -0.0001090   -0.6116739  
H   -1.0150456    0.0001617   -4.3654239  
H   -2.8919122   -0.0002919    0.3920871  
H    2.1388270    0.0000663   -0.5261650  
C    2.5128556    2.1077716    2.9199648  
C    1.9592212    1.6432552    4.0696553  
C    0.8915788    0.7479214    3.6910360  
C    0.8684491    0.7287414    2.2159470  
N    1.8754542    1.5738793    1.8102719  
C    0.0000000    0.0000000    1.4700000  
C   -0.9772830   -0.8200135    2.1664417  
O   -1.8021297   -1.5120829    1.5842315  
C   -0.9711318   -0.8147624    3.7284083  
O   -1.7894187   -1.5009653    4.3257297  
C    0.0140216    0.0115358    4.4216297  
H    2.2638494    1.8988021    5.0689105  
H    0.0117648    0.0094386    5.5031631  
H    3.3327358    2.7953732    2.7900019  
H    2.1123206    1.7707734    0.8551938  
