60

C    6.4003169   -0.0080183   -6.6705639  
C    7.0773894   -0.0071772   -5.4730499  
C    8.4699058   -0.0091134   -5.7820729  
C    8.5824574   -0.0108197   -7.1960225  
N    7.3072439   -0.0120515   -7.7043988  
C    9.8146995   -0.0126611   -7.8566025  
C   10.9540766   -0.0124750   -7.0755792  
O   12.1832570   -0.0138722   -7.6689829  
C   10.8623070   -0.0111597   -5.6633495  
O   12.0862932   -0.0115675   -5.0267956  
C    9.6470049   -0.0096161   -5.0109953  
H    6.6234654   -0.0064934   -4.4968601  
H    7.0715056   -0.0028120   -8.6802701  
H    9.9072387   -0.0141113   -8.9339302  
H   12.8320163   -0.0137633   -6.9531776  
H   11.9349921   -0.0105846   -4.0766847  
H    9.6081323   -0.0088143   -3.9279600  
C    2.8699641   -0.0020527   -4.0185824  
C    4.1345929   -0.0036615   -4.5133415  
C    4.0234321   -0.0055090   -5.9529508  
C    2.5800296   -0.0048105   -6.2585311  
N    1.9354846   -0.0030990   -5.0430271  
C    2.0594337   -0.0056968   -7.5118002  
C    2.9823235   -0.0076822   -8.6346561  
O    2.6119089   -0.0086661   -9.8013149  
C    4.5151781   -0.0087041   -8.3343879  
O    5.3018076   -0.0106821   -9.2716564  
C    4.9555132   -0.0073188   -6.9415652  
H    5.0417776   -0.0037476   -3.9357352  
H    0.9973750   -0.0050302   -7.7141401  
H    0.9396388   -0.0007138   -4.9192032  
C    3.2573673   -0.0002921   -1.5109381  
C    2.5379469   -0.0001710   -0.3591962  
C    1.1435042    0.0000332   -0.7338498  
C    1.1092607   -0.0000083   -2.2088474  
N    2.4227562    0.0001908   -2.6182610  
C   -0.0265532   -0.0002523   -2.9515663  
C   -1.3003033   -0.0002639   -2.2514979  
O   -2.3786784   -0.0004132   -2.8306425  
C   -1.2877726    0.0000312   -0.6895609  
O   -2.3539956    0.0003308   -0.0892035  
C    0.0000000    0.0000000    0.0000000  
H    2.9384091   -0.0000368    0.6389240  
H   -0.0296292   -0.0004086   -4.0327231  
H    4.3270395   -0.0004765   -1.6439444  
C    0.8681109    0.7263879    2.2709268  
C    0.6127770    0.5096195    3.5869401  
C   -0.4920590   -0.4175482    3.6542670  
C   -0.8620974   -0.7254003    2.2596025  
N    0.0000000    0.0000000    1.4700000  
C   -1.8641242   -1.5660088    1.8976294  
C   -2.6293522   -2.2103885    2.9520183  
O   -3.5512764   -2.9839180    2.7283916  
C   -2.2549728   -1.8987399    4.4361073  
O   -2.8923672   -2.4351063    5.3323774  
C   -1.1543735   -0.9755647    4.7012123  
H    1.1382914    0.9492124    4.4159191  
H   -2.1192137   -1.7782617    0.8686553  
H   -0.9013378   -0.7652422    5.7314848  
H    1.6172880    1.3558399    1.8188057  
