62

C   -3.9501674    0.7123049   -6.4538717  
C   -5.2952394    0.4628304   -6.5988262  
C   -5.4350014   -0.4459007   -7.6893643  
C   -4.1301146   -0.7178234   -8.1743962  
N   -3.2523869    0.0029117   -7.4031933  
C   -3.8869307   -1.5775135   -9.2498414  
C   -4.9809298   -2.1737941   -9.8463267  
O   -4.8004233   -3.0222657  -10.9001418  
C   -6.2906693   -1.9147386   -9.3769756  
O   -7.2740784   -2.5839355  -10.0758506  
C   -6.5313408   -1.0665345   -8.3162440  
H   -6.0793266    0.8848602   -5.9937710  
H   -2.8948183   -1.7888003   -9.6243723  
H   -5.6802512   -3.3228191  -11.1625071  
H   -8.1274149   -2.3540408   -9.6956273  
H   -7.5455767   -0.8872953   -7.9790838  
H   -3.4334348    1.3412545   -5.7493371  
C    0.0139742    0.0003878   -4.4216236  
C    1.0636154   -0.0005742   -5.3108478  
C    0.4994410   -0.0004442   -6.6209270  
C   -0.9105910    0.0009100   -6.4668698  
N   -1.1713317   -0.0005653   -5.1190459  
C   -1.7901140    0.0017035   -7.5537126  
C   -1.2361256    0.0014262   -8.8191269  
O   -2.0490856    0.0025209   -9.9155342  
C    0.1683266   -0.0002943   -8.9932770  
O    0.5645631   -0.0007778  -10.3147699  
C    1.0365984   -0.0013509   -7.9215366  
H    2.1075078   -0.0023877   -5.0476387  
H   -2.0858187    0.0104662   -4.7048318  
H   -1.4673446    0.0018011  -10.6867942  
H    1.5262028   -0.0019285  -10.3439552  
H    2.1077729   -0.0028449   -8.0860410  
C    3.2798085    0.0005856   -1.4499646  
C    2.5571146    0.0005565   -2.5996553  
C    1.1637435    0.0001548   -2.2210360  
C    1.1336964   -0.0000200   -0.7459470  
N    2.4483515   -0.0001429   -0.3402716  
C    0.0000000    0.0000000    0.0000000  
C   -1.2757368   -0.0000187   -0.6964415  
O   -2.3524594   -0.0000640   -0.1142314  
C   -1.2676495   -0.0000873   -2.2584081  
O   -2.3355761   -0.0004101   -2.8557295  
C    0.0181563    0.0001759   -2.9516296  
H    2.9547358    0.0006075   -3.5989104  
H    4.3498547    0.0008611   -1.3200019  
H    2.7563628    0.0012823    0.6148064  
C    0.8681109    0.7263879    2.2709268  
C    0.6127770    0.5096195    3.5869401  
C   -0.4920590   -0.4175482    3.6542670  
C   -0.8620974   -0.7254003    2.2596025  
N    0.0000000    0.0000000    1.4700000  
C   -1.8641242   -1.5660088    1.8976294  
C   -2.6293522   -2.2103885    2.9520183  
O   -3.5512764   -2.9839180    2.7283916  
C   -2.2549728   -1.8987399    4.4361073  
O   -2.8923672   -2.4351063    5.3323774  
C   -1.1543735   -0.9755647    4.7012123  
H    1.1382914    0.9492124    4.4159191  
H   -2.1192137   -1.7782617    0.8686553  
H   -0.9013378   -0.7652422    5.7314848  
H    1.6172880    1.3558399    1.8188057  
