64

C    4.3968765    0.0904073   -8.0864237  
C    5.4416211   -0.5584232   -8.7028611  
C    5.4303720   -0.1585257  -10.0720048  
C    4.3473142    0.7430671  -10.2333819  
N    3.7397768    0.8705003   -9.0089335  
C    4.0359363    1.3394464  -11.4590108  
C    4.8325934    1.0200861  -12.5413809  
O    4.5732683    1.5742504  -13.7614899  
C    5.9175143    0.1223725  -12.4004101  
O    6.6153571   -0.0942836  -13.5706322  
C    6.2251132   -0.4665529  -11.1916604  
H    6.1267962   -1.2373791   -8.2247945  
H    2.9467136    1.4539714   -8.8124813  
H    3.2117557    2.0272923  -11.5886135  
H    5.2379093    1.2225190  -14.3679570  
H    7.3305001   -0.7115261  -13.3884626  
H    7.0622259   -1.1504660  -11.1143105  
C    5.9071321   -2.1224379   -4.5070234  
C    5.7365512   -1.6242137   -5.7779062  
C    4.6105075   -0.7497121   -5.7346243  
C    4.1312170   -0.7540640   -4.3996383  
N    4.9399008   -1.5992751   -3.6811220  
C    3.0267438   -0.0008951   -3.9901699  
C    2.3947813    0.7709585   -4.9457025  
O    1.3115937    1.5260770   -4.5999939  
C    2.8578544    0.7882380   -6.2828949  
O    2.1221340    1.6061788   -7.1153801  
C    3.9472174    0.0452601   -6.6876138  
H    6.3477795   -1.8626921   -6.6314406  
H    4.8491915   -1.7951604   -2.7006210  
H    1.0273559    1.9799845   -5.4040098  
H    2.5005409    1.5604829   -7.9987401  
H    6.6413440   -2.8106940   -4.1246701  
C    3.3003547    0.0005277   -1.4738986  
C    2.5232816    0.0003497   -2.6090746  
C    1.1623203   -0.0001319   -2.1820102  
C    1.1711884    0.0000584   -0.7636141  
N    2.4852301   -0.0014919   -0.3662359  
C    0.0000000    0.0000000    0.0000000  
C   -1.2020383    0.0000520   -0.6806479  
O   -2.3759248    0.0003493    0.0157745  
C   -1.2314655   -0.0005115   -2.0955511  
O   -2.5054388   -0.0008040   -2.6250184  
C   -0.0764513   -0.0007274   -2.8495195  
H    2.8036266    0.0088183    0.5858662  
H   -3.0835639    0.0000346   -0.6418822  
H   -2.4360043   -0.0011529   -3.5845924  
H   -0.1304091   -0.0013423   -3.9319089  
H    4.3715553    0.0004897   -1.3667133  
C    2.5528530    2.1414826    2.8079335  
C    2.0663498    1.7338582    4.0032312  
C    0.9804344    0.8229586    3.6752840  
C    0.9495562    0.7966882    2.1971295  
N    1.8690446    1.5676019    1.6831036  
C    0.0000000    0.0000000    1.4700000  
C   -0.8785127   -0.7372425    2.1869543  
O   -1.8187535   -1.5261249    1.6395491  
C   -0.8723269   -0.7321790    3.6796354  
O   -1.7010379   -1.4274584    4.2670412  
C    0.1115397    0.0933559    4.4024240  
H    2.4028853    2.0163452    4.9860947  
H   -2.2861435   -1.9184361    2.3990168  
H    0.0832434    0.0693689    5.4835595  
H    3.3664920    2.8238276    2.6198634  
