62

C    4.7940040   -0.6820646   -7.3894513  
C    5.9017951   -0.6351359   -8.2037387  
C    6.0295884    0.7117235   -8.6556660  
C    4.9624580    1.4471769   -8.0792388  
N    4.2303297    0.5703295   -7.3178294  
C    4.7754160    2.8137197   -8.3080719  
C    5.6823299    3.4494716   -9.1336052  
O    5.5467992    4.7831320   -9.3904997  
C    6.7534007    2.7327380   -9.7183425  
O    7.5703826    3.5069572  -10.5161316  
C    6.9383779    1.3845383   -9.4932489  
H    6.5387195   -1.4693052   -8.4434931  
H    3.9640481    3.3799327   -7.8718540  
H    6.2733145    5.0227710   -9.9804271  
H    8.2673319    2.9470982  -10.8716943  
H    7.7679964    0.8621601   -9.9551279  
H    4.3605246   -1.5101101   -6.8552271  
C    2.8912669   -0.6998115   -3.3332351  
C    1.7334695    0.0049281   -3.2500363  
C    1.6041102    0.7488995   -4.4807305  
C    2.7899385    0.4174236   -5.2935812  
N    3.5303612   -0.4649349   -4.5411803  
C    3.0393026    0.9187046   -6.5298013  
C    2.0755510    1.8468028   -7.0975619  
O    2.2101249    2.3528611   -8.2039503  
C    0.8125767    2.2121885   -6.2542380  
O   -0.0056406    2.9927353   -6.7217081  
C    0.6534234    1.6072169   -4.9341882  
H   -0.2239001    1.8652504   -4.3567402  
H    3.3315067   -1.3708305   -2.6136436  
H    4.3999325   -0.8765954   -4.8265370  
C    1.1319246    0.0015678   -0.8009268  
C    0.7969914    0.0034958   -2.1169401  
C   -0.6453340    0.0035696   -2.1842669  
C   -1.1266832    0.0015410   -0.7896025  
N    0.0000000    0.0000000    0.0000000  
C   -2.4346129    0.0013913   -0.4276292  
C   -3.4350111    0.0031335   -1.4820181  
O   -4.6384614    0.0030875   -1.2583914  
C   -2.9478961    0.0050442   -2.9661074  
O   -3.7809382    0.0062135   -3.8623773  
C   -1.5113825    0.0053055   -3.2312122  
H   -2.7664565    0.0000174    0.6013448  
H   -1.1823533    0.0068381   -4.2614848  
H    2.1104316    0.0009435   -0.3488059  
C    2.5285572    2.1210227    2.9438989  
C    1.9331703    1.6216660    4.0790748  
C    0.8903039    0.7472258    3.6520102  
C    0.8972198    0.7527806    2.2336141  
N    1.9028376    1.5986179    1.8362361  
C    0.0000000    0.0000000    1.4700000  
C   -0.9207814   -0.7726952    2.1506477  
O   -1.8198395   -1.5274828    1.4542253  
C   -0.9436862   -0.7911793    3.5655508  
O   -1.9197945   -1.6098497    4.0950179  
C   -0.0590329   -0.0485852    4.3195194  
H    2.2150357    1.8593692    5.0905303  
H    2.1533708    1.7953814    0.8841339  
H   -2.3621246   -1.9821033    2.1118817  
H   -1.8668290   -1.5649508    5.0545920  
H   -0.1007624   -0.0827977    5.4019087  
H    3.3491200    2.8096064    2.8367138  
