60

C    7.0099162   -5.3335765   -4.9666550  
C    6.1155788   -4.4100391   -4.4770536  
C    6.4496440   -3.1543710   -5.0655245  
C    7.5655426   -3.3755079   -5.9127525  
N    7.8813301   -4.7088075   -5.8278458  
C    8.1644595   -2.3543428   -6.6566004  
C    7.6269041   -1.0869104   -6.5433431  
O    8.1727295   -0.0531312   -7.2478917  
C    6.5139503   -0.8462908   -5.7029548  
O    6.0954378    0.4683049   -5.6975604  
C    5.9227654   -1.8531658   -4.9686323  
H    5.3209327   -4.6158248   -3.7805035  
H    8.6246106   -5.1621549   -6.3278348  
H    9.0152287   -2.5163407   -7.3040179  
H    7.6543069    0.7315693   -7.0271011  
H    5.3407704    0.5448125   -5.1057608  
H    7.0960427   -6.3882383   -4.7685935  
C    4.5546442   -2.0975049   -2.8456842  
C    3.3966022   -1.6333854   -2.3093946  
C    2.8128208   -0.7373022   -3.2794821  
C    3.7322610   -0.7172949   -4.4331804  
N    4.7679901   -1.5620814   -4.1068520  
C    3.5352971    0.0116907   -5.5607839  
C    2.3379415    0.8314598   -5.6435736  
O    2.0707008    1.5238117   -6.6169858  
C    1.3504336    0.8257213   -4.4333668  
O    0.3391712    1.5121845   -4.4914816  
C    1.6707636   -0.0012343   -3.2725974  
H    2.9970336   -1.8893867   -1.3442925  
H    4.2221659    0.0121010   -6.3957214  
H    5.2702683   -2.7854719   -2.4255964  
C    1.0965514    0.0001358   -0.8010306  
C    0.0000000    0.0000000    0.0000000  
C   -1.1546565    0.0001470   -0.8669508  
C   -0.6372019    0.0003520   -2.2486278  
N    0.7342867    0.0007338   -2.1395012  
C   -1.4147744    0.0001354   -3.3608712  
C   -2.8576052   -0.0001047   -3.1854454  
O   -3.6427785   -0.0002490   -4.1244896  
C   -3.4275841   -0.0000727   -1.7311660  
O   -4.6406832    0.0000333   -1.5710049  
C   -2.4891868   -0.0001090   -0.6116739  
H   -1.0150456    0.0001617   -4.3654239  
H   -2.8919122   -0.0002919    0.3920871  
H    2.1388270    0.0000663   -0.5261650  
C    0.0000000    0.0000000    1.4700000  
C    1.0541688    0.0001722    2.3260392  
C    0.5103138    0.0000454    3.6635956  
C   -0.9576371   -0.0002459    3.5155732  
N   -1.2018458    0.0001392    2.1615969  
C   -1.8348311   -0.0008317    4.5510609  
C   -1.2972847   -0.0009736    5.9014604  
O   -2.0050672   -0.0014265    6.9001319  
C    0.2542623   -0.0004184    6.0817573  
O    0.7184670   -0.0002256    7.2139121  
C    1.0974552   -0.0000873    4.8889129  
H    2.0940752    0.0005483    2.0517982  
H   -2.9081052   -0.0011668    4.4207061  
H    2.1707277    0.0000911    5.0223670  
H   -2.1128194   -0.0014912    1.7406791  
