60

C   10.1711761    2.1259635   -2.6784688  
C    9.1782941    1.6634823   -1.8461441  
C    9.7950972    0.7758561   -0.9154063  
C   11.1773081    0.7361746   -1.2313897  
N   11.3712283    1.5656700   -2.3079351  
C   12.0945133   -0.0401194   -0.5166231  
C   11.6075638   -0.7897810    0.5364986  
O   12.4596866   -1.5653779    1.2681745  
C   10.2317253   -0.7636934    0.8669600  
O    9.9027671   -1.5646430    1.9410224  
C    9.3262641    0.0016992    0.1620910  
H    8.1373105    1.9319078   -1.9035372  
H   12.2547206    1.7473811   -2.7488450  
H   13.1491954   -0.0748205   -0.7525112  
H   11.9223278   -1.9987212    1.9439883  
H    8.9565334   -1.4895481    2.0978862  
H   10.1180395    2.8100591   -3.5080159  
C    5.6664810    0.0014065   -2.2647026  
C    4.7390840    0.0009613   -1.2727298  
C    5.4604955    0.0006395   -0.0219695  
C    6.8944817    0.0009654   -0.3690623  
N    6.9515101    0.0010264   -1.7437031  
C    7.9048604    0.0011994    0.5369398  
C    7.5567542    0.0008993    1.9480945  
O    8.3942809    0.0010144    2.8407591  
C    6.0443622    0.0002997    2.3385745  
O    5.7391076   -0.0002635    3.5235135  
C    5.0461778    0.0003723    1.2720471  
H    4.0011833    0.0001602    1.5508123  
H    5.5192864    0.0017636   -3.3325147  
H    7.7964707    0.0027872   -2.2850761  
C    3.2798077    0.0005856   -1.4499661  
C    2.5571132    0.0005565   -2.5996564  
C    1.1637425    0.0001547   -2.2210366  
C    1.1336959   -0.0000200   -0.7459475  
N    2.4483509   -0.0001429   -0.3402730  
C    0.0000000    0.0000000    0.0000000  
C   -1.2757370   -0.0000187   -0.6964411  
O   -2.3524597   -0.0000640   -0.1142306  
C   -1.2676502   -0.0000874   -2.2584078  
O   -2.3355774   -0.0004102   -2.8557287  
C    0.0181551    0.0001758   -2.9516297  
H    2.9547342    0.0006074   -3.5989118  
H    0.0150776    0.0003317   -4.0331632  
H    2.7563626    0.0012823    0.6148051  
C    2.5128556    2.1077716    2.9199648  
C    1.9592212    1.6432552    4.0696553  
C    0.8915788    0.7479214    3.6910360  
C    0.8684491    0.7287414    2.2159470  
N    1.8754542    1.5738793    1.8102719  
C    0.0000000    0.0000000    1.4700000  
C   -0.9772830   -0.8200135    2.1664417  
O   -1.8021297   -1.5120829    1.5842315  
C   -0.9711318   -0.8147624    3.7284083  
O   -1.7894187   -1.5009653    4.3257297  
C    0.0140216    0.0115358    4.4216297  
H    2.2638494    1.8988021    5.0689105  
H    0.0117648    0.0094386    5.5031631  
H    3.3327358    2.7953732    2.7900019  
H    2.1123206    1.7707734    0.8551938  
