60

C    5.8168739   -3.2307593   -9.3106181  
C    5.2684367   -2.5243175   -8.2653314  
C    5.1765166   -1.1641200   -8.6848726  
C    5.6879686   -1.1006923  -10.0063572  
N    6.0697213   -2.3724390  -10.3549859  
C    5.7509679    0.0899338  -10.7365822  
C    5.2889678    1.2373809  -10.1216847  
O    5.3269933    2.4271793  -10.7894777  
C    4.7753987    1.1944137   -8.8036496  
O    4.3550763    2.4203554   -8.3306383  
C    4.7131956    0.0202319   -8.0825703  
H    4.9722012   -2.9382277   -7.3166938  
H    6.4601715   -2.6388955  -11.2407231  
H    6.1397774    0.1449610  -11.7440539  
H    4.9629334    3.0896638  -10.1879466  
H    4.0229011    2.3033016   -7.4353380  
H    6.0490155   -4.2787250   -9.3933083  
C    5.9779326   -2.0928592   -4.4468277  
C    5.0400352   -1.6304885   -3.5804345  
C    4.1859905   -0.7341818   -4.3234533  
C    4.7069275   -0.7121372   -5.7036455  
N    5.7934745   -1.5560774   -5.7119684  
C    4.1728106    0.0176374   -6.7155014  
C    3.0072079    0.8361655   -6.4258171  
O    2.4535610    1.5290918   -7.2693981  
C    2.4388223    0.8282645   -4.9709354  
O    1.4580063    1.5136695   -4.7150431  
C    3.1006054    0.0006263   -3.9654951  
H    4.9561722   -1.8877888   -2.5395805  
H    6.7884827   -2.7804145   -4.2674807  
H    6.3633299   -1.7534011   -6.5140748  
C    3.2798083    0.0005857   -1.4499652  
C    2.5571142    0.0005565   -2.5996556  
C    1.1637432    0.0001548   -2.2210361  
C    1.1336964   -0.0000200   -0.7459473  
N    2.4483512   -0.0001428   -0.3402723  
C    0.0000000    0.0000000    0.0000000  
C   -1.2757368   -0.0000186   -0.6964415  
O   -2.3524598   -0.0000639   -0.1142311  
C   -1.2676497   -0.0000872   -2.2584083  
O   -2.3355766   -0.0004101   -2.8557295  
C    0.0181558    0.0001758   -2.9516296  
H    0.0150788    0.0003319   -4.0331631  
H    4.3498547    0.0008612   -1.3200026  
H    2.7563626    0.0012823    0.6148059  
C    0.8175213    0.6860729    2.3021913  
C    0.0000000    0.0000000    1.4700000  
C   -0.8887526   -0.7456559    2.3478473  
C   -0.4549825   -0.3816753    3.7138435  
N    0.5448156    0.4573574    3.6934124  
C   -1.0945674   -0.9182058    4.8835240  
C   -2.1210866   -1.7789155    4.6970523  
O   -2.8083856   -2.3554314    5.6976972  
C   -2.5824069   -2.1655116    3.3310774  
O   -3.5227682   -2.9541547    3.2362962  
C   -1.9100805   -1.6015804    2.1470656  
H   -0.7567140   -0.6349833    5.8697035  
H   -3.4728268   -2.9124471    5.2533954  
H   -2.2742832   -1.9066565    1.1752040  
H    1.6189533    1.3585343    2.0405121  
