62

C    1.4507224   -2.4163464   -7.7211901  
C    1.0181723   -1.1136823   -7.6293534  
C    1.3363111   -0.4810576   -8.8675670  
C    1.9669589   -1.4554919   -9.6828501  
N    2.0221716   -2.6185713   -8.9556531  
C    2.4168128   -1.1816004  -10.9779963  
C    2.2262919    0.0992288  -11.4589925  
O    2.6461592    0.4207294  -12.7173096  
C    1.5994580    1.0853381  -10.6605656  
O    1.4833091    2.3118885  -11.2813937  
C    1.1556596    0.8159175   -9.3826840  
H    2.4071521   -3.4875537   -9.2791362  
H    2.8983421   -1.9198191  -11.6043877  
H    2.4198766    1.3502752  -12.8514887  
H    1.0497905    2.9199555  -10.6748300  
H    0.6792473    1.5916838   -8.7947252  
H    1.3981134   -3.2168313   -7.0032659  
C    0.6776466   -0.7282711   -5.1604461  
C    0.3570671   -0.5122885   -6.4622354  
C   -0.7499183    0.4146722   -6.4749880  
C   -1.0501144    0.7232591   -5.0638015  
N   -0.1496415   -0.0015615   -4.3176961  
C   -2.0330281    1.5639197   -4.6528576  
C   -2.8499207    2.2075843   -5.6681985  
O   -3.7597068    2.9810996   -5.3993800  
C   -2.5498407    1.8951507   -7.1689128  
O   -3.2311660    2.4309114   -8.0326354  
C   -1.4636387    0.9719933   -7.4879704  
H   -2.2366081    1.7767176   -3.6125776  
H   -1.2621751    0.7611250   -8.5294453  
H    1.4485190   -1.3573518   -4.7458346  
C    3.3003543    0.0005276   -1.4738987  
C    2.5232814    0.0003497   -2.6090747  
C    1.1623200   -0.0001320   -2.1820103  
C    1.1711883    0.0000582   -0.7636140  
N    2.4852300   -0.0014919   -0.3662360  
C    0.0000000    0.0000000    0.0000000  
C   -1.2020384    0.0000519   -0.6806477  
O   -2.3759249    0.0003493    0.0157743  
C   -1.2314656   -0.0005115   -2.0955510  
O   -2.5054392   -0.0008039   -2.6250180  
C   -0.0764516   -0.0007274   -2.8495195  
H    2.8919955   -0.0005620   -3.6205304  
H    2.8036267    0.0088183    0.5858662  
H   -3.0835638    0.0000347   -0.6418818  
H   -2.4360047   -0.0011529   -3.5845921  
H    4.3715549    0.0004895   -1.3667136  
C    2.3971438    2.0127888    3.1728260  
C    1.9431056    1.6308205    1.9564670  
C    0.8496017    0.7127664    2.2356185  
C    0.7794028    0.6545384    3.7115134  
N    1.6840587    1.4146091    4.2663826  
C   -0.1885723   -0.1578550    4.3957118  
C   -1.0476298   -0.8789867    3.6398520  
O   -2.0015663   -1.6796266    4.1448486  
C   -1.0022026   -0.8410666    2.1483229  
O   -1.8147390   -1.5232959    1.5241687  
C    0.0000000    0.0000000    1.4700000  
H    2.3054237    1.9346118    0.9892483  
H   -0.2170646   -0.1815267    5.4753125  
H   -2.4487139   -2.0549881    3.3649027  
H    3.2048689    2.6911772    3.3971983  
