64

C   -6.5857682    0.0057643   -0.0888713  
C   -5.5551527    0.0052967    0.8223359  
C   -6.1468857    0.0065824    2.1201999  
C   -7.5533470    0.0075254    1.9363790  
N   -7.7855449    0.0089479    0.5833457  
C   -8.4556420    0.0085931    3.0043928  
C   -7.9285181    0.0084039    4.2812319  
O   -8.7644675    0.0090629    5.3602143  
C   -6.5280593    0.0078437    4.4850230  
O   -6.1598370    0.0081445    5.8145934  
C   -5.6373324    0.0070636    3.4318704  
H   -4.5059300    0.0052728    0.5812455  
H   -8.6910914   -0.0007076    0.1499023  
H   -9.5286741    0.0094593    2.8709689  
H   -8.1991545    0.0090910    6.1435957  
H   -5.1990284    0.0077013    5.8640944  
H   -4.5698727    0.0068297    3.6189748  
C   -3.2578655    0.0024039   -2.9908504  
C   -4.0046939    0.0033125   -1.8566891  
C   -5.3897519    0.0044625   -2.2646696  
C   -5.3886199    0.0041180   -3.7400641  
N   -4.0656859    0.0032563   -4.1178667  
C   -6.5062996    0.0045470   -4.5098025  
C   -7.7964683    0.0056315   -3.8404768  
O   -8.8606469    0.0061493   -4.4453109  
C   -7.8213912    0.0062652   -2.2786881  
O   -8.9017016    0.0074854   -1.7040683  
C   -6.5505227    0.0054369   -1.5584485  
H   -3.6282786    0.0033734   -0.8492543  
H   -6.4834518    0.0041523   -5.5907228  
H   -3.7375611    0.0012865   -5.0662218  
C    0.0000000    0.0000000    0.0000000  
C    1.0521667   -0.0011902   -0.8862342  
C    0.4917216   -0.0011957   -2.1979129  
C   -0.9187429    0.0003148   -2.0478680  
N   -1.1833171   -0.0009412   -0.7007912  
C   -1.7951702    0.0010350   -3.1372088  
C   -1.2375841    0.0005225   -4.4010424  
O   -2.0474217    0.0015360   -5.4997576  
C    0.1673577   -0.0013567   -4.5711964  
O    0.5673522   -0.0020688   -5.8915554  
C    1.0325769   -0.0023413   -3.4969890  
H    2.0953057   -0.0030649   -0.6200562  
H   -2.0989779    0.0102372   -0.2891821  
H   -1.4634887    0.0006498   -6.2693588  
H    1.5290708   -0.0033153   -5.9180049  
H    2.1042148   -0.0039610   -3.6584453  
C    3.3003543   -0.0005276    2.9438989  
C    2.5232812   -0.0003497    4.0790748  
C    1.1623199    0.0001319    3.6520102  
C    1.1711883   -0.0000583    2.2336141  
N    2.4852299    0.0014920    1.8362361  
C    0.0000000    0.0000000    1.4700000  
C   -1.2020384   -0.0000520    2.1506477  
O   -2.3759250   -0.0003494    1.4542253  
C   -1.2314658    0.0005113    3.5655508  
O   -2.5054393    0.0008037    4.0950179  
C   -0.0764518    0.0007272    4.3195194  
H    2.8919952    0.0005619    5.0905303  
H    2.8036267   -0.0088181    0.8841339  
H   -3.0835639   -0.0000348    2.1118817  
H   -2.4360050    0.0011527    5.0545920  
H   -0.1304098    0.0013421    5.4019087  
H    4.3715549   -0.0004895    2.8367138  
