62

C    2.1854052   -3.0830822   -8.9443282  
C    2.3804893   -2.9795616  -10.3021540  
C    2.1512073   -1.6161274  -10.6529785  
C    1.8170151   -0.9293543   -9.4577449  
N    1.8450820   -1.8498597   -8.4396589  
C    1.5264388    0.4379117   -9.4271141  
C    1.5743925    1.1244514  -10.6248374  
O    1.2997860    2.4611896  -10.6519570  
C    1.9054664    0.4567528  -11.8279100  
O    1.9105990    1.2782430  -12.9362744  
C    2.1919782   -0.8921266  -11.8589157  
H    2.6532923   -3.7875982  -10.9591547  
H    1.2708959    0.9671700   -8.5194881  
H    1.3884097    2.7395120  -11.5727974  
H    2.1435622    0.7495919  -13.7055983  
H    2.4421143   -1.3762721  -12.7956732  
H    2.2606969   -3.9393208   -8.2961418  
C    2.2675099   -2.0960610   -5.9498184  
C    1.7744249   -1.6329637   -4.7723284  
C    0.6888620   -0.7368507   -5.0938399  
C    0.5891931   -0.7157119   -6.5657127  
N    1.5740353   -1.5599383   -7.0242506  
C   -0.3170782    0.0136356   -7.2645898  
C   -1.2569154    0.8326278   -6.5172659  
O   -2.1110286    1.5252261   -7.0549444  
C   -1.1693695    0.8256867   -4.9577490  
O   -1.9551700    1.5114887   -4.3178627  
C   -0.1496415   -0.0015615   -4.3176961  
H    2.1306439   -1.8896606   -3.7905805  
H   -0.3733620    0.0148792   -8.3442837  
H    3.0792927   -2.7837268   -6.1230671  
C    3.3003543    0.0005276   -1.4738987  
C    2.5232814    0.0003497   -2.6090747  
C    1.1623200   -0.0001320   -2.1820103  
C    1.1711883    0.0000582   -0.7636140  
N    2.4852300   -0.0014919   -0.3662360  
C    0.0000000    0.0000000    0.0000000  
C   -1.2020384    0.0000519   -0.6806477  
O   -2.3759249    0.0003493    0.0157743  
C   -1.2314656   -0.0005115   -2.0955510  
O   -2.5054392   -0.0008039   -2.6250180  
C   -0.0764516   -0.0007274   -2.8495195  
H    2.8919955   -0.0005620   -3.6205304  
H    2.8036267    0.0088183    0.5858662  
H   -3.0835638    0.0000347   -0.6418818  
H   -2.4360047   -0.0011529   -3.5845921  
H    4.3715549    0.0004895   -1.3667136  
C    0.0000000    0.0000000    1.4700000  
C    1.0662921    0.0000102    2.3034270  
C    0.4961870   -0.0000064    3.6418889  
C   -0.9663858    0.0000850    3.4240247  
N   -1.2632773    0.0000084    2.1528658  
C   -1.8985362    0.0000517    4.5177257  
C   -1.3925775   -0.0004564    5.7720543  
O   -2.1456383   -0.0005410    6.8851312  
C    0.0786232   -0.0009323    6.0245000  
O    0.4683759   -0.0012588    7.1921102  
C    1.0143166   -0.0008442    4.8859032  
H    2.1107198   -0.0000632    2.0421868  
H   -2.9622183    0.0003270    4.3293377  
H   -1.5042274   -0.0009692    7.6184419  
H    2.0724152   -0.0013148    5.1109744  
