62

C   -6.3684996    0.0056225   -6.0423160  
C   -5.2524335    0.0038295   -6.8465928  
C   -5.7122588    0.0044114   -8.1968365  
C   -7.1300247    0.0068849   -8.1536974  
N   -7.4955366    0.0056128   -6.8304374  
C   -7.9217143    0.0083800   -9.3060924  
C   -7.2703115    0.0076665  -10.5242265  
O   -7.9948940    0.0094098  -11.6809421  
C   -5.8565353    0.0048313  -10.5878344  
O   -5.3580076    0.0040367  -11.8742301  
C   -5.0748792    0.0030818   -9.4513768  
H   -4.2323667    0.0011863   -6.5024269  
H   -8.4396498    0.0173694   -6.4891251  
H   -9.0026937    0.0101226   -9.2799642  
H   -7.3545298    0.0082305  -12.4042656  
H   -4.3970375    0.0021222  -11.8280031  
H   -3.9941123    0.0007376   -9.5314735  
C   -3.2578655    0.0024039   -2.9908504  
C   -3.9809871    0.0031289   -1.8468776  
C   -5.3695593    0.0043914   -2.2808879  
C   -5.2983968    0.0043642   -3.7578851  
N   -4.0631141    0.0031210   -4.1798622  
C   -6.4794715    0.0054032   -4.5765110  
C   -7.6771926    0.0060339   -3.9481810  
O   -8.8597151    0.0070293   -4.5866777  
C   -7.7819059    0.0057083   -2.4591557  
O   -8.9049090    0.0064466   -1.9550880  
C   -6.5558062    0.0046822   -1.6414745  
H   -3.6170582    0.0027519   -0.8336497  
H   -9.5255211    0.0072470   -3.8754428  
H   -6.6744111    0.0043603   -0.5662243  
C    0.0000000    0.0000000    0.0000000  
C    1.0521667   -0.0011902   -0.8862342  
C    0.4917216   -0.0011957   -2.1979129  
C   -0.9187429    0.0003148   -2.0478680  
N   -1.1833171   -0.0009412   -0.7007912  
C   -1.7951702    0.0010350   -3.1372088  
C   -1.2375841    0.0005225   -4.4010424  
O   -2.0474217    0.0015360   -5.4997576  
C    0.1673577   -0.0013567   -4.5711964  
O    0.5673522   -0.0020688   -5.8915554  
C    1.0325769   -0.0023413   -3.4969890  
H    2.0953057   -0.0030649   -0.6200562  
H   -2.0989779    0.0102372   -0.2891821  
H   -1.4634887    0.0006498   -6.2693588  
H    1.5290708   -0.0033153   -5.9180049  
H    2.1042148   -0.0039610   -3.6584453  
C    3.2798086   -0.0005857    2.9199648  
C    2.5571146   -0.0005566    4.0696553  
C    1.1637436   -0.0001548    3.6910360  
C    1.1336965    0.0000200    2.2159470  
N    2.4483514    0.0001428    1.8102719  
C    0.0000000    0.0000000    1.4700000  
C   -1.2757367    0.0000186    2.1664417  
O   -2.3524596    0.0000640    1.5842315  
C   -1.2676493    0.0000873    3.7284083  
O   -2.3355761    0.0004100    4.3257297  
C    0.0181563   -0.0001760    4.4216297  
H    2.9547357   -0.0006076    5.0689105  
H    0.0150794   -0.0003319    5.5031631  
H    4.3498549   -0.0008612    2.7900019  
H    2.7563627   -0.0012824    0.8551938  
