60

C    0.3213402    0.6904750   -9.3145065  
C    1.4253149   -0.1263374   -9.3952767  
C    1.9114600   -0.0381913  -10.7333698  
C    1.0567964    0.8551063  -11.4287080  
N    0.1010265    1.2776590  -10.5384443  
C    1.2380101    1.1803268  -12.7763670  
C    2.3015520    0.5933058  -13.4339851  
O    2.5247076    0.8761875  -14.7504920  
C    3.1651175   -0.3008010  -12.7574906  
O    4.1771036   -0.8025306  -13.5496370  
C    2.9867862   -0.6223058  -11.4280706  
H    1.8297550   -0.7143246   -8.5892421  
H   -0.6371236    1.9264241  -10.7439167  
H    0.5900700    1.8603157  -13.3120817  
H    3.3045885    0.3687513  -15.0104154  
H    4.7140268   -1.3970542  -13.0168530  
H    3.6644519   -1.3105916  -10.9366334  
C    0.2908547   -0.7259202   -5.1324816  
C    0.5947728   -0.5089643   -6.4380999  
C   -0.3866749    0.4179357   -6.9504006  
C   -1.2937756    0.7254267   -5.8281672  
N   -0.8287665    0.0000939   -4.7555305  
C   -2.3565432    1.5657114   -5.9065952  
C   -2.6250284    2.2100989   -7.1814348  
O   -3.5581859    2.9833515   -7.3534773  
C   -1.6774681    1.8988297   -8.3835353  
O   -1.8937476    2.4352061   -9.4618598  
C   -0.5642181    0.9759846   -8.1764502  
H    1.4129870   -0.9482651   -6.9804595  
H   -3.0094299    1.7777026   -5.0713054  
H    0.7904777   -1.3552687   -4.4140196  
C    1.0672569   -0.0000698   -0.8321910  
C    0.0000000    0.0000000    0.0000000  
C   -1.1601223   -0.0000736   -0.8778472  
C   -0.5938729   -0.0000768   -2.2438435  
N    0.7113367   -0.0001553   -2.2234123  
C   -1.4286985   -0.0001877   -3.4135239  
C   -2.7683113   -0.0006798   -3.2270524  
O   -3.6653902   -0.0008302   -4.2276970  
C   -3.3702024   -0.0010610   -1.8610774  
O   -4.5974910   -0.0013779   -1.7662963  
C   -2.4926825   -0.0008943   -0.6770658  
H   -4.5324245   -0.0012258   -3.7833954  
H   -2.9677772   -0.0012974    0.2947961  
H    2.1134391   -0.0000547   -0.5705119  
C    0.8175213    0.6860729    2.3021913  
C    0.0000000    0.0000000    1.4700000  
C   -0.8887526   -0.7456559    2.3478473  
C   -0.4549825   -0.3816753    3.7138435  
N    0.5448156    0.4573574    3.6934124  
C   -1.0945674   -0.9182058    4.8835240  
C   -2.1210866   -1.7789155    4.6970523  
O   -2.8083856   -2.3554314    5.6976972  
C   -2.5824069   -2.1655116    3.3310774  
O   -3.5227682   -2.9541547    3.2362962  
C   -1.9100805   -1.6015804    2.1470656  
H   -0.7567140   -0.6349833    5.8697035  
H   -3.4728268   -2.9124471    5.2533954  
H   -2.2742832   -1.9066565    1.1752040  
H    1.6189533    1.3585343    2.0405121  
