64

C    0.1067682   -0.7134232   -5.1553162  
C   -0.9736305    0.0040473   -4.6965763  
C   -1.4915509    0.7330083   -5.8078704  
C   -0.6796794    0.4175751   -6.9273761  
N    0.2823069   -0.4616403   -6.4958911  
C   -0.9002265    0.9580657   -8.1978162  
C   -1.9598376    1.8326857   -8.3407930  
O   -2.2203380    2.3892148   -9.5595750  
C   -2.7809953    2.1600572   -7.2356487  
O   -3.7946146    3.0453494   -7.5392530  
C   -2.5638414    1.6274373   -5.9819792  
H    0.9958917   -0.8698707   -7.0721947  
H   -2.9901244    2.9605152   -9.4399521  
H   -4.3015388    3.2133595   -6.7390003  
H   -3.2094974    1.8970058   -5.1543687  
H    0.7669086   -1.3837318   -4.6320004  
C    1.1188640    0.0008226   -0.8003814  
C    0.0000000    0.0000000    0.0000000  
C   -1.1323862    0.0008901   -0.8673531  
C   -0.6382668    0.0019684   -2.1969280  
N    0.7324012    0.0038484   -2.1202243  
C   -1.4770920    0.0027325   -3.3154808  
C   -2.8395478    0.0020950   -3.0876858  
O   -3.7039209    0.0024430   -4.1440343  
C   -3.3517874    0.0013935   -1.7684326  
O   -4.7300498    0.0012368   -1.7073121  
C   -2.5248543    0.0009124   -0.6644821  
H    1.3576310   -0.0056162   -2.9057047  
H   -4.5940039    0.0021832   -3.7685127  
H   -4.9934606    0.0007262   -0.7819905  
H   -2.9462579    0.0005604    0.3339662  
H    2.1619892    0.0009358   -0.5342072  
C    0.9103209   -2.8380269   -9.5654704  
C    1.5242421   -2.3437457  -10.6929693  
C    1.2251400   -0.9503561  -10.7529897  
C    0.4186331   -0.6488588   -9.6257932  
N    0.2450620   -1.8176816   -8.9269767  
C   -0.0638395    0.6368582   -9.3632268  
C    0.2742589    1.6364855  -10.2546370  
O   -0.1698018    2.9101692  -10.0459400  
C    1.0776304    1.3553179  -11.3852818  
O    1.3264827    2.4566332  -12.1780751  
C    1.5537269    0.0871059  -11.6450813  
H    2.1140777   -2.9171829  -11.3874166  
H   -0.2751528   -1.9117617   -8.0734506  
H    0.1751556    3.4424323  -10.7746138  
H    1.8750084    2.1805558  -12.9186856  
H    2.1668604   -0.0979799  -12.5193169  
H    0.8931609   -3.8379643   -9.1669865  
C    2.3971438    2.0127888    3.1728260  
C    1.9431056    1.6308205    1.9564670  
C    0.8496017    0.7127664    2.2356185  
C    0.7794028    0.6545384    3.7115134  
N    1.6840587    1.4146091    4.2663826  
C   -0.1885723   -0.1578550    4.3957118  
C   -1.0476298   -0.8789867    3.6398520  
O   -2.0015663   -1.6796266    4.1448486  
C   -1.0022026   -0.8410666    2.1483229  
O   -1.8147390   -1.5232959    1.5241687  
C    0.0000000    0.0000000    1.4700000  
H    2.3054237    1.9346118    0.9892483  
H   -0.2170646   -0.1815267    5.4753125  
H   -2.4487139   -2.0549881    3.3649027  
H    3.2048689    2.6911772    3.3971983  
