64

C   -9.0702353    3.2632273   -1.8209914  
C  -10.2125010    2.4970157   -1.8457733  
C   -9.8093778    1.1575240   -2.1247941  
C   -8.3975773    1.1676416   -2.2613390  
N   -7.9811351    2.4621167   -2.0728495  
C   -7.6564181    0.0152630   -2.5397184  
C   -8.3531257   -1.1689549   -2.6825635  
O   -7.6788477   -2.3241194   -2.9545139  
C   -9.7618153   -1.1992461   -2.5503035  
O  -10.3092509   -2.4540795   -2.7207467  
C  -10.4936612   -0.0627350   -2.2759487  
H  -11.2133043    2.8591995   -1.6838773  
H   -7.0274636    2.7747601   -2.1001378  
H   -8.3447666   -3.0214642   -3.0138948  
H  -11.2631720   -2.3866134   -2.6154556  
H  -11.5718200   -0.1168375   -2.1804254  
H   -8.9463580    4.3180454   -1.6450038  
C   -4.4484552    2.1114132   -0.3461920  
C   -5.6479912    1.6480085   -0.7825916  
C   -5.3783932    0.7523819   -1.8825939  
C   -3.9129550    0.7318187   -2.0524731  
N   -3.4082403    1.5765167   -1.0908924  
C   -3.2578655    0.0024282   -2.9908505  
C   -4.0489186   -0.8168743   -3.8939083  
O   -3.5523768   -1.5094417   -4.7725987  
C   -5.6025059   -0.8101576   -3.7322731  
O   -6.2789756   -1.4957519   -4.4869982  
C   -6.1934212    0.0167335   -2.6830241  
H   -6.6117108    1.9044755   -0.3799967  
H   -4.2368622    2.7988447    0.4566508  
H   -2.4341398    1.7725006   -0.9503004  
C    0.0000000    0.0000000    0.0000000  
C    1.0521666   -0.0011982   -0.8862343  
C    0.4917215   -0.0011996   -2.1979132  
C   -0.9187429    0.0003215   -2.0478682  
N   -1.1833171   -0.0009323   -0.7007913  
C   -1.7951703    0.0010483   -3.1372089  
C   -1.2375841    0.0005313   -4.4010422  
O   -2.0474218    0.0015510   -5.4997578  
C    0.1673576   -0.0013585   -4.5711963  
O    0.5673520   -0.0020735   -5.8915554  
C    1.0325768   -0.0023493   -3.4969892  
H    2.0953056   -0.0030808   -0.6200564  
H   -2.0989778    0.0102529   -0.2891822  
H   -1.4634888    0.0006601   -6.2693595  
H    1.5290707   -0.0033271   -5.9180047  
H    2.1042146   -0.0039770   -3.6584456  
C    1.1243417   -0.0099156    2.2619005  
C    0.7474090   -0.0234034    3.5848544  
C   -0.6787367   -0.0234952    3.6114698  
C   -1.1201739   -0.0099357    2.2635546  
N    0.0000000    0.0000000    1.4700000  
C   -2.4730812   -0.0065396    1.9108239  
C   -3.3971947   -0.0173298    2.9375057  
O   -4.7313508   -0.0149487    2.6493466  
C   -2.9763630   -0.0305536    4.2886322  
O   -4.0166453   -0.0397858    5.1947621  
C   -1.6418541   -0.0336380    4.6373480  
H    1.4178735   -0.0310004    4.4271209  
H   -2.8160170    0.0039190    0.8854031  
H   -5.1938803   -0.0234410    3.4974381  
H   -3.6464643   -0.0484781    6.0827341  
H   -1.3497443   -0.0436789    5.6809233  
H    2.1062470   -0.0051382    1.8205408  
