60

C   10.9368238   -2.1236360   -0.7625058  
C    9.6744068   -1.6620344   -1.0552414  
C    9.8021834   -0.7759939   -2.1657394  
C   11.1775119   -0.7363291   -2.5104480  
N   11.8384981   -1.5643069   -1.6374257  
C   11.6709829    0.0385926   -3.5643794  
C   10.7594200    0.7868732   -4.2836209  
O   11.1872125    1.5610957   -5.3231343  
C    9.3832065    0.7607789   -3.9547261  
O    8.6029778    1.5602616   -4.7643020  
C    8.8957170   -0.0032601   -2.9149553  
H    8.7725340   -1.9300123   -0.5319765  
H   12.8259370   -1.7456767   -1.6444572  
H   12.7180468    0.0732732   -3.8320657  
H   10.4017989    1.9936313   -5.6827217  
H    7.6884127    1.4852659   -4.4752535  
H   11.2655980   -2.8064919    0.0020694  
C    6.6685705   -0.0005967    0.8976877  
C    7.6427397   -0.0013904   -0.0483931  
C    6.9825040   -0.0021114   -1.3324973  
C    5.5334436   -0.0016403   -1.0549829  
N    5.4101705   -0.0011223    0.3153062  
C    4.5679461   -0.0016854   -2.0086701  
C    4.9837200   -0.0024605   -3.4013893  
O    4.1902296   -0.0026237   -4.3334163  
C    6.5131876   -0.0032214   -3.7184584  
O    6.8752465   -0.0041838   -4.8872921  
C    7.4587612   -0.0028165   -2.6050208  
H    8.7028558   -0.0016449    0.1326238  
H    6.7640839    0.0001114    1.9713575  
H    4.5400777    0.0008356    0.8152884  
C    3.1301149   -0.0010311   -1.7028252  
C    2.5367768   -0.0002767   -0.4864665  
C    1.1089904    0.0001028   -0.7656183  
C    1.0177872   -0.0004148   -2.2415132  
N    2.1993578   -0.0011611   -2.7963820  
C   -0.2459209   -0.0002877   -2.9257118  
C   -1.3675319   -0.0000605   -2.1698524  
O   -2.6129313    0.0000867   -2.6748490  
C   -1.3083584    0.0000910   -0.6783232  
O   -2.3693261    0.0004206   -0.0541692  
C    0.0000000    0.0000000    0.0000000  
H    3.0096017   -0.0001007    0.4807525  
H   -0.2829630   -0.0004687   -4.0053125  
H   -3.1967441    0.0002094   -1.8949034  
C    0.0000000    0.0000000    1.4700000  
C    1.0662921    0.0000102    2.3034270  
C    0.4961870   -0.0000064    3.6418889  
C   -0.9663858    0.0000850    3.4240247  
N   -1.2632773    0.0000084    2.1528658  
C   -1.8985362    0.0000517    4.5177257  
C   -1.3925775   -0.0004564    5.7720543  
O   -2.1456383   -0.0005410    6.8851312  
C    0.0786232   -0.0009323    6.0245000  
O    0.4683759   -0.0012588    7.1921102  
C    1.0143166   -0.0008442    4.8859032  
H    2.1107198   -0.0000632    2.0421868  
H   -2.9622183    0.0003270    4.3293377  
H   -1.5042274   -0.0009692    7.6184419  
H    2.0724152   -0.0013148    5.1109744  
