62

C    5.0703129   -4.3486167   -3.6720080  
C    4.0550788   -3.5159161   -4.0823456  
C    4.0327229   -3.5578303   -5.5079487  
C    5.0658018   -4.4405992   -5.9146343  
N    5.6772648   -4.9016194   -4.7752522  
C    5.3342590   -4.7230162   -7.2573776  
C    4.5452624   -4.1032232   -8.2068611  
O    4.7639893   -4.3437283   -9.5325045  
C    3.5099303   -3.2189697   -7.8208570  
O    2.8134414   -2.6810443   -8.8833465  
C    3.2447015   -2.9396840   -6.4964023  
H    3.4106818   -2.9472805   -3.4339645  
H    6.4406590   -5.5531844   -4.7493233  
H    6.1202518   -5.3947648   -7.5738752  
H    4.1129458   -3.8189576  -10.0162634  
H    2.1331460   -2.0960258   -8.5361346  
H    5.4104286   -4.5907192   -2.6797043  
C    2.1601074   -2.0149550   -6.1366351  
C    1.7671251   -1.6323651   -4.8993926  
C    0.6609148   -0.7146343   -5.1242671  
C    0.5173097   -0.6572546   -6.5948688  
N    1.3933529   -1.4175035   -7.1936662  
C   -0.4836753    0.1546046   -7.2304781  
C   -1.3041631    0.8760356   -6.4331879  
O   -2.2822030    1.6762454   -6.8905103  
C   -1.1845240    0.8389688   -4.9457495  
O   -1.9650988    1.5214299   -4.2822957  
C   -0.1496415   -0.0015615   -4.3176961  
H    2.1772049   -1.9355528   -3.9512431  
H   -0.5658887    0.1776593   -8.3073340  
H   -2.6900306    2.0519822   -6.0894787  
C    3.3003543    0.0005276   -1.4738987  
C    2.5232814    0.0003497   -2.6090747  
C    1.1623200   -0.0001320   -2.1820103  
C    1.1711883    0.0000582   -0.7636140  
N    2.4852300   -0.0014919   -0.3662360  
C    0.0000000    0.0000000    0.0000000  
C   -1.2020384    0.0000519   -0.6806477  
O   -2.3759249    0.0003493    0.0157743  
C   -1.2314656   -0.0005115   -2.0955510  
O   -2.5054392   -0.0008039   -2.6250180  
C   -0.0764516   -0.0007274   -2.8495195  
H    2.8919955   -0.0005620   -3.6205304  
H    2.8036267    0.0088183    0.5858662  
H   -3.0835638    0.0000347   -0.6418818  
H   -2.4360047   -0.0011529   -3.5845921  
H    4.3715549    0.0004895   -1.3667136  
C    2.3971438    2.0127888    3.1728260  
C    1.9431056    1.6308205    1.9564670  
C    0.8496017    0.7127664    2.2356185  
C    0.7794028    0.6545384    3.7115134  
N    1.6840587    1.4146091    4.2663826  
C   -0.1885723   -0.1578550    4.3957118  
C   -1.0476298   -0.8789867    3.6398520  
O   -2.0015663   -1.6796266    4.1448486  
C   -1.0022026   -0.8410666    2.1483229  
O   -1.8147390   -1.5232959    1.5241687  
C    0.0000000    0.0000000    1.4700000  
H    2.3054237    1.9346118    0.9892483  
H   -0.2170646   -0.1815267    5.4753125  
H   -2.4487139   -2.0549881    3.3649027  
H    3.2048689    2.6911772    3.3971983  
