62

C   -0.7874005    0.6277176   -9.1160936  
C    0.2008440   -0.2030902   -9.5910656  
C    0.1383202   -0.1527042  -11.0151981  
C   -0.9163364    0.7330438  -11.3544262  
N   -1.4584576    1.1876139  -10.1779542  
C   -1.2640049    1.0235964  -12.6771110  
C   -0.5335027    0.4090271  -13.6755349  
O   -0.8305498    0.6575394  -14.9843576  
C    0.5221702   -0.4780836  -13.3570920  
O    1.1536749   -1.0100626  -14.4623270  
C    0.8655302   -0.7653946  -12.0524543  
H    0.8821844   -0.7759331   -8.9855750  
H   -2.2183615    1.8394378  -10.1027680  
H   -2.0668368    1.6976542  -12.9422728  
H   -0.2099407    0.1352954  -15.5091154  
H    1.8529036   -1.5975155  -14.1597019  
H    1.6788822   -1.4491467  -11.8393346  
C    0.8246861   -0.7190548   -5.2242741  
C   -0.0307352   -0.0004646   -4.4215603  
C   -0.9001600    0.7278871   -5.2865486  
C   -0.5247007    0.4109452   -6.6171514  
N    0.5268045   -0.4685443   -6.5433115  
C   -1.1700221    0.9504897   -7.7339507  
C   -2.2135710    1.8256975   -7.5033123  
O   -2.8785548    2.3813522   -8.5578538  
C   -2.6026990    2.1545718   -6.1829949  
O   -3.6585227    3.0402832   -6.1189979  
C   -1.9663484    1.6228858   -5.0807725  
H    0.9974798   -0.8777499   -7.3300751  
H   -3.5595524    2.9532719   -8.1804759  
H   -3.8580191    3.2093222   -5.1931304  
H   -2.2865743    1.8936003   -4.0814492  
H    1.6246621   -1.3893562   -4.9602782  
C    3.2573670   -0.0002920   -1.5109380  
C    2.5379468   -0.0001709   -0.3591961  
C    1.1435043    0.0000332   -0.7338500  
C    1.1092609   -0.0000082   -2.2088477  
N    2.4227562    0.0001909   -2.6182613  
C   -0.0265532   -0.0002522   -2.9515663  
C   -1.3003035   -0.0002639   -2.2514981  
O   -2.3786784   -0.0004131   -2.8306429  
C   -1.2877725    0.0000312   -0.6895608  
O   -2.3539958    0.0003307   -0.0892036  
C    0.0000000    0.0000000    0.0000000  
H    2.9384091   -0.0000369    0.6389239  
H    4.3270394   -0.0004765   -1.6439446  
H    2.7280494   -0.0013406   -3.5742113  
C    0.0000000    0.0000000    1.4700000  
C    1.0662921    0.0000102    2.3034270  
C    0.4961870   -0.0000064    3.6418889  
C   -0.9663858    0.0000850    3.4240247  
N   -1.2632773    0.0000084    2.1528658  
C   -1.8985362    0.0000517    4.5177257  
C   -1.3925775   -0.0004564    5.7720543  
O   -2.1456383   -0.0005410    6.8851312  
C    0.0786232   -0.0009323    6.0245000  
O    0.4683759   -0.0012588    7.1921102  
C    1.0143166   -0.0008442    4.8859032  
H    2.1107198   -0.0000632    2.0421868  
H   -2.9622183    0.0003270    4.3293377  
H   -1.5042274   -0.0009692    7.6184419  
H    2.0724152   -0.0013148    5.1109744  
