60

C    4.7307171   -0.7003465   -7.4104126  
C    5.8385454   -0.6562241   -8.2248062  
C    5.9674610    0.6894798   -8.6798459  
C    4.9009452    1.4271534   -8.1051207  
N    4.1680873    0.5526793   -7.3416864  
C    4.7150424    2.7933190   -8.3371124  
C    5.6224846    3.4264043   -9.1641131  
O    5.4880657    4.7595797   -9.4240900  
C    6.6929563    2.7074280   -9.7471917  
O    7.5105821    3.4791193  -10.5467684  
C    6.8768097    1.3595985   -9.5189818  
H    6.4747736   -1.4914762   -8.4626314  
H    3.9041476    3.3612153   -7.9022048  
H    6.2147792    4.9972486  -10.0145700  
H    8.2070637    2.9178589  -10.9010357  
H    7.7059915    0.8354623   -9.9796519  
H    4.2965483   -1.5267930   -6.8742757  
C    2.8279729   -0.7071295   -3.3541666  
C    1.6707636   -0.0012343   -3.2725974  
C    1.5420226    0.7399976   -4.5050083  
C    2.7275726    0.4056547   -5.3170904  
N    3.4672607   -0.4755791   -4.5626514  
C    2.9773525    0.9038683   -6.5544659  
C    2.0143742    1.8314548   -7.1243708  
O    2.1493679    2.3348416   -8.2319262  
C    0.7517065    2.1998421   -6.2818940  
O   -0.0658604    2.9799880   -6.7511674  
C    0.5920511    1.5980568   -4.9604493  
H   -0.2850560    1.8581560   -4.3835995  
H    3.2676543   -1.3768500   -2.6330256  
H    4.3364880   -0.8886230   -4.8470555  
C    1.0965514    0.0001358   -0.8010306  
C    0.0000000    0.0000000    0.0000000  
C   -1.1546565    0.0001470   -0.8669508  
C   -0.6372019    0.0003520   -2.2486278  
N    0.7342867    0.0007338   -2.1395012  
C   -1.4147744    0.0001354   -3.3608712  
C   -2.8576052   -0.0001047   -3.1854454  
O   -3.6427785   -0.0002490   -4.1244896  
C   -3.4275841   -0.0000727   -1.7311660  
O   -4.6406832    0.0000333   -1.5710049  
C   -2.4891868   -0.0001090   -0.6116739  
H   -1.0150456    0.0001617   -4.3654239  
H   -2.8919122   -0.0002919    0.3920871  
H    2.1388270    0.0000663   -0.5261650  
C    0.8175213    0.6860729    2.3021913  
C    0.0000000    0.0000000    1.4700000  
C   -0.8887526   -0.7456559    2.3478473  
C   -0.4549825   -0.3816753    3.7138435  
N    0.5448156    0.4573574    3.6934124  
C   -1.0945674   -0.9182058    4.8835240  
C   -2.1210866   -1.7789155    4.6970523  
O   -2.8083856   -2.3554314    5.6976972  
C   -2.5824069   -2.1655116    3.3310774  
O   -3.5227682   -2.9541547    3.2362962  
C   -1.9100805   -1.6015804    2.1470656  
H   -0.7567140   -0.6349833    5.8697035  
H   -3.4728268   -2.9124471    5.2533954  
H   -2.2742832   -1.9066565    1.1752040  
H    1.6189533    1.3585343    2.0405121  
