60

C    3.0219418   -5.3073017   -9.0811802  
C    3.1683276   -4.7834854  -10.3447671  
C    2.8705530   -3.3913810  -10.2554641  
C    2.5466882   -3.1210709   -8.9012229  
N    2.6465278   -4.3064146   -8.2159412  
C    2.1999219   -1.8451563   -8.4467082  
C    2.1800226   -0.8234474   -9.3761660  
O    1.8486157    0.4419223   -8.9862653  
C    2.4997156   -1.0733802  -10.7319488  
O    2.4342703    0.0471272  -11.5341480  
C    2.8416362   -2.3319037  -11.1810971  
H    3.4534635   -5.3369066  -11.2230707  
H    2.4846975   -4.4233447   -7.2320104  
H    1.8955092    0.9928272   -9.7784578  
H    2.6642089   -0.2082981  -12.4327527  
H    3.0814152   -2.4929072  -12.2256366  
H    3.1542281   -6.3159553   -8.7289364  
C    2.5049803   -2.0931561   -5.9399570  
C    1.9571818   -1.6308520   -4.7865852  
C    0.8879544   -0.7344213   -5.1580690  
C    0.8574971   -0.7122318   -6.6329826  
N    1.8627387   -1.5562150   -7.0453796  
C   -0.0149282    0.0176857   -7.3731171  
C   -0.9887734    0.8362264   -6.6701578  
O   -1.8166677    1.5292762   -7.2468489  
C   -0.9745397    0.8281735   -5.1082557  
O   -1.7894805    1.5135873   -4.5054785  
C    0.0139741    0.0003876   -4.4216236  
H    2.2669048   -1.8882737   -3.7893791  
H   -0.0204611    0.0196988   -8.4542617  
H    3.3239674   -2.7807664   -6.0753927  
C    3.2798085    0.0005853   -1.4499648  
C    2.5571144    0.0005562   -2.5996554  
C    1.1637436    0.0001546   -2.2210360  
C    1.1336965   -0.0000201   -0.7459470  
N    2.4483513   -0.0001430   -0.3402717  
C    0.0000000    0.0000000    0.0000000  
C   -1.2757367   -0.0000188   -0.6964414  
O   -2.3524597   -0.0000640   -0.1142313  
C   -1.2676494   -0.0000875   -2.2584081  
O   -2.3355762   -0.0004102   -2.8557294  
C    0.0181562    0.0001757   -2.9516296  
H    2.9547357    0.0006072   -3.5989105  
H    4.3498550    0.0008609   -1.3200021  
H    2.7563627    0.0012824    0.6148063  
C    0.8400945    0.7047457    2.2710304  
C    0.0000000    0.0000000    1.4700000  
C   -0.8844236   -0.7423113    2.3369512  
C   -0.4878984   -0.4098547    3.7186280  
N    0.5629682    0.4714286    3.6095011  
C   -1.0836927   -0.9095027    4.8308716  
C   -2.1891196   -1.8367527    4.6554461  
O   -2.7906899   -2.3413415    5.5944904  
C   -2.6257283   -2.2031529    3.2011665  
O   -3.5549479   -2.9829990    3.0410059  
C   -1.9068976   -1.5999348    2.0816745  
H   -0.7774656   -0.6525820    5.8354244  
H   -2.2155208   -1.8586617    1.0779135  
H    1.6384792    1.3747609    1.9961646  
H    1.0518368    0.8833920    4.3830260  
