64

C    5.7813621   -2.3814990   -6.5411676  
C    5.3492867   -1.0781902   -6.6258064  
C    6.1237120   -0.4481346   -7.6445778  
C    7.0194511   -1.4247287   -8.1503843  
N    6.7863900   -2.5865680   -7.4572546  
C    7.9367442   -1.1536545   -9.1701306  
C    7.9498268    0.1265256   -9.6889236  
O    8.8252812    0.4453076  -10.6864041  
C    7.0641589    1.1147601   -9.1971894  
O    7.1999183    2.3403282   -9.8159741  
C    6.1591497    0.8481193   -8.1910160  
H    7.2651789   -3.4565567   -7.6051119  
H    8.6221993   -1.8935290   -9.5599254  
H    8.6703261    1.3748652  -10.8989507  
H    6.5661812    2.9499621   -9.4256819  
H    5.4933770    1.6254670   -7.8347079  
H    5.4531339   -3.1806408   -5.8988304  
C    4.0903621   -0.7060772   -4.4543997  
C    3.0267438   -0.0008951   -3.9901699  
C    2.4927470    0.7404274   -5.1082592  
C    3.3384962    0.4069150   -6.2702699  
N    4.2884150   -0.4739732   -5.8070423  
C    3.1596785    0.9054495   -7.5197468  
C    2.0610432    1.8325299   -7.7343584  
O    1.8174797    2.3361501   -8.8230938  
C    1.1527696    2.2000358   -6.5178950  
O    0.2249098    2.9797499   -6.6863672  
C    1.4446978    1.5979726   -5.2193762  
H    3.7914306    0.6477664   -8.3584352  
H    0.8109657    1.8574605   -4.3822543  
H    4.7463091   -1.3756297   -3.9221190  
C    3.3003547    0.0005277   -1.4738986  
C    2.5232816    0.0003497   -2.6090746  
C    1.1623203   -0.0001319   -2.1820102  
C    1.1711884    0.0000584   -0.7636141  
N    2.4852301   -0.0014919   -0.3662359  
C    0.0000000    0.0000000    0.0000000  
C   -1.2020383    0.0000520   -0.6806479  
O   -2.3759248    0.0003493    0.0157745  
C   -1.2314655   -0.0005115   -2.0955511  
O   -2.5054388   -0.0008040   -2.6250184  
C   -0.0764513   -0.0007274   -2.8495195  
H    2.8036266    0.0088183    0.5858662  
H   -3.0835639    0.0000346   -0.6418822  
H   -2.4360043   -0.0011529   -3.5845924  
H   -0.1304091   -0.0013423   -3.9319089  
H    4.3715553    0.0004897   -1.3667133  
C    2.5311839    2.1237619    3.0120429  
C    1.9795631    1.6616747    1.8395852  
C    0.9223175    0.7739173    2.1983588  
C    0.8753926    0.7337535    3.6154372  
N    1.8668922    1.5631002    4.0777464  
C   -0.0496243   -0.0427881    4.3197917  
C   -0.9437528   -0.7922060    3.5801400  
O   -1.8685244   -1.5680278    4.2172520  
C   -0.9124520   -0.7656372    2.1655264  
O   -1.8671164   -1.5663939    1.5732860  
C    0.0000000    0.0000000    1.4700000  
H    2.3005065    1.9304404    0.8477417  
H    2.0679347    1.7444845    5.0445261  
H   -0.0904770   -0.0778569    5.3997470  
H   -2.3849669   -2.0011402    3.5251786  
H   -1.7775064   -1.4909735    0.6183591  
H    3.3468514    2.8078103    3.1724291  
