62

C    7.2222626   -3.3807578   -1.7574014  
C    6.7688485   -2.1173124   -2.0583827  
C    7.9169411   -1.2778902   -2.1672613  
C    9.0523254   -2.0915513   -1.9207165  
N    8.5948338   -3.3620558   -1.6734558  
C   10.3588757   -1.5944948   -1.9461920  
C   10.5222567   -0.2516532   -2.2259439  
O   11.7763924    0.2856820   -2.2637614  
C    9.4018151    0.5764475   -2.4742890  
O    9.7292813    1.8905917   -2.7372213  
C    8.1125675    0.0868249   -2.4490540  
H    9.1728481   -4.1588127   -1.4758206  
H   11.2284099   -2.2093727   -1.7590107  
H   11.6659171    1.2224038   -2.4725961  
H    8.9165560    2.3811151   -2.8936408  
H    7.2740205    0.7453585   -2.6430910  
H    6.6750873   -4.2934668   -1.5945543  
C    4.2926942   -2.1403414   -1.5040813  
C    5.3604709   -1.7320208   -2.2284477  
C    4.8134481   -0.8208702   -3.2219621  
C    3.3612071   -0.7952319   -2.9446112  
N    3.0500070   -1.5667026   -1.9386405  
C    2.4521483    0.0014840   -3.7217481  
C    2.9703730    0.7393569   -4.7298756  
O    2.2390463    1.5283419   -5.5352977  
C    4.4316781    0.7349405   -5.0343914  
O    4.8335658    1.4307755   -5.9668722  
C    5.3436396   -0.0906365   -4.2228046  
H    2.8845126    1.9211527   -6.1502982  
H    6.3952201   -0.0661688   -4.4754097  
H    4.2782626   -2.8230632   -0.6694219  
C    0.0000000    0.0000000    0.0000000  
C    1.0662923   -0.0000101   -0.8334270  
C    0.4961873    0.0000065   -2.1718887  
C   -0.9663854   -0.0000848   -1.9540250  
N   -1.2632773   -0.0000083   -0.6828660  
C   -1.8985359   -0.0000514   -3.0477261  
C   -1.3925770    0.0004566   -4.3020547  
O   -2.1456378    0.0005414   -5.4151314  
C    0.0786240    0.0009326   -4.5545000  
O    0.4683767    0.0012591   -5.7221100  
C    1.0143171    0.0008444   -3.4159031  
H    2.1107200    0.0000633   -0.5721865  
H   -2.9622181   -0.0003268   -2.8593381  
H   -1.5042265    0.0009697   -6.1484419  
C    3.3041272   -0.0001177    3.0120429  
C    2.5845372    0.0004780    1.8395852  
C    1.2040006    0.0000008    2.1983588  
C    1.1422373   -0.0006037    3.6154372  
N    2.4348639   -0.0026109    4.0777464  
C   -0.0655181   -0.0008797    4.3197917  
C   -1.2321768   -0.0002324    3.5801400  
O   -2.4392816   -0.0001146    4.2172520  
C   -1.1911209    0.0000007    2.1655264  
O   -2.4371527    0.0002320    1.5732860  
C    0.0000000    0.0000000    1.4700000  
H    3.0031534    0.0000661    0.8477417  
H    2.7054629    0.0071099    5.0445261  
H   -0.1193549   -0.0014844    5.3997470  
H   -3.1132988    0.0000648    3.5251786  
H   -2.3200282    0.0004071    0.6183591  
H    4.3686625   -0.0004071    3.1724291  
