64

C    1.1188642    0.0008260   -0.8003807  
C    0.0000000    0.0000000    0.0000000  
C   -1.1323859    0.0008858   -0.8673528  
C   -0.6382662    0.0019654   -2.1969279  
N    0.7324018    0.0038503   -2.1202241  
C   -1.4770916    0.0027262   -3.3154807  
C   -2.8395477    0.0020839   -3.0876858  
O   -3.7039197    0.0024290   -4.1440346  
C   -3.3517868    0.0013808   -1.7684330  
O   -4.7300496    0.0012196   -1.7073117  
C   -2.5248539    0.0009033   -0.6644820  
H   -1.1067568    0.0036942   -4.3313810  
H   -4.5940032    0.0021660   -3.7685128  
H   -4.9934601    0.0007085   -0.7819912  
H   -2.9462574    0.0005498    0.3339654  
H    2.1619895    0.0009428   -0.5342069  
C    2.8254844   -0.7379357   -3.3478732  
C    3.4453611   -0.5353376   -4.5389995  
C    2.6233064    0.3835518   -5.2904673  
C    1.4654083    0.7019891   -4.4333442  
N    1.6478435   -0.0100047   -3.2703000  
C    0.4564042    1.5390767   -4.7839138  
C    0.5146164    2.1682244   -6.0928523  
O   -0.3455921    2.9374835   -6.5009978  
C    1.7315981    1.8451780   -7.0171907  
O    1.7913080    2.3686871   -8.1215610  
C    2.7573620    0.9271184   -6.5284908  
H   -0.3838700    1.7592632   -4.1402006  
H    3.5968388    0.7088361   -7.1745215  
H    3.1297830   -1.3579433   -2.5202967  
C    5.0970189   -2.4426076   -4.7410764  
C    4.7127109   -1.1419087   -4.9711995  
C    5.7706560   -0.5171657   -5.6958013  
C    6.7822243   -1.4941640   -5.8805460  
N    6.3419261   -2.6511055   -5.2870468  
C    7.9763768   -1.2277864   -6.5571772  
C    8.1524373    0.0480224   -7.0566690  
O    9.2997733    0.3621154   -7.7259811  
C    7.1548862    1.0365853   -6.8821610  
O    7.4791723    2.2574656   -7.4368090  
C    5.9766961    0.7745787   -6.2145188  
H    6.8440424   -3.5202628   -5.2664371  
H    8.7513289   -1.9679936   -6.7012090  
H    9.2194072    1.2891819   -7.9855062  
H    6.7532568    2.8676620   -7.2746034  
H    5.2310238    1.5520597   -6.0963014  
H    4.5822217   -3.2377007   -4.2294415  
C    2.5285572    2.1210227    2.9438989  
C    1.9331703    1.6216660    4.0790748  
C    0.8903039    0.7472258    3.6520102  
C    0.8972198    0.7527806    2.2336141  
N    1.9028376    1.5986179    1.8362361  
C    0.0000000    0.0000000    1.4700000  
C   -0.9207814   -0.7726952    2.1506477  
O   -1.8198395   -1.5274828    1.4542253  
C   -0.9436862   -0.7911793    3.5655508  
O   -1.9197945   -1.6098497    4.0950179  
C   -0.0590329   -0.0485852    4.3195194  
H    2.2150357    1.8593692    5.0905303  
H    2.1533708    1.7953814    0.8841339  
H   -2.3621246   -1.9821033    2.1118817  
H   -1.8668290   -1.5649508    5.0545920  
H   -0.1007624   -0.0827977    5.4019087  
H    3.3491200    2.8096064    2.8367138  
