62

C   -5.9510652   -0.7101995   -6.3667685  
C   -6.3046221   -0.4598001   -7.6724360  
C   -7.4038608    0.4485899   -7.6392491  
C   -7.6789744    0.7193611   -6.2743610  
N   -6.7798109   -0.0017024   -5.5285796  
C   -8.7034156    1.5784366   -5.8653383  
C   -9.4637909    2.1752740   -6.8521475  
O  -10.4766639    3.0231855   -6.5084222  
C   -9.2049271    1.9173677   -8.2193682  
O  -10.0491613    2.5869995   -9.0808810  
C   -8.1946289    1.0697705   -8.6235986  
H   -5.8294864   -0.8810105   -8.5418152  
H   -8.9182743    1.7888448   -4.8267021  
H  -10.8734570    3.3242757   -7.3361690  
H   -9.8069750    2.3578835   -9.9833528  
H   -8.0201491    0.8914103   -9.6782190  
H   -5.1742211   -1.3392405   -5.9670455  
C   -3.3460096   -0.0004265   -2.7913646  
C   -4.0050885   -0.0007131   -1.6040609  
C   -5.4169936   -0.0010567   -1.9063186  
C   -5.5272431   -0.0009754   -3.3775888  
N   -4.2366045   -0.0001895   -3.8541818  
C   -6.6998410   -0.0016249   -4.0607563  
C   -7.9358014   -0.0022339   -3.2959439  
O   -9.0426019   -0.0027798   -3.8187170  
C   -7.8427529   -0.0020786   -1.7367304  
O   -8.8766028   -0.0022805   -1.0821970  
C   -6.5211391   -0.0016359   -1.1144848  
H   -3.5536954   -0.0005045   -0.6279167  
H   -6.4653747   -0.0017365   -0.0343859  
H   -3.9810062   -0.0015046   -4.8246018  
C    0.0000000    0.0000000    0.0000000  
C    1.0662919   -0.0000103   -0.8334269  
C    0.4961869    0.0000064   -2.1718889  
C   -0.9663859   -0.0000850   -1.9540246  
N   -1.2632774   -0.0000084   -0.6828657  
C   -1.8985363   -0.0000518   -3.0477257  
C   -1.3925778    0.0004564   -4.3020545  
O   -2.1456384    0.0005409   -5.4151311  
C    0.0786230    0.0009323   -4.5544998  
O    0.4683758    0.0012588   -5.7221098  
C    1.0143164    0.0008442   -3.4159030  
H    2.1107195    0.0000633   -0.5721867  
H   -1.5042275    0.0009691   -6.1484418  
H    2.0724152    0.0013148   -3.6409744  
C    0.0000000    0.0000000    1.4700000  
C    1.0521667    0.0011902    2.3562342  
C    0.4917218    0.0011957    3.6679131  
C   -0.9187428   -0.0003148    3.5178682  
N   -1.1833171    0.0009411    2.1707914  
C   -1.7951701   -0.0010350    4.6072090  
C   -1.2375837   -0.0005224    5.8710424  
O   -2.0474215   -0.0015360    6.9697579  
C    0.1673580    0.0013566    6.0411963  
O    0.5673524    0.0020687    7.3615553  
C    1.0325770    0.0023412    4.9669890  
H    2.0953057    0.0030649    2.0900562  
H   -2.0989778   -0.0102372    1.7591824  
H   -2.8710934   -0.0020419    4.4995513  
H   -1.4634884   -0.0006497    7.7393593  
H    1.5290710    0.0033153    7.3880045  
H    2.1042148    0.0039609    5.1284455  
