66

C    2.3021906   -2.1255950   -5.9826735  
C    1.8095068   -1.6629741   -4.7844620  
C    0.7354734   -0.7756720   -5.0906430  
C    0.6180409   -0.7363233   -6.5036494  
N    1.5855135   -1.5656964   -7.0142914  
C   -0.3411042    0.0395985   -7.1615057  
C   -1.1974964    0.7892231   -6.3786691  
O   -2.1530487    1.5644633   -6.9693777  
C   -1.0957952    0.7634642   -4.9673539  
O   -2.0200012    1.5643295   -4.3287603  
C   -0.1496416   -0.0015611   -4.3176956  
H    2.1795065   -1.9311006   -3.8096787  
H    1.7382194   -1.7475808   -7.9897805  
H   -2.6345083    1.9978454   -6.2526894  
H   -1.8829375    1.4894723   -3.3794379  
H    3.1090430   -2.8095403   -6.1830925  
C    3.3003542    0.0005277   -1.4738988  
C    2.5232812    0.0003500   -2.6090746  
C    1.1623199   -0.0001317   -2.1820102  
C    1.1711883    0.0000584   -0.7636139  
N    2.4852300   -0.0014919   -0.3662359  
C    0.0000000    0.0000000    0.0000000  
C   -1.2020384    0.0000521   -0.6806476  
O   -2.3759249    0.0003494    0.0157746  
C   -1.2314658   -0.0005112   -2.0955510  
O   -2.5054393   -0.0008037   -2.6250177  
C   -0.0764517   -0.0007271   -2.8495192  
H    2.8919953   -0.0005617   -3.6205301  
H    2.8036265    0.0088183    0.5858663  
H   -3.0835641    0.0000349   -0.6418814  
H   -2.4360049   -0.0011526   -3.5845918  
H    4.3715550    0.0004897   -1.3667140  
C   -0.0387457   -3.1161343  -10.3142171  
C   -0.0599777   -2.4454152   -9.1133207  
C   -0.3272564   -1.0752685   -9.4063392  
C   -0.4611903   -0.9692363  -10.8144397  
N   -0.2783451   -2.2262772  -11.3350477  
C   -0.7293124    0.2418443  -11.4595617  
C   -0.8649965    1.3663180  -10.6687860  
O   -1.1275118    2.5745475  -11.2469560  
C   -0.7344591    1.2808081   -9.2622066  
O   -0.8962188    2.4881643   -8.6145425  
C   -0.4696858    0.0864276   -8.6251227  
H    0.0988560   -2.8889149   -8.1452956  
H   -0.3261193   -2.4634815  -12.3094363  
H   -0.8324007    0.3293361  -12.5323710  
H   -1.1825522    3.2157927  -10.5265124  
H   -0.7928096    2.3424467   -7.6691978  
H    0.1297711   -4.1586208  -10.5234621  
C    2.5311839    2.1237619    3.0120429  
C    1.9795631    1.6616747    1.8395852  
C    0.9223175    0.7739173    2.1983588  
C    0.8753926    0.7337535    3.6154372  
N    1.8668922    1.5631002    4.0777464  
C   -0.0496243   -0.0427881    4.3197917  
C   -0.9437528   -0.7922060    3.5801400  
O   -1.8685244   -1.5680278    4.2172520  
C   -0.9124520   -0.7656372    2.1655264  
O   -1.8671164   -1.5663939    1.5732860  
C    0.0000000    0.0000000    1.4700000  
H    2.3005065    1.9304404    0.8477417  
H    2.0679347    1.7444845    5.0445261  
H   -0.0904770   -0.0778569    5.3997470  
H   -2.3849669   -2.0011402    3.5251786  
H   -1.7775064   -1.4909735    0.6183591  
H    3.3468514    2.8078103    3.1724291  
