62

C    6.0766605   -3.1069030   -9.1111009  
C    6.3643009   -2.3064556  -10.1923110  
C    5.9683738   -0.9806321   -9.8458518  
C    5.4418062   -1.0339862   -8.5298712  
N    5.5206661   -2.3399486   -8.1141060  
C    4.9538845    0.0945548   -7.8642006  
C    4.9986204    1.2989493   -8.5391905  
O    4.5355797    2.4323233   -7.9358068  
C    5.5199756    1.3723608   -9.8528177  
O    5.4955928    2.6427277  -10.3903266  
C    6.0012443    0.2593858  -10.5102307  
H    6.8042403   -2.6376289  -11.1173898  
H    5.2307669   -2.6814673   -7.2156049  
H    4.6573056    3.1493794   -8.5716360  
H    5.8647303    2.6045481  -11.2779543  
H    6.3944462    0.3464600  -11.5163564  
H    6.2227945   -4.1644777   -8.9727595  
C    6.2078070   -2.1204374   -4.1884497  
C    6.1274188   -1.6213462   -5.4678683  
C    5.0008410   -0.7471989   -5.5037681  
C    4.4282842   -0.7526502   -4.2060484  
N    5.1843804   -1.5981474   -3.4326986  
C    3.2973506   -0.0000934   -3.8752374  
C    2.7343299    0.7722679   -4.8725555  
O    1.6291399    1.5268263   -4.6038367  
C    3.2908609    0.7906440   -6.1736139  
O    2.6156195    1.6089739   -7.0555033  
C    4.4063831    0.0482704   -6.5007499  
H    6.7975949   -1.8590340   -6.2761773  
H    5.0245803   -1.7947652   -2.4612117  
H    1.4023566    1.9812319   -5.4256330  
H    3.0556030    1.5640232   -7.9099019  
H    6.9133535   -2.8087589   -3.7555795  
C    3.3321174    0.0004714   -1.3379332  
C    2.6974186    0.0000115   -2.5332308  
C    1.2800441   -0.0002119   -2.2052838  
C    1.2395035    0.0000643   -0.7271293  
N    2.4394063    0.0005458   -0.2131034  
C    0.0000000    0.0000000    0.0000000  
C   -1.1468701    0.0000634   -0.7169542  
O   -2.3742201    0.0000072   -0.1695492  
C   -1.1388767    0.0001606   -2.2096354  
O   -2.2206229    0.0000903   -2.7970413  
C    0.1454526    0.0001815   -2.9324239  
H   -2.9844344    0.0001023   -0.9290168  
H    0.1083580    0.0003680   -4.0135594  
H    4.3940040    0.0007617   -1.1498630  
C    0.8175213    0.6860729    2.3021913  
C    0.0000000    0.0000000    1.4700000  
C   -0.8887526   -0.7456559    2.3478473  
C   -0.4549825   -0.3816753    3.7138435  
N    0.5448156    0.4573574    3.6934124  
C   -1.0945674   -0.9182058    4.8835240  
C   -2.1210866   -1.7789155    4.6970523  
O   -2.8083856   -2.3554314    5.6976972  
C   -2.5824069   -2.1655116    3.3310774  
O   -3.5227682   -2.9541547    3.2362962  
C   -1.9100805   -1.6015804    2.1470656  
H   -0.7567140   -0.6349833    5.8697035  
H   -3.4728268   -2.9124471    5.2533954  
H   -2.2742832   -1.9066565    1.1752040  
H    1.6189533    1.3585343    2.0405121  
