62

C    4.4092336   -2.1209280   -5.7112882  
C    3.1765067   -1.6591994   -6.1108596  
C    3.3989261   -0.7722460   -7.2055939  
C    4.7987470   -0.7321807   -7.4310308  
N    5.3825434   -1.5608090   -6.5051931  
C    5.3806785    0.0436400   -8.4381280  
C    4.5340522    0.7924245   -9.2323094  
O    5.0493098    1.5675286  -10.2306759  
C    3.1347034    0.7659423   -9.0226934  
O    2.4266662    1.5660137   -9.8955692  
C    2.5599431    0.0010163   -8.0291811  
H    2.2331166   -1.9276813   -5.6670968  
H    6.3669748   -1.7420863   -6.4276463  
H    6.4468394    0.0786302   -8.6149887  
H    4.2975668    2.0002869  -10.6559611  
H    1.4906899    1.4907028   -9.6860931  
H    4.6713217   -2.8043753   -4.9218779  
C    0.0139742    0.0003878   -4.4216236  
C    1.0657034    0.0004481   -5.2806583  
C    0.5180456    0.0007119   -6.6166620  
C   -0.9494782    0.0008303   -6.4644642  
N   -1.1898343    0.0002247   -5.1097987  
C   -1.8296145    0.0014750   -7.4974525  
C   -1.2959120    0.0018674   -8.8493762  
O   -2.0065327    0.0023914   -9.8460291  
C    0.2551158    0.0014984   -9.0340855  
O    0.7160979    0.0015168  -10.1675560  
C    1.1016987    0.0010820   -7.8436448  
H    2.1063859    0.0001397   -5.0093769  
H   -2.9025137    0.0016806   -7.3640447  
H   -2.0996068    0.0017001   -4.6862910  
C    3.2798085    0.0005856   -1.4499646  
C    2.5571146    0.0005565   -2.5996553  
C    1.1637435    0.0001548   -2.2210360  
C    1.1336964   -0.0000200   -0.7459470  
N    2.4483515   -0.0001429   -0.3402716  
C    0.0000000    0.0000000    0.0000000  
C   -1.2757368   -0.0000187   -0.6964415  
O   -2.3524594   -0.0000640   -0.1142314  
C   -1.2676495   -0.0000873   -2.2584081  
O   -2.3355761   -0.0004101   -2.8557295  
C    0.0181563    0.0001759   -2.9516296  
H    2.9547358    0.0006075   -3.5989104  
H    4.3498547    0.0008611   -1.3200019  
H    2.7563628    0.0012823    0.6148064  
C    2.5311839    2.1237619    3.0120429  
C    1.9795631    1.6616747    1.8395852  
C    0.9223175    0.7739173    2.1983588  
C    0.8753926    0.7337535    3.6154372  
N    1.8668922    1.5631002    4.0777464  
C   -0.0496243   -0.0427881    4.3197917  
C   -0.9437528   -0.7922060    3.5801400  
O   -1.8685244   -1.5680278    4.2172520  
C   -0.9124520   -0.7656372    2.1655264  
O   -1.8671164   -1.5663939    1.5732860  
C    0.0000000    0.0000000    1.4700000  
H    2.3005065    1.9304404    0.8477417  
H    2.0679347    1.7444845    5.0445261  
H   -0.0904770   -0.0778569    5.3997470  
H   -2.3849669   -2.0011402    3.5251786  
H   -1.7775064   -1.4909735    0.6183591  
H    3.3468514    2.8078103    3.1724291  
