62

C    3.6218739   -3.0308845   -6.1246583  
C    4.3967695   -3.6808785   -5.1921822  
C    5.3388734   -4.4730089   -5.9129933  
C    5.0886950   -4.2638744   -7.2934282  
N    4.0386642   -3.3844641   -7.3866471  
C    5.8316111   -4.8884680   -8.2997825  
C    6.8457480   -5.7394523   -7.9054117  
O    7.6024491   -6.3751003   -8.8468822  
C    7.1104307   -5.9612569   -6.5329821  
O    8.1520639   -6.8359095   -6.3020566  
C    6.3777538   -5.3456282   -5.5396488  
H    4.2947542   -3.5955430   -4.1238640  
H    3.6440791   -3.0404525   -8.2433504  
H    5.6458428   -4.7333847   -9.3536526  
H    8.2433950   -6.9131928   -8.3642747  
H    8.2648714   -6.9302823   -5.3512822  
H    6.6035871   -5.5351584   -4.4967892  
C    2.5049800   -2.0931560   -5.9399570  
C    1.9571814   -1.6308517   -4.7865848  
C    0.8879542   -0.7344211   -5.1580690  
C    0.8574967   -0.7122313   -6.6329831  
N    1.8627384   -1.5562146   -7.0453796  
C   -0.0149283    0.0176861   -7.3731166  
C   -0.9887734    0.8362266   -6.6701573  
O   -1.8166679    1.5292766   -7.2468484  
C   -0.9745397    0.8281735   -5.1082553  
O   -1.7894805    1.5135873   -4.5054780  
C    0.0139741    0.0003876   -4.4216236  
H    2.2669048   -1.8882737   -3.7893794  
H   -0.0204614    0.0196995   -8.4542617  
H    2.0929214   -1.7534646   -8.0020176  
C    3.2798085    0.0005853   -1.4499648  
C    2.5571144    0.0005562   -2.5996554  
C    1.1637436    0.0001546   -2.2210360  
C    1.1336965   -0.0000201   -0.7459470  
N    2.4483513   -0.0001430   -0.3402717  
C    0.0000000    0.0000000    0.0000000  
C   -1.2757367   -0.0000188   -0.6964414  
O   -2.3524597   -0.0000640   -0.1142313  
C   -1.2676494   -0.0000875   -2.2584081  
O   -2.3355762   -0.0004102   -2.8557294  
C    0.0181562    0.0001757   -2.9516296  
H    2.9547357    0.0006072   -3.5989105  
H    4.3498550    0.0008609   -1.3200021  
H    2.7563627    0.0012824    0.6148063  
C    2.5285572    2.1210227    2.9438989  
C    1.9331703    1.6216660    4.0790748  
C    0.8903039    0.7472258    3.6520102  
C    0.8972198    0.7527806    2.2336141  
N    1.9028376    1.5986179    1.8362361  
C    0.0000000    0.0000000    1.4700000  
C   -0.9207814   -0.7726952    2.1506477  
O   -1.8198395   -1.5274828    1.4542253  
C   -0.9436862   -0.7911793    3.5655508  
O   -1.9197945   -1.6098497    4.0950179  
C   -0.0590329   -0.0485852    4.3195194  
H    2.2150357    1.8593692    5.0905303  
H    2.1533708    1.7953814    0.8841339  
H   -2.3621246   -1.9821033    2.1118817  
H   -1.8668290   -1.5649508    5.0545920  
H   -0.1007624   -0.0827977    5.4019087  
H    3.3491200    2.8096064    2.8367138  
