62

C    3.3186467   -3.2439576   -7.7718069  
C    4.1227508   -3.1979570   -8.8870504  
C    4.1037232   -1.8519804   -9.3588377  
C    3.2641891   -1.1160832   -8.4838717  
N    2.8024917   -1.9918333   -7.5328130  
C    3.0140320    0.2498231   -8.6466925  
C    3.6227047    0.8844710   -9.7120170  
O    3.4129960    2.2174726   -9.9173019  
C    4.4634110    0.1672782  -10.5961356  
O    4.9948296    0.9403850  -11.6076905  
C    4.7104299   -1.1802946  -10.4362741  
H    4.6564048   -4.0321655   -9.3093098  
H    2.3750705    0.8163693   -7.9834005  
H    3.9228918    2.4563816  -10.7022821  
H    5.5496637    0.3802818  -12.1590949  
H    5.3588182   -1.7030478  -11.1296708  
H    3.0713247   -4.0711727   -7.1287628  
C    1.9999919   -2.1070891   -5.1447771  
C    1.9105667   -1.6426495   -6.4177158  
C    0.7784253   -0.7475271   -6.4606980  
C    0.2115584   -0.7283875   -5.0986831  
N    0.9973788   -1.5733446   -4.3494007  
C   -0.8712826    0.0001710   -4.7267111  
C   -1.5219796    0.8200164   -5.7351665  
O   -2.5037635    1.5119153   -5.4992068  
C   -0.9387698    0.8148045   -7.1841818  
O   -1.4783589    1.5008668   -8.0417492  
C    0.2330299   -0.0112901   -7.4640108  
H    0.6307995   -0.0091668   -8.4697438  
H    2.7138544   -2.7945381   -4.7208631  
H    0.8643845   -1.7702171   -3.3744133  
C    1.0965514    0.0001359   -0.8010305  
C    0.0000000    0.0000000    0.0000000  
C   -1.1546563    0.0001470   -0.8669513  
C   -0.6372014    0.0003519   -2.2486282  
N    0.7342871    0.0007337   -2.1395014  
C   -1.4147739    0.0001352   -3.3608717  
C   -2.8576049   -0.0001048   -3.1854462  
O   -3.6427779   -0.0002494   -4.1244907  
C   -3.4275840   -0.0000725   -1.7311666  
O   -4.6406831    0.0000333   -1.5710060  
C   -2.4891867   -0.0001091   -0.6116744  
H   -2.8919122   -0.0002918    0.3920866  
H    2.1388272    0.0000663   -0.5261648  
H    1.3735872   -0.0006099   -2.9130262  
C    0.8576279    0.7185626    2.2703808  
C    0.0000000    0.0000000    1.4700000  
C   -0.8668858   -0.7285659    2.3373528  
C   -0.4876752   -0.4117774    3.6669281  
N    0.5635254    0.4678311    3.5902241  
C   -1.1297612   -0.9515493    4.7854808  
C   -2.1738724   -1.8268314    4.5576857  
O   -2.8357962   -2.3827064    5.6140350  
C   -2.5667212   -2.1555554    3.2384331  
O   -3.6226318   -3.0413663    3.1773122  
C   -1.9335634   -1.6236449    2.1344818  
H    1.0363952    0.8769718    4.3757045  
H   -0.8454472   -0.7142436    5.8013813  
H   -3.5178062   -2.9546422    5.2385129  
H   -3.8247440   -3.2102924    2.2519915  
H   -2.2566033   -1.8942483    1.1360343  
H    1.6567807    1.3889844    2.0042067  
