64

C    0.6675602   -0.7200185   -5.1594012  
C   -0.1496422   -0.0015612   -4.3176963  
C   -1.0591324    0.7259468   -5.1412004  
C   -0.7463753    0.4086513   -6.4878383  
N    0.3079383   -0.4702277   -6.4630982  
C   -1.4437235    0.9473696   -7.5733229  
C   -2.4757927    1.8220995   -7.2942919  
O   -3.1898678    2.3769432   -8.3166715  
C   -2.8026933    2.1513156   -5.9572920  
O   -3.8548527    3.0364720   -5.8441467  
C   -2.1149948    1.6204449   -4.8859503  
H    0.7413911   -0.8795054   -7.2709296  
H   -3.8527236    2.9486470   -7.9079638  
H   -4.0107585    3.2057916   -4.9100013  
H   -2.3881059    1.8914039   -3.8728020  
H    1.4794299   -1.3897675   -4.9329890  
C    3.3003543    0.0005271   -1.4738993  
C    2.5232810    0.0003494   -2.6090758  
C    1.1623195   -0.0001318   -2.1820108  
C    1.1711880    0.0000584   -0.7636147  
N    2.4852301   -0.0014924   -0.3662365  
C    0.0000000    0.0000000    0.0000000  
C   -1.2020384    0.0000521   -0.6806477  
O   -2.3759249    0.0003496    0.0157747  
C   -1.2314662   -0.0005111   -2.0955508  
O   -2.5054396   -0.0008035   -2.6250178  
C   -0.0764520   -0.0007272   -2.8495197  
H    2.8919946   -0.0005619   -3.6205309  
H    2.8036268    0.0088178    0.5858657  
H   -3.0835641    0.0000350   -0.6418819  
H   -2.4360055   -0.0011524   -3.5845921  
H    4.3715548    0.0004892   -1.3667144  
C   -0.7827195   -0.6199790   -9.4476167  
C   -1.1262280    0.6242258   -8.9717770  
C   -1.1099352    1.5150739  -10.0856549  
C   -0.7467202    0.7511695  -11.2242733  
N   -0.5534028   -0.5404704  -10.8012936  
C   -0.6317304    1.3064450  -12.5022544  
C   -0.8883697    2.6574282  -12.6332449  
O   -0.7910939    3.2506907  -13.8586396  
C   -1.2517419    3.4364411  -11.5090050  
O   -1.4743178    4.7659749  -11.8025074  
C   -1.3651104    2.8893686  -10.2479001  
H   -0.2979695   -1.3120714  -11.3906723  
H   -0.3551626    0.7296778  -13.3740641  
H   -1.0075679    4.1831456  -13.7285173  
H   -1.7146504    5.2208180  -10.9895120  
H   -1.6450682    3.5111889   -9.4056166  
H   -0.6817503   -1.5575449   -8.9282571  
C    0.0000000    0.0000000    1.4700000  
C    1.0541688    0.0001722    2.3260392  
C    0.5103138    0.0000454    3.6635956  
C   -0.9576371   -0.0002459    3.5155732  
N   -1.2018458    0.0001392    2.1615969  
C   -1.8348311   -0.0008317    4.5510609  
C   -1.2972847   -0.0009736    5.9014604  
O   -2.0050672   -0.0014265    6.9001319  
C    0.2542623   -0.0004184    6.0817573  
O    0.7184670   -0.0002256    7.2139121  
C    1.0974552   -0.0000873    4.8889129  
H    2.0940752    0.0005483    2.0517982  
H   -2.9081052   -0.0011668    4.4207061  
H    2.1707277    0.0000911    5.0223670  
H   -2.1128194   -0.0014912    1.7406791  
