60

C    9.6542310   -0.7217178   -2.8634320  
C    9.0099430   -0.0039230   -3.8443149  
C   10.0111580    0.7234310   -4.5536282  
C   11.2577948    0.4067285   -3.9556975  
N   11.0048581   -0.4716639   -2.9314577  
C   12.4687045    0.9454791   -4.4009342  
C   12.4202908    1.8196323   -5.4694332  
O   13.5732298    2.3744796   -5.9447114  
C   11.1861293    2.1482518   -6.0790823  
O   11.3040031    3.0328772   -7.1311700  
C    9.9911200    1.6173489   -5.6401976  
H   11.6993585   -0.8804704   -2.3326852  
H   13.4221510    0.7082327   -3.9494282  
H   13.3181147    2.9457368   -6.6808131  
H   10.4259786    3.2018136   -7.4863268  
H    9.0614107    1.8878440   -6.1269745  
H    9.2570440   -1.3911606   -2.1197601  
C    5.5795936   -0.0015221   -1.1027758  
C    4.5679461   -0.0016854   -2.0086701  
C    5.1756903   -0.0023284   -3.3184346  
C    6.6347916   -0.0025573   -3.0997720  
N    6.8134023   -0.0016468   -1.7355920  
C    7.5609148   -0.0035412   -4.0917392  
C    7.0891366   -0.0042082   -5.4664974  
O    7.8442695   -0.0050456   -6.4298633  
C    5.5480930   -0.0037283   -5.7214287  
O    5.1390419   -0.0039759   -6.8746586  
C    4.6483398   -0.0029381   -4.5706482  
H    3.5827546   -0.0028151   -4.7557203  
H    5.5275967   -0.0011044   -0.0261209  
H    7.7030101   -0.0031108   -1.2712192  
C    3.1301149   -0.0010311   -1.7028252  
C    2.5367768   -0.0002767   -0.4864665  
C    1.1089904    0.0001028   -0.7656183  
C    1.0177872   -0.0004148   -2.2415132  
N    2.1993578   -0.0011611   -2.7963820  
C   -0.2459209   -0.0002877   -2.9257118  
C   -1.3675319   -0.0000605   -2.1698524  
O   -2.6129313    0.0000867   -2.6748490  
C   -1.3083584    0.0000910   -0.6783232  
O   -2.3693261    0.0004206   -0.0541692  
C    0.0000000    0.0000000    0.0000000  
H    3.0096017   -0.0001007    0.4807525  
H   -0.2829630   -0.0004687   -4.0053125  
H   -3.1967441    0.0002094   -1.8949034  
C    0.8400945    0.7047457    2.2710304  
C    0.0000000    0.0000000    1.4700000  
C   -0.8844236   -0.7423113    2.3369512  
C   -0.4878984   -0.4098547    3.7186280  
N    0.5629682    0.4714286    3.6095011  
C   -1.0836927   -0.9095027    4.8308716  
C   -2.1891196   -1.8367527    4.6554461  
O   -2.7906899   -2.3413415    5.5944904  
C   -2.6257283   -2.2031529    3.2011665  
O   -3.5549479   -2.9829990    3.0410059  
C   -1.9068976   -1.5999348    2.0816745  
H   -0.7774656   -0.6525820    5.8354244  
H   -2.2155208   -1.8586617    1.0779135  
H    1.6384792    1.3747609    1.9961646  
H    1.0518368    0.8833920    4.3830260  
