60

C    7.1971784    0.5319773   -4.8169681  
C    7.6987044   -0.3187782   -3.8592865  
C    9.1162462   -0.3341533   -4.0172112  
C    9.4242956    0.5338852   -5.0958865  
N    8.2362319    1.0416154   -5.5599251  
C   10.7326307    0.7627913   -5.5325219  
C   11.7485214    0.1036410   -4.8679424  
O   13.0445051    0.2912446   -5.2529671  
C   11.4611939   -0.7667157   -3.7896384  
O   12.5806965   -1.3483928   -3.2313271  
C   10.1707060   -0.9932199   -3.3585232  
H    7.1146057   -0.8623727   -3.1365650  
H    8.1402638    1.6953957   -6.3157970  
H   10.9740268    1.4230487   -6.3541005  
H   13.5851662   -0.2539647   -4.6667098  
H   12.2989890   -1.9205222   -2.5109705  
H    9.9814409   -1.6655489   -2.5298915  
C    3.4828009   -0.6865220   -2.8918306  
C    2.5562217   -0.0001543   -3.6003001  
C    3.3178344    0.7455286   -4.5904534  
C    4.7268475    0.3812391   -4.3286147  
N    4.8297833   -0.4579832   -3.3340797  
C    5.8087692    0.9177002   -5.1075500  
C    5.4972190    1.7786389   -6.1030679  
O    6.4055169    2.3551225   -6.9084883  
C    4.0848318    2.1655491   -6.3922451  
O    3.8748883    2.9543892   -7.3135893  
C    2.9927228    1.6016833   -5.5790544  
H    5.8827274    2.9123397   -7.5129323  
H    1.9834055    1.9069896   -5.8205007  
H    3.3218865   -1.3590951   -2.0643489  
C    0.0000000    0.0000000    0.0000000  
C    1.0541688   -0.0001719   -0.8560391  
C    0.5103141   -0.0000449   -2.1935955  
C   -0.9576367    0.0002461   -2.0455733  
N   -1.2018459   -0.0001392   -0.6915970  
C   -1.8348306    0.0008319   -3.0810611  
C   -1.2972842    0.0009739   -4.4314605  
O   -2.0050664    0.0014267   -5.4301321  
C    0.2542628    0.0004190   -4.6117571  
O    0.7184677    0.0002263   -5.7439119  
C    1.0974556    0.0000880   -3.4189127  
H    2.0940752   -0.0005479   -0.5817978  
H   -2.9081050    0.0011669   -2.9507065  
H   -2.1128195    0.0014911   -0.2706793  
C    3.1301144    0.0010313    3.1728260  
C    2.5367765    0.0002768    1.9564670  
C    1.1089900   -0.0001027    2.2356185  
C    1.0177864    0.0004150    3.7115134  
N    2.1993570    0.0011613    4.2663826  
C   -0.2459220    0.0002880    4.3957118  
C   -1.3675327    0.0000606    3.6398520  
O   -2.6129319   -0.0000866    4.1448486  
C   -1.3083589   -0.0000910    2.1483229  
O   -2.3693264   -0.0004206    1.5241687  
C    0.0000000    0.0000000    1.4700000  
H    3.0096015    0.0001008    0.9892483  
H   -0.2829642    0.0004689    5.4753125  
H   -3.1967446   -0.0002093    3.3649027  
H    4.1849273    0.0015113    3.3971983  
