62

C    6.7422309    0.8406899   -5.5784940  
C    7.4999725    0.0388949   -4.7566542  
C    8.8552724    0.1697125   -5.1816817  
C    8.8630680    1.0723645   -6.2757953  
N    7.5637039    1.4592072   -6.4917132  
C   10.0340566    1.4369907   -6.9470793  
C   11.2187950    0.8804876   -6.5056295  
O   12.3917195    1.2023982   -7.1250121  
C   11.2313929   -0.0223485   -5.4158838  
O   12.4892288   -0.4904323   -5.0963727  
C   10.0765313   -0.3827205   -4.7533486  
H    7.1221969   -0.5667229   -3.9507348  
H    7.2601870    2.1051084   -7.1978785  
H   10.0466908    2.1243085   -7.7817270  
H   13.0861296    0.7111868   -6.6670032  
H   12.4090815   -1.0934889   -4.3510520  
H   10.1173463   -1.0767646   -3.9220153  
C    3.4074950   -0.7136030   -3.0381462  
C    4.6431374   -0.4603060   -3.5872330  
C    4.4415599    0.4568806   -4.6608881  
C    3.0508758    0.7297830   -4.7196074  
N    2.4521483    0.0014840   -3.7217481  
C    2.4894774    1.5970364   -5.6616753  
C    3.3476370    2.2000118   -6.5606529  
O    2.8525259    3.0560124   -7.5014725  
C    4.7381287    1.9401043   -6.5182463  
O    5.4596253    2.6165384   -7.4801321  
C    5.2926216    1.0844421   -5.5893196  
H    5.5749967   -0.8852740   -3.2555202  
H    1.4303662    1.8091109   -5.7117644  
H    3.6093684    3.3603216   -8.0190146  
H    6.3884086    2.3855310   -7.3821505  
H    3.1318753   -1.3488828   -2.2138816  
C    0.0000000    0.0000000    0.0000000  
C    1.0662923   -0.0000101   -0.8334270  
C    0.4961873    0.0000065   -2.1718887  
C   -0.9663854   -0.0000848   -1.9540250  
N   -1.2632773   -0.0000083   -0.6828660  
C   -1.8985359   -0.0000514   -3.0477261  
C   -1.3925770    0.0004566   -4.3020547  
O   -2.1456378    0.0005414   -5.4151314  
C    0.0786240    0.0009326   -4.5545000  
O    0.4683767    0.0012591   -5.7221100  
C    1.0143171    0.0008444   -3.4159031  
H    2.1107200    0.0000633   -0.5721865  
H   -2.9622181   -0.0003268   -2.8593381  
H   -1.5042265    0.0009697   -6.1484419  
C    1.1319247   -0.0015655    2.2709268  
C    0.7969915   -0.0034943    3.5869401  
C   -0.6453339   -0.0035710    3.6542670  
C   -1.1266833   -0.0015433    2.2596025  
N    0.0000000    0.0000000    1.4700000  
C   -2.4346130   -0.0013964    1.8976294  
C   -3.4350110   -0.0031408    2.9520183  
O   -4.6384611   -0.0030974    2.7283916  
C   -2.9478959   -0.0050506    4.4361073  
O   -3.7809380   -0.0062218    5.3323774  
C   -1.5113823   -0.0053090    4.7012123  
H    1.4821238   -0.0045407    4.4159191  
H   -2.7664565   -0.0000232    0.8686553  
H   -1.1823530   -0.0068408    5.7314848  
H    2.1104316   -0.0009391    1.8188057  
