60

C    9.9830592    0.7121892   -1.1882586  
C   11.2466819    0.4619762   -0.7054328  
C   11.1035871   -0.4475267    0.3840295  
C    9.7180897   -0.7191372    0.5202344  
N    9.0661420    0.0025169   -0.4486803  
C    9.2085622   -1.5794058    1.4975307  
C   10.1142097   -2.1765958    2.3527171  
O    9.6708045   -3.0256621    3.3250811  
C   11.5003991   -1.9178653    2.2329021  
O   12.2729910   -2.5879850    3.1588540  
C   12.0037450   -1.0690910    1.2691848  
H   12.1592199    0.8840210   -1.0903315  
H    8.1536921   -1.7904587    1.6066527  
H   10.4546080   -3.3268070    3.8028155  
H   13.1951249   -2.3582535    3.0088674  
H   13.0704729   -0.8901202    1.2018138  
H    9.6631620    1.3418416   -2.0007617  
C    6.8068812    0.0035022   -4.1747019  
C    5.5278581    0.0022330   -3.7323476  
C    5.6328267    0.0014349   -2.2813200  
C    7.0869584    0.0022985   -2.0128347  
N    7.7802401    0.0035921   -3.1188854  
C    7.6138018    0.0019125   -0.6758521  
C    6.7282252    0.0011070    0.3464433  
O    7.0793813    0.0006615    1.6436439  
C    5.2547112    0.0005945    0.1078690  
O    4.5071908   -0.0002588    1.0858431  
C    4.7390840    0.0009613   -1.2727298  
H    4.6247032    0.0019722   -4.3183399  
H    6.2347357    0.0001390    2.1291604  
H    7.1567941    0.0044018   -5.1947674  
C    3.2798077    0.0005856   -1.4499661  
C    2.5571132    0.0005565   -2.5996564  
C    1.1637425    0.0001547   -2.2210366  
C    1.1336959   -0.0000200   -0.7459475  
N    2.4483509   -0.0001429   -0.3402730  
C    0.0000000    0.0000000    0.0000000  
C   -1.2757370   -0.0000187   -0.6964411  
O   -2.3524597   -0.0000640   -0.1142306  
C   -1.2676502   -0.0000874   -2.2584078  
O   -2.3355774   -0.0004102   -2.8557287  
C    0.0181551    0.0001758   -2.9516297  
H    2.9547342    0.0006074   -3.5989118  
H    0.0150776    0.0003317   -4.0331632  
H    2.7563626    0.0012823    0.6148051  
C    0.8400945    0.7047457    2.2710304  
C    0.0000000    0.0000000    1.4700000  
C   -0.8844236   -0.7423113    2.3369512  
C   -0.4878984   -0.4098547    3.7186280  
N    0.5629682    0.4714286    3.6095011  
C   -1.0836927   -0.9095027    4.8308716  
C   -2.1891196   -1.8367527    4.6554461  
O   -2.7906899   -2.3413415    5.5944904  
C   -2.6257283   -2.2031529    3.2011665  
O   -3.5549479   -2.9829990    3.0410059  
C   -1.9068976   -1.5999348    2.0816745  
H   -0.7774656   -0.6525820    5.8354244  
H   -2.2155208   -1.8586617    1.0779135  
H    1.6384792    1.3747609    1.9961646  
H    1.0518368    0.8833920    4.3830260  
