64

C    7.2375211   -0.7107686   -5.4681383  
C    8.5900903   -0.4606131   -5.4470022  
C    8.8624638    0.4464731   -6.5135881  
C    7.6269975    0.7167370   -7.1558548  
N    6.6614394   -0.0033629   -6.4972428  
C    7.5175003    1.5745467   -8.2544728  
C    8.6762632    2.1706175   -8.7128922  
O    8.6263126    3.0172855   -9.7823173  
C    9.9184680    1.9131992   -8.0856124  
O   10.9800359    2.5819479   -8.6593635  
C   10.0272755    1.0668505   -7.0019238  
H    9.2940220   -0.8811458   -4.7494166  
H    6.5788746    1.7845632   -8.7485144  
H    9.5315829    3.3180171   -9.9349983  
H   11.7802480    2.3532385   -8.1767065  
H   10.9924373    0.8888369   -6.5423016  
H    6.6383716   -1.3389445   -4.8314487  
C    3.0267439   -0.0008952   -3.9901698  
C    4.3103436   -0.0014888   -4.4333925  
C    4.2574820   -0.0026509   -5.8763199  
C    2.8276151   -0.0026567   -6.2400104  
N    2.1344504   -0.0019656   -5.0515609  
C    2.3581184   -0.0032001   -7.5133041  
C    3.3256547   -0.0040467   -8.5979280  
O    3.0027146   -0.0046430   -9.7786101  
C    4.8451155   -0.0043081   -8.2359281  
O    5.6689991   -0.0053259   -9.1406253  
C    5.2287739   -0.0033866   -6.8264399  
H    5.1934322   -0.0013335   -3.8195785  
H    1.3051091   -0.0030634   -7.7584203  
H    1.1344110   -0.0002411   -4.9681020  
C    3.3003547    0.0005275   -1.4738985  
C    2.5232817    0.0003496   -2.6090745  
C    1.1623204   -0.0001319   -2.1820101  
C    1.1711885    0.0000583   -0.7636140  
N    2.4852303   -0.0014920   -0.3662357  
C    0.0000000    0.0000000    0.0000000  
C   -1.2020382    0.0000520   -0.6806479  
O   -2.3759248    0.0003494    0.0157744  
C   -1.2314653   -0.0005113   -2.0955511  
O   -2.5054389   -0.0008038   -2.6250185  
C   -0.0764511   -0.0007273   -2.8495194  
H    2.8036269    0.0088181    0.5858664  
H   -3.0835637    0.0000348   -0.6418823  
H   -2.4360044   -0.0011528   -3.5845926  
H   -0.1304090   -0.0013422   -3.9319089  
H    4.3715553    0.0004894   -1.3667132  
C    2.5311839    2.1237619    3.0120429  
C    1.9795631    1.6616747    1.8395852  
C    0.9223175    0.7739173    2.1983588  
C    0.8753926    0.7337535    3.6154372  
N    1.8668922    1.5631002    4.0777464  
C   -0.0496243   -0.0427881    4.3197917  
C   -0.9437528   -0.7922060    3.5801400  
O   -1.8685244   -1.5680278    4.2172520  
C   -0.9124520   -0.7656372    2.1655264  
O   -1.8671164   -1.5663939    1.5732860  
C    0.0000000    0.0000000    1.4700000  
H    2.3005065    1.9304404    0.8477417  
H    2.0679347    1.7444845    5.0445261  
H   -0.0904770   -0.0778569    5.3997470  
H   -2.3849669   -2.0011402    3.5251786  
H   -1.7775064   -1.4909735    0.6183591  
H    3.3468514    2.8078103    3.1724291  
