64

C    6.1516832   -1.8371361   -7.1910585  
C    7.2367406   -2.6448620   -7.4414516  
C    7.5209968   -2.5400360   -8.8352981  
C    6.5683550   -1.6463954   -9.3882962  
N    5.7508823   -1.2396943   -8.3631384  
C    6.5481648   -1.3066943  -10.7443877  
C    7.5073191   -1.8793182  -11.5569799  
O    7.5334352   -1.5819436  -12.8888576  
C    8.4660091   -2.7735171  -11.0239330  
O    9.3539407   -3.2599271  -11.9611236  
C    8.4863550   -3.1093032   -9.6862638  
H    7.7584350   -3.2376545   -6.7097233  
H    4.9867420   -0.5944799   -8.4512789  
H    5.8246746   -0.6263622  -11.1720706  
H    8.2698066   -2.0809858  -13.2656584  
H    9.9666774   -3.8556000  -11.5191606  
H    9.2328096   -3.7972774   -9.3068234  
C    5.7490607   -2.1284787   -4.7144783  
C    4.8671665   -1.6645343   -3.7660662  
C    3.9696973   -0.7771950   -4.4307298  
C    4.3561281   -0.7391886   -5.7949708  
N    5.4407939   -1.5693624   -5.9325542  
C    3.6896893    0.0363913   -6.7484507  
C    2.6133590    0.7870476   -6.3169352  
O    1.9266962    1.5620105   -7.2062838  
C    2.2128024    0.7626344   -4.9598147  
O    1.1236811    1.5644121   -4.6872124  
C    2.8699641   -0.0020530   -4.0185824  
H    4.8709994   -1.9318255   -2.7232170  
H    3.9793404    0.0698169   -7.7896935  
H    1.2244403    1.9962425   -6.7047428  
H    0.9184894    1.4904380   -3.7501809  
H    6.5744611   -2.8128720   -4.6181474  
C    3.2573670   -0.0002921   -1.5109382  
C    2.5379468   -0.0001711   -0.3591962  
C    1.1435043    0.0000330   -0.7338498  
C    1.1092608   -0.0000085   -2.2088474  
N    2.4227562    0.0001906   -2.6182610  
C   -0.0265533   -0.0002525   -2.9515663  
C   -1.3003033   -0.0002641   -2.2514979  
O   -2.3786785   -0.0004132   -2.8306425  
C   -1.2877724    0.0000310   -0.6895608  
O   -2.3539956    0.0003306   -0.0892035  
C    0.0000000    0.0000000    0.0000000  
H    2.9384091   -0.0000370    0.6389240  
H   -0.0296290   -0.0004088   -4.0327231  
H    4.3270394   -0.0004767   -1.6439445  
C    2.5311839    2.1237619    3.0120429  
C    1.9795631    1.6616747    1.8395852  
C    0.9223175    0.7739173    2.1983588  
C    0.8753926    0.7337535    3.6154372  
N    1.8668922    1.5631002    4.0777464  
C   -0.0496243   -0.0427881    4.3197917  
C   -0.9437528   -0.7922060    3.5801400  
O   -1.8685244   -1.5680278    4.2172520  
C   -0.9124520   -0.7656372    2.1655264  
O   -1.8671164   -1.5663939    1.5732860  
C    0.0000000    0.0000000    1.4700000  
H    2.3005065    1.9304404    0.8477417  
H    2.0679347    1.7444845    5.0445261  
H   -0.0904770   -0.0778569    5.3997470  
H   -2.3849669   -2.0011402    3.5251786  
H   -1.7775064   -1.4909735    0.6183591  
H    3.3468514    2.8078103    3.1724291  
