62

C   -1.8401389    4.3496255    2.0740928  
C   -2.3974486    3.5170041    1.1314290  
C   -3.8104570    3.5594519    1.3217060  
C   -4.0583759    4.4424496    2.4037308  
N   -2.8404465    4.9030873    2.8385630  
C   -5.3460375    4.7253905    2.8691998  
C   -6.4026936    4.1058959    2.2305441  
O   -7.6808701    4.3469147    2.6442958  
C   -6.1755621    3.2214212    1.1493727  
O   -7.3301511    2.6838434    0.6190175  
C   -4.9055034    2.9416186    0.6898203  
H   -1.8525116    2.9480776    0.3976998  
H   -2.7008403    5.5546987    3.5894908  
H   -5.5416618    5.3973158    3.6934867  
H   -8.2564130    3.8222777    2.0726568  
H   -7.0883775    2.0986444   -0.1053383  
H   -0.8081511    4.5913804    2.2625464  
C   -4.7116692    2.0166749   -0.4361492  
C   -3.5469193    1.6335915   -1.0090230  
C   -3.9344200    0.7158636   -2.0692675  
C   -5.4100250    0.6590253   -1.9921697  
N   -5.8713513    1.4195637   -1.0367911  
C   -6.1879620   -0.1526689   -2.8871849  
C   -5.5220673   -0.8744596   -3.8172046  
O   -6.1202839   -1.6745699   -4.7160937  
C   -4.0333913   -0.8379427   -3.9205068  
O   -3.4938790   -1.5207102   -4.7911249  
C   -3.2578655    0.0024282   -2.9908505  
H   -2.5481476    1.9364533   -0.7448158  
H   -7.2650566   -0.1753254   -2.8080458  
H   -5.3890867   -2.0506375   -5.2386608  
C    0.0000000    0.0000000    0.0000000  
C    1.0521666   -0.0011982   -0.8862343  
C    0.4917215   -0.0011996   -2.1979132  
C   -0.9187429    0.0003215   -2.0478682  
N   -1.1833171   -0.0009323   -0.7007913  
C   -1.7951703    0.0010483   -3.1372089  
C   -1.2375841    0.0005313   -4.4010422  
O   -2.0474218    0.0015510   -5.4997578  
C    0.1673576   -0.0013585   -4.5711963  
O    0.5673520   -0.0020735   -5.8915554  
C    1.0325768   -0.0023493   -3.4969892  
H    2.0953056   -0.0030808   -0.6200564  
H   -2.0989778    0.0102529   -0.2891822  
H   -1.4634888    0.0006601   -6.2693595  
H    1.5290707   -0.0033271   -5.9180047  
H    2.1042146   -0.0039770   -3.6584456  
C    1.0965515   -0.0001358    2.2710304  
C    0.0000000    0.0000000    1.4700000  
C   -1.1546562   -0.0001469    2.3369512  
C   -0.6372014   -0.0003519    3.7186280  
N    0.7342871   -0.0007337    3.6095011  
C   -1.4147739   -0.0001353    4.8308716  
C   -2.8576048    0.0001048    4.6554461  
O   -3.6427778    0.0002493    5.5944904  
C   -3.4275839    0.0000726    3.2011665  
O   -4.6406829   -0.0000333    3.0410059  
C   -2.4891866    0.0001091    2.0816745  
H   -1.0150448   -0.0001615    5.8354244  
H   -2.8919121    0.0002919    1.0779135  
H    2.1388271   -0.0000662    1.9961646  
H    1.3735872    0.0006099    4.3830260  
