62

C    8.3700485   -0.7141406    0.7806873  
C    8.1552301    0.0035034   -0.3731356  
C    9.3521673    0.7323527   -0.6390714  
C   10.2701653    0.4166756    0.3951201  
N    9.6412348   -0.4625717    1.2412808  
C   11.5583379    0.9570017    0.4538608  
C   11.9266078    1.8317053   -0.5498566  
O   13.1729574    2.3880816   -0.5412700  
C   11.0246356    2.1593197   -1.5900169  
O   11.5398342    3.0446677   -2.5141777  
C    9.7535729    1.6268621   -1.6484524  
H   10.0500068   -0.8709568    2.0623221  
H   12.2626774    0.7205429    1.2394788  
H   13.2222574    2.9594751   -1.3186644  
H   10.8677804    3.2128450   -3.1817579  
H    9.0847413    1.8966155   -2.4573868  
H    7.7165808   -1.3844379    1.3123265  
C    5.6506104    0.0006750   -0.6678807  
C    6.9152385    0.0024406   -1.1626409  
C    6.8040776    0.0027733   -2.6022515  
C    5.3606764    0.0010736   -2.9078307  
N    4.7161325   -0.0005435   -1.6923264  
C    4.8400799    0.0012310   -4.1611001  
C    5.7629687    0.0029804   -5.2839571  
O    5.3925537    0.0031985   -6.4506159  
C    7.2958235    0.0045458   -4.9836904  
O    8.0824529    0.0057183   -5.9209602  
C    7.7361582    0.0044924   -3.5908671  
H    3.7780219    0.0000955   -4.3634394  
H    8.7991574    0.0057871   -3.3914808  
H    5.3226856   -0.0000553    0.3589367  
C    3.2573665   -0.0002920   -1.5109385  
C    2.5379463   -0.0001709   -0.3591964  
C    1.1435038    0.0000331   -0.7338500  
C    1.1092599   -0.0000083   -2.2088477  
N    2.4227553    0.0001909   -2.6182613  
C   -0.0265539   -0.0002524   -2.9515660  
C   -1.3003040   -0.0002640   -2.2514977  
O   -2.3786790   -0.0004133   -2.8306421  
C   -1.2877727    0.0000311   -0.6895603  
O   -2.3539959    0.0003306   -0.0892030  
C    0.0000000    0.0000000    0.0000000  
H    2.9384091   -0.0000367    0.6389234  
H   -0.0296303   -0.0004086   -4.0327229  
H    2.7280482   -0.0013407   -3.5742119  
C    2.5311839    2.1237619    3.0120429  
C    1.9795631    1.6616747    1.8395852  
C    0.9223175    0.7739173    2.1983588  
C    0.8753926    0.7337535    3.6154372  
N    1.8668922    1.5631002    4.0777464  
C   -0.0496243   -0.0427881    4.3197917  
C   -0.9437528   -0.7922060    3.5801400  
O   -1.8685244   -1.5680278    4.2172520  
C   -0.9124520   -0.7656372    2.1655264  
O   -1.8671164   -1.5663939    1.5732860  
C    0.0000000    0.0000000    1.4700000  
H    2.3005065    1.9304404    0.8477417  
H    2.0679347    1.7444845    5.0445261  
H   -0.0904770   -0.0778569    5.3997470  
H   -2.3849669   -2.0011402    3.5251786  
H   -1.7775064   -1.4909735    0.6183591  
H    3.3468514    2.8078103    3.1724291  
