66

C    3.3041270    0.0001178   -1.5420432  
C    2.5845372   -0.0004779   -0.3695853  
C    1.2040007   -0.0000006   -0.7283591  
C    1.1422373    0.0006039   -2.1454374  
N    2.4348636    0.0026110   -2.6077466  
C   -0.0655186    0.0008800   -2.8497915  
C   -1.2321770    0.0002326   -2.1101397  
O   -2.4392818    0.0001149   -2.7472515  
C   -1.1911209   -0.0000006   -0.6955262  
O   -2.4371522   -0.0002319   -0.1032858  
C    0.0000000    0.0000000    0.0000000  
H    3.0031535   -0.0000661    0.6222580  
H    2.7054625   -0.0071097   -3.5745263  
H   -3.1132993   -0.0000646   -2.0551781  
H   -2.3200286   -0.0004070    0.8516413  
C    6.7068652   -0.0034178    1.2828889  
C    7.7136018   -0.0021475    0.3453677  
C    7.0885452   -0.0007420   -0.9367793  
C    5.6872999   -0.0009462   -0.7166943  
N    5.4901250   -0.0045361    0.6418810  
C    4.7577214    0.0005130   -1.7610465  
C    5.2516912    0.0025160   -3.0510726  
O    4.3881527    0.0043529   -4.1081026  
C    6.6464190    0.0023764   -3.2909673  
O    6.9801786    0.0041003   -4.6296031  
C    7.5640504    0.0006643   -2.2611726  
H    8.7687023   -0.0033295    0.5592768  
H    4.5960834    0.0050496    1.0985853  
H    4.9330445    0.0052560   -4.9058225  
H    7.9393885    0.0039071   -4.7039037  
H    8.6263216    0.0004197   -2.4757855  
H    6.7604653   -0.0050603    2.3581021  
C    2.3128790   -2.1207452   -5.9853285  
C    1.8202482   -1.6594121   -4.7865983  
C    0.7463172   -0.7716432   -5.0917841  
C    0.6288895   -0.7306953   -6.5047452  
N    1.5962662   -1.5596062   -7.0163174  
C   -0.3301663    0.0460748   -7.1617300  
C   -1.1864721    0.7949192   -6.3780528  
O   -2.1419349    1.5709321   -6.9678906  
C   -1.0847738    0.7675650   -4.9667673  
O   -2.0088877    1.5678198   -4.3272755  
C   -0.1387086    0.0017020   -4.3179679  
H    2.1902172   -1.9286751   -3.8121168  
H    1.7489518   -1.7404140   -7.9920106  
H   -0.4247436    0.0817402   -8.2382912  
H   -2.6233442    2.0035649   -6.2507168  
H   -1.8718324    1.4918815   -3.3780374  
H    3.1196523   -2.8045581   -6.1865150  
C    2.5311839    2.1237619    3.0120429  
C    1.9795631    1.6616747    1.8395852  
C    0.9223175    0.7739173    2.1983588  
C    0.8753926    0.7337535    3.6154372  
N    1.8668922    1.5631002    4.0777464  
C   -0.0496243   -0.0427881    4.3197917  
C   -0.9437528   -0.7922060    3.5801400  
O   -1.8685244   -1.5680278    4.2172520  
C   -0.9124520   -0.7656372    2.1655264  
O   -1.8671164   -1.5663939    1.5732860  
C    0.0000000    0.0000000    1.4700000  
H    2.3005065    1.9304404    0.8477417  
H    2.0679347    1.7444845    5.0445261  
H   -0.0904770   -0.0778569    5.3997470  
H   -2.3849669   -2.0011402    3.5251786  
H   -1.7775064   -1.4909735    0.6183591  
H    3.3468514    2.8078103    3.1724291  
