60

C   -0.0804008    0.0206017   -8.8196987  
C    0.6918278   -0.6549834   -9.7360585  
C    0.2148675   -0.2922446  -11.0304805  
C   -0.8583355    0.6152971  -10.8393540  
N   -1.0124135    0.7818604   -9.4854214  
C   -1.5685735    1.1812895  -11.9023703  
C   -1.1882983    0.8248615  -13.1816384  
O   -1.8477187    1.3482916  -14.2559748  
C   -0.1202949   -0.0793744  -13.3926917  
O    0.1371547   -0.3345458  -14.7238370  
C    0.5806405   -0.6383359  -12.3444652  
H    1.4988401   -1.3274687   -9.5004998  
H   -1.6910879    1.3782457   -9.0475784  
H   -2.3875707    1.8734775  -11.7633673  
H   -1.4294464    0.9737068  -15.0421049  
H    0.8715473   -0.9536583  -14.7783451  
H    1.3939966   -1.3281367  -12.5370922  
C    2.5365544   -2.0936799   -5.9975191  
C    2.0254115   -1.6312727   -4.8274817  
C    0.9452520   -0.7345685   -5.1651398  
C    0.8684332   -0.7123307   -6.6383662  
N    1.8600006   -1.5565502   -7.0821879  
C   -0.0266557    0.0178221   -7.3506841  
C   -0.9777108    0.8365828   -6.6174311  
O   -1.8231601    1.5298525   -7.1677885  
C   -0.9143687    0.8284833   -5.0567494  
O   -1.7097814    1.5140808   -4.4286288  
C    0.0950446    0.0004351   -4.4015596  
H    2.3662773   -1.8887983   -3.8405142  
H    3.3507072   -2.7814876   -6.1586571  
H    2.0599375   -1.7538304   -8.0455943  
C    3.3321173    0.0004713   -1.3379338  
C    2.6974181    0.0000116   -2.5332314  
C    1.2800438   -0.0002119   -2.2052841  
C    1.2395034    0.0000643   -0.7271299  
N    2.4394062    0.0005460   -0.2131038  
C    0.0000000    0.0000000    0.0000000  
C   -1.1468702    0.0000634   -0.7169543  
O   -2.3742203    0.0000074   -0.1695487  
C   -1.1388770    0.0001607   -2.2096355  
O   -2.2206234    0.0000905   -2.7970411  
C    0.1454522    0.0001815   -2.9324241  
H    3.1367984   -0.0000653   -3.5160950  
H   -2.9844346    0.0001026   -0.9290167  
H    4.3940038    0.0007618   -1.1498640  
C    0.0000000    0.0000000    1.4700000  
C    1.0541688    0.0001722    2.3260392  
C    0.5103138    0.0000454    3.6635956  
C   -0.9576371   -0.0002459    3.5155732  
N   -1.2018458    0.0001392    2.1615969  
C   -1.8348311   -0.0008317    4.5510609  
C   -1.2972847   -0.0009736    5.9014604  
O   -2.0050672   -0.0014265    6.9001319  
C    0.2542623   -0.0004184    6.0817573  
O    0.7184670   -0.0002256    7.2139121  
C    1.0974552   -0.0000873    4.8889129  
H    2.0940752    0.0005483    2.0517982  
H   -2.9081052   -0.0011668    4.4207061  
H    2.1707277    0.0000911    5.0223670  
H   -2.1128194   -0.0014912    1.7406791  
