60

C    7.1387107   -3.0777426   -7.2223861  
C    6.6282253   -1.8451260   -6.8869335  
C    7.0655135   -0.9271110   -7.8872469  
C    7.8458343   -1.6632622   -8.8152059  
N    7.8715764   -2.9652316   -8.3806589  
C    8.4401759   -1.0768209   -9.9366479  
C    8.2429483    0.2773707  -10.1249129  
O    8.8003627    0.9005173  -11.2037963  
C    7.4679037    1.0289803   -9.2099242  
O    7.3649371    2.3656840   -9.5354455  
C    6.8814977    0.4511538   -8.1032297  
H    8.3407471   -3.7224542   -8.8437727  
H    9.0361638   -1.6323390  -10.6475633  
H    8.5429089    1.8298088  -11.1455016  
H    6.8260460    2.8007095   -8.8676479  
H    6.2934019    1.0524437   -7.4198035  
H    7.0392180   -4.0279810   -6.7262947  
C    5.9779325   -2.0928588   -4.4468283  
C    5.0400354   -1.6304885   -3.5804350  
C    4.1859903   -0.7341817   -4.3234534  
C    4.7069269   -0.7121370   -5.7036452  
N    5.7934741   -1.5560772   -5.7119685  
C    4.1728101    0.0176373   -6.7155016  
C    3.0072075    0.8361657   -6.4258173  
O    2.4535605    1.5290917   -7.2693979  
C    2.4388221    0.8282646   -4.9709355  
O    1.4580061    1.5136694   -4.7150426  
C    3.1006054    0.0006263   -3.9654951  
H    4.9561723   -1.8877887   -2.5395805  
H    4.5702541    0.0195456   -7.7209582  
H    6.7884827   -2.7804145   -4.2674807  
C    3.2798083    0.0005857   -1.4499652  
C    2.5571142    0.0005565   -2.5996556  
C    1.1637432    0.0001548   -2.2210361  
C    1.1336964   -0.0000200   -0.7459473  
N    2.4483512   -0.0001428   -0.3402723  
C    0.0000000    0.0000000    0.0000000  
C   -1.2757368   -0.0000186   -0.6964415  
O   -2.3524598   -0.0000639   -0.1142311  
C   -1.2676497   -0.0000872   -2.2584083  
O   -2.3355766   -0.0004101   -2.8557295  
C    0.0181558    0.0001758   -2.9516296  
H    0.0150788    0.0003319   -4.0331631  
H    4.3498547    0.0008612   -1.3200026  
H    2.7563626    0.0012823    0.6148059  
C    0.8681109    0.7263879    2.2709268  
C    0.6127770    0.5096195    3.5869401  
C   -0.4920590   -0.4175482    3.6542670  
C   -0.8620974   -0.7254003    2.2596025  
N    0.0000000    0.0000000    1.4700000  
C   -1.8641242   -1.5660088    1.8976294  
C   -2.6293522   -2.2103885    2.9520183  
O   -3.5512764   -2.9839180    2.7283916  
C   -2.2549728   -1.8987399    4.4361073  
O   -2.8923672   -2.4351063    5.3323774  
C   -1.1543735   -0.9755647    4.7012123  
H    1.1382914    0.9492124    4.4159191  
H   -2.1192137   -1.7782617    0.8686553  
H   -0.9013378   -0.7652422    5.7314848  
H    1.6172880    1.3558399    1.8188057  
