60

C   -4.5189775    2.1246694   -0.2045469  
C   -3.4217425    1.6624058   -0.8936442  
C   -3.9056800    0.7751177   -1.9001854  
C   -5.3180923    0.7354090   -1.7759236  
N   -5.6571955    1.5645633   -0.7356687  
C   -6.1291076   -0.0406008   -2.6095007  
C   -5.5029174   -0.7899449   -3.5865099  
O   -6.2471510   -1.5652559   -4.4279511  
C   -4.0948410   -0.7638251   -3.7259887  
O   -3.6223028   -1.5644416   -4.7453337  
C   -3.2941075    0.0012873   -2.9038235  
H   -2.3983457    1.9307552   -0.6945477  
H   -6.5926190    1.7461788   -0.4194748  
H   -7.2061218   -0.0753210   -2.5198566  
H   -5.6225447   -1.9984079   -5.0241983  
H   -2.6635122   -1.4893478   -4.7714900  
H   -4.5796114    2.8084909    0.6247125  
C    0.0000000    0.0000000    0.0000000  
C    1.0541688   -0.0001722   -0.8560392  
C    0.5103135   -0.0000454   -2.1935954  
C   -0.9576375    0.0002459   -2.0455728  
N   -1.2018462   -0.0001392   -0.6915966  
C   -1.8348315    0.0008316   -3.0810604  
C   -1.2972851    0.0009737   -4.4314603  
O   -2.0050681    0.0014265   -5.4301316  
C    0.2542617    0.0004185   -4.6117570  
O    0.7184664    0.0002257   -5.7439119  
C    1.0974549    0.0000874   -3.4189129  
H    2.0940751   -0.0005482   -0.5817983  
H   -2.1128195    0.0014911   -0.2706785  
C    2.5562209   -0.0001551   -3.6003007  
C    3.5357955   -0.0006719   -2.6598172  
C    4.7960222   -0.0006608   -3.3645613  
C    4.4679959   -0.0000618   -4.8030288  
N    3.0942332   -0.0001764   -4.8783002  
C    5.3873307    0.0005225   -5.8012910  
C    6.7937398    0.0003379   -5.4344827  
O    7.6974440    0.0007626   -6.2600850  
C    7.1641087   -0.0005465   -3.9170402  
O    8.3448907   -0.0010157   -3.5960830  
C    6.0844243   -0.0008436   -2.9331024  
H    3.3919669   -0.0012035   -1.5940186  
H    5.1255381    0.0010862   -6.8502781  
H    6.3492930   -0.0012511   -1.8844993  
H    2.5641247    0.0016992   -5.7303733  
C    3.3321173   -0.0004715    2.8079335  
C    2.6974184   -0.0000116    4.0032312  
C    1.2800439    0.0002118    3.6752840  
C    1.2395035   -0.0000644    2.1971295  
N    2.4394063   -0.0005460    1.6831036  
C    0.0000000    0.0000000    1.4700000  
C   -1.1468701   -0.0000635    2.1869543  
O   -2.3742202   -0.0000073    1.6395491  
C   -1.1388768   -0.0001607    3.6796354  
O   -2.2206231   -0.0000905    4.2670412  
C    0.1454524   -0.0001816    4.4024240  
H    3.1367986    0.0000651    4.9860947  
H   -2.9844344   -0.0001026    2.3990168  
H    0.1083576   -0.0003682    5.4835595  
H    4.3940039   -0.0007619    2.6198634  
