62

C    3.5969099   -3.0457639   -5.7041758  
C    4.3665700   -3.6915059   -6.6439142  
C    5.3144870   -4.4847378   -5.9319892  
C    5.0727171   -4.2810658   -4.5492413  
N    4.0246143   -3.4004580   -4.4461576  
C    5.8225991   -4.9085975   -3.5499061  
C    6.8347894   -5.7574270   -3.9538042  
O    7.5975945   -6.3963148   -3.0194776  
C    7.0916039   -5.9732152   -5.3286855  
O    8.1327938   -6.8457513   -5.5694051  
C    6.3524029   -5.3542661   -6.3150993  
H    4.2588436   -3.6010078   -7.7112463  
H    3.6219934   -3.0756515   -3.5857054  
H    5.6434415   -4.7574590   -2.4943198  
H    8.2362680   -6.9316729   -3.5081021  
H    8.2400527   -6.9360752   -6.5212144  
H    6.5725117   -5.5389166   -7.3600556  
C    2.4782017   -2.1081874   -5.8783654  
C    1.9212504   -1.6438934   -7.0265428  
C    0.8545976   -0.7486147   -6.6450169  
C    0.8356627   -0.7292241   -5.1698703  
N    1.8439050   -1.5742004   -4.7669405  
C   -0.0307352   -0.0004646   -4.4215603  
C   -1.0100803    0.8193482   -5.1153366  
O   -1.8333384    1.5114170   -4.5308816  
C   -1.0083727    0.8138725   -6.6773134  
O   -1.8284266    1.4999054   -7.2724030  
C   -0.0251105   -0.0124247   -7.3732162  
H    2.2230608   -1.8995533   -8.0266247  
H   -0.0304448   -0.0104835   -8.4547392  
H    2.0835082   -1.7709325   -3.8125117  
C    3.2573670   -0.0002920   -1.5109380  
C    2.5379468   -0.0001709   -0.3591961  
C    1.1435043    0.0000332   -0.7338500  
C    1.1092609   -0.0000082   -2.2088477  
N    2.4227562    0.0001909   -2.6182613  
C   -0.0265532   -0.0002522   -2.9515663  
C   -1.3003035   -0.0002639   -2.2514981  
O   -2.3786784   -0.0004131   -2.8306429  
C   -1.2877725    0.0000312   -0.6895608  
O   -2.3539958    0.0003307   -0.0892036  
C    0.0000000    0.0000000    0.0000000  
H    2.9384091   -0.0000369    0.6389239  
H    4.3270394   -0.0004765   -1.6439446  
H    2.7280494   -0.0013406   -3.5742113  
C    0.8576279    0.7185626    2.2703808  
C    0.0000000    0.0000000    1.4700000  
C   -0.8668858   -0.7285659    2.3373528  
C   -0.4876752   -0.4117774    3.6669281  
N    0.5635254    0.4678311    3.5902241  
C   -1.1297612   -0.9515493    4.7854808  
C   -2.1738724   -1.8268314    4.5576857  
O   -2.8357962   -2.3827064    5.6140350  
C   -2.5667212   -2.1555554    3.2384331  
O   -3.6226318   -3.0413663    3.1773122  
C   -1.9335634   -1.6236449    2.1344818  
H    1.0363952    0.8769718    4.3757045  
H   -0.8454472   -0.7142436    5.8013813  
H   -3.5178062   -2.9546422    5.2385129  
H   -3.8247440   -3.2102924    2.2519915  
H   -2.2566033   -1.8942483    1.1360343  
H    1.6567807    1.3889844    2.0042067  
