60

C   -8.4566387    1.1469700   -2.0262280  
C   -7.6547243    0.0633916   -2.3005597  
C   -8.5124440   -1.0702457   -2.4179604  
C   -9.8380227   -0.6131684   -2.2038403  
N   -9.7681013    0.7372253   -1.9668488  
C  -10.9471837   -1.4633437   -2.2457040  
C  -10.7139614   -2.7992185   -2.5088092  
O  -11.7611294   -3.6731053   -2.5614779  
C   -9.3985333   -3.2744210   -2.7247891  
O   -9.3310760   -4.6295796   -2.9744628  
C   -8.3038197   -2.4363197   -2.6833707  
H  -10.5538045    1.3370870   -1.7913022  
H  -11.9599809   -1.1212240   -2.0832345  
H  -11.3831168   -4.5408954   -2.7546387  
H   -8.4089013   -4.8685220   -3.1090136  
H   -7.3080868   -2.8291918   -2.8526195  
H   -8.1967349    2.1794388   -1.8668026  
C   -4.3137496    2.1424313   -0.2077327  
C   -5.5591243    1.7353215   -0.5466749  
C   -5.3648109    0.8246408   -1.6644416  
C   -3.9011718    0.7979212   -1.8733214  
N   -3.2797688    1.5684041   -1.0223196  
C   -3.2941076    0.0012878   -2.9038237  
C   -4.1120066   -0.7354730   -3.6896733  
O   -3.6822295   -1.5242475   -4.6892565  
C   -5.5930509   -0.7299484   -3.5035596  
O   -6.2763273   -1.4248009   -4.2555796  
C   -6.1916588    0.0955201   -2.4395132  
H   -6.4941452    2.0180139   -0.0940188  
H   -4.4926448   -1.9161851   -5.0617686  
H   -4.0287171    2.8244781    0.5774694  
C    0.0000000    0.0000000    0.0000000  
C    1.0541688   -0.0001723   -0.8560392  
C    0.5103136   -0.0000455   -2.1935956  
C   -0.9576373    0.0002461   -2.0455730  
N   -1.2018460   -0.0001389   -0.6915968  
C   -1.8348314    0.0008319   -3.0810607  
C   -1.2972851    0.0009739   -4.4314603  
O   -2.0050676    0.0014268   -5.4301316  
C    0.2542619    0.0004184   -4.6117572  
O    0.7184666    0.0002257   -5.7439122  
C    1.0974551    0.0000873   -3.4189129  
H    2.0940752   -0.0005484   -0.5817983  
H    2.1707276   -0.0000912   -3.5523673  
H   -2.1128194    0.0014915   -0.2706789  
C    3.1301144    0.0010313    3.1728260  
C    2.5367765    0.0002768    1.9564670  
C    1.1089900   -0.0001027    2.2356185  
C    1.0177864    0.0004150    3.7115134  
N    2.1993570    0.0011613    4.2663826  
C   -0.2459220    0.0002880    4.3957118  
C   -1.3675327    0.0000606    3.6398520  
O   -2.6129319   -0.0000866    4.1448486  
C   -1.3083589   -0.0000910    2.1483229  
O   -2.3693264   -0.0004206    1.5241687  
C    0.0000000    0.0000000    1.4700000  
H    3.0096015    0.0001008    0.9892483  
H   -0.2829642    0.0004689    5.4753125  
H   -3.1967446   -0.0002093    3.3649027  
H    4.1849273    0.0015113    3.3971983  
