64

C   -8.0280572   -0.5532764   -3.1842374  
C   -8.3600461    0.2868287   -2.1467048  
C   -9.7816608    0.2652333   -2.0320532  
C  -10.2667606   -0.6133427   -3.0344049  
N   -9.1759557   -1.0915177   -3.7171280  
C  -11.6279106   -0.8770682   -3.2147043  
C  -12.5155052   -0.2425486   -2.3675102  
O  -13.8557830   -0.4645289   -2.4993972  
C  -12.0508750    0.6378099   -1.3615756  
O  -13.0583686    1.1919269   -0.5991753  
C  -10.7082264    0.8986595   -1.1833063  
H   -7.6633661    0.8472331   -1.5470574  
H   -9.2086777   -1.7446284   -4.4789396  
H  -12.0040542   -1.5455266   -3.9768613  
H  -14.2889450    0.0681291   -1.8197566  
H  -12.6596435    1.7730545    0.0557391  
H  -10.3822142    1.5778600   -0.4042809  
C   -3.9706102    0.7078764   -2.0752017  
C   -3.2578655    0.0024282   -2.9908505  
C   -4.2092629   -0.7390175   -3.7845362  
C   -5.5442815   -0.4052871   -3.2524286  
N   -5.3302409    0.4758321   -2.2176797  
C   -6.7107872   -0.9038562   -3.7345057  
C   -6.6471651   -1.8312058   -4.8518730  
O   -7.6419124   -2.3348781   -5.3569419  
C   -5.2439270   -2.1989456   -5.4310925  
O   -5.1778117   -2.9788875   -6.3716136  
C   -4.0578617   -1.5968208   -4.8273160  
H   -3.0900594   -1.8564716   -5.2343343  
H   -3.6169908    1.3775867   -1.3081744  
H   -6.0508612    0.8884930   -1.6542400  
C    0.0000000    0.0000000    0.0000000  
C    1.0521666   -0.0011982   -0.8862343  
C    0.4917215   -0.0011996   -2.1979132  
C   -0.9187429    0.0003215   -2.0478682  
N   -1.1833171   -0.0009323   -0.7007913  
C   -1.7951703    0.0010483   -3.1372089  
C   -1.2375841    0.0005313   -4.4010422  
O   -2.0474218    0.0015510   -5.4997578  
C    0.1673576   -0.0013585   -4.5711963  
O    0.5673520   -0.0020735   -5.8915554  
C    1.0325768   -0.0023493   -3.4969892  
H    2.0953056   -0.0030808   -0.6200564  
H   -2.0989778    0.0102529   -0.2891822  
H   -1.4634888    0.0006601   -6.2693595  
H    1.5290707   -0.0033271   -5.9180047  
H    2.1042146   -0.0039770   -3.6584456  
C    1.1243417   -0.0099156    2.2619005  
C    0.7474090   -0.0234034    3.5848544  
C   -0.6787367   -0.0234952    3.6114698  
C   -1.1201739   -0.0099357    2.2635546  
N    0.0000000    0.0000000    1.4700000  
C   -2.4730812   -0.0065396    1.9108239  
C   -3.3971947   -0.0173298    2.9375057  
O   -4.7313508   -0.0149487    2.6493466  
C   -2.9763630   -0.0305536    4.2886322  
O   -4.0166453   -0.0397858    5.1947621  
C   -1.6418541   -0.0336380    4.6373480  
H    1.4178735   -0.0310004    4.4271209  
H   -2.8160170    0.0039190    0.8854031  
H   -5.1938803   -0.0234410    3.4974381  
H   -3.6464643   -0.0484781    6.0827341  
H   -1.3497443   -0.0436789    5.6809233  
H    2.1062470   -0.0051382    1.8205408  
