60

C    8.4803170   -3.2293584   -3.7865835  
C    9.5883481   -2.4623463   -4.0630397  
C    9.1328638   -1.1227887   -4.2439269  
C    7.7259408   -1.1336935   -4.0639988  
N    7.3621714   -2.4286771   -3.7895779  
C    6.9410535    0.0185219   -4.1695466  
C    7.5882748    1.2033824   -4.4617592  
O    6.8700280    2.3584210   -4.5758658  
C    8.9912073    1.2344635   -4.6451490  
O    9.4867256    2.4898722   -4.9310752  
C    9.7661143    0.0981143   -4.5414391  
H   10.6002739   -2.8240511   -4.1276002  
H    6.4263157   -2.7419310   -3.6051141  
H    7.5059266    3.0562863   -4.7805144  
H   10.4402700    2.4229221   -5.0400412  
H   10.8385894    0.1528284   -4.6873191  
H    8.3989634   -4.2844725   -3.5889141  
C    4.3630981   -2.0949037   -1.3110654  
C    3.1522514   -1.6320804   -1.7156885  
C    3.3924175   -0.7354493   -2.8216759  
C    4.8529074   -0.7137077   -3.0297340  
N    5.3832069   -1.5581154   -2.0817639  
C    5.4827050    0.0162381   -3.9848456  
C    4.6677391    0.8352837   -4.8666221  
O    5.1406430    1.5283993   -5.7578308  
C    3.1189447    0.8277106   -4.6641774  
O    2.4225435    1.5135518   -5.4003220  
C    2.5562217   -0.0001543   -3.6003001  
H    2.1995749   -1.8892847   -1.2880586  
H    4.5960548   -2.7827973   -0.5145584  
H    6.3605504   -1.7557299   -1.9686510  
C    0.0000000    0.0000000    0.0000000  
C    1.0541688   -0.0001719   -0.8560391  
C    0.5103141   -0.0000449   -2.1935955  
C   -0.9576367    0.0002461   -2.0455733  
N   -1.2018459   -0.0001392   -0.6915970  
C   -1.8348306    0.0008319   -3.0810611  
C   -1.2972842    0.0009739   -4.4314605  
O   -2.0050664    0.0014267   -5.4301321  
C    0.2542628    0.0004190   -4.6117571  
O    0.7184677    0.0002263   -5.7439119  
C    1.0974556    0.0000880   -3.4189127  
H    2.0940752   -0.0005479   -0.5817978  
H   -2.9081050    0.0011669   -2.9507065  
H   -2.1128195    0.0014911   -0.2706793  
C    3.3321173   -0.0004715    2.8079335  
C    2.6974184   -0.0000116    4.0032312  
C    1.2800439    0.0002118    3.6752840  
C    1.2395035   -0.0000644    2.1971295  
N    2.4394063   -0.0005460    1.6831036  
C    0.0000000    0.0000000    1.4700000  
C   -1.1468701   -0.0000635    2.1869543  
O   -2.3742202   -0.0000073    1.6395491  
C   -1.1388768   -0.0001607    3.6796354  
O   -2.2206231   -0.0000905    4.2670412  
C    0.1454524   -0.0001816    4.4024240  
H    3.1367986    0.0000651    4.9860947  
H   -2.9844344   -0.0001026    2.3990168  
H    0.1083576   -0.0003682    5.4835595  
H    4.3940039   -0.0007619    2.6198634  
