60

C    4.2954759    0.1829703   -6.8052229  
C    5.4843353   -0.4758688   -7.0173846  
C    5.9502120   -0.0887172   -8.3087682  
C    4.9962492    0.8157728   -8.8414771  
N    4.0035866    0.9571170   -7.9037887  
C    5.1322807    1.4019676  -10.1034835  
C    6.2518774    1.0692546  -10.8410359  
O    6.4345390    1.6130741  -12.0795465  
C    7.2146753    0.1684455  -10.3268574  
O    8.2726766   -0.0619822  -11.1817731  
C    7.0809892   -0.4104376   -9.0820492  
H    5.9570190   -1.1531445   -6.3268333  
H    3.1956792    1.5456485   -7.9981168  
H    4.4087020    2.0919547  -10.5152533  
H    7.2654244    1.2529733  -12.4160311  
H    8.8762673   -0.6804314  -10.7589226  
H    7.8348035   -1.0970329   -8.7148583  
C    4.6014568   -2.0165230   -3.0560766  
C    3.4769384   -1.6328845   -2.4081117  
C    2.8127343   -0.7151037   -3.3208062  
C    3.6989099   -0.6588453   -4.5032234  
N    4.7490139   -1.4197419   -4.3538651  
C    3.3894065    0.1527210   -5.6480614  
C    2.2463720    0.8749435   -5.6134073  
O    1.8335166    1.6749950   -6.6111591  
C    1.3311609    0.8390162   -4.4347394  
O    0.3078533    1.5221557   -4.4719306  
C    1.6707636   -0.0012343   -3.2725974  
H    3.1397618   -1.9354141   -1.4314523  
H    0.9923242    2.0514417   -6.2951910  
H    5.3663742   -2.6952858   -2.7137968  
C    1.0965514    0.0001358   -0.8010306  
C    0.0000000    0.0000000    0.0000000  
C   -1.1546565    0.0001470   -0.8669508  
C   -0.6372019    0.0003520   -2.2486278  
N    0.7342867    0.0007338   -2.1395012  
C   -1.4147744    0.0001354   -3.3608712  
C   -2.8576052   -0.0001047   -3.1854454  
O   -3.6427785   -0.0002490   -4.1244896  
C   -3.4275841   -0.0000727   -1.7311660  
O   -4.6406832    0.0000333   -1.5710049  
C   -2.4891868   -0.0001090   -0.6116739  
H   -1.0150456    0.0001617   -4.3654239  
H   -2.8919122   -0.0002919    0.3920871  
H    2.1388270    0.0000663   -0.5261650  
C    0.8681109    0.7263879    2.2709268  
C    0.6127770    0.5096195    3.5869401  
C   -0.4920590   -0.4175482    3.6542670  
C   -0.8620974   -0.7254003    2.2596025  
N    0.0000000    0.0000000    1.4700000  
C   -1.8641242   -1.5660088    1.8976294  
C   -2.6293522   -2.2103885    2.9520183  
O   -3.5512764   -2.9839180    2.7283916  
C   -2.2549728   -1.8987399    4.4361073  
O   -2.8923672   -2.4351063    5.3323774  
C   -1.1543735   -0.9755647    4.7012123  
H    1.1382914    0.9492124    4.4159191  
H   -2.1192137   -1.7782617    0.8686553  
H   -0.9013378   -0.7652422    5.7314848  
H    1.6172880    1.3558399    1.8188057  
