60

C   -5.0478554    3.6519410    1.6679157  
C   -4.4014137    4.4745614    2.5611555  
C   -3.0055784    4.3732576    2.2855095  
C   -2.8595483    3.4667556    1.2043731  
N   -4.1187238    3.0460985    0.8548852  
C   -1.6151350    3.1269718    0.6651405  
C   -0.4978063    3.7132044    1.2273560  
O    0.7419202    3.4169273    0.7391853  
C   -0.6230472    4.6197872    2.3068191  
O    0.5821218    5.1183169    2.7566824  
C   -1.8503530    4.9552452    2.8394671  
H   -4.8772834    5.0730798    3.3189931  
H   -1.4970980    2.4366544   -0.1587106  
H    1.3716658    3.9258267    1.2661643  
H    0.4085646    5.7219003    3.4854975  
H   -1.9149736    5.6526012    3.6665086  
H   -6.0980797    3.4483344    1.5473707  
C   -4.4297989    2.1087668   -0.2339402  
C   -5.6380128    1.6447699   -0.6450376  
C   -5.3911879    0.7496341   -1.7507698  
C   -3.9296547    0.7300037   -1.9515860  
N   -3.4052355    1.5747187   -1.0006228  
C   -3.2941076    0.0012878   -2.9038237  
C   -4.1035800   -0.8182215   -3.7902177  
O   -3.6253056   -1.5102279   -4.6794206  
C   -5.6534083   -0.8124880   -3.5957852  
O   -6.3452678   -1.4982644   -4.3362598  
C   -6.2225102    0.0137342   -2.5340264  
H   -6.5931621    1.9005366   -0.2220868  
H   -7.2964266    0.0119726   -2.4058679  
H   -2.4284984    1.7712471   -0.8805870  
C    0.0000000    0.0000000    0.0000000  
C    1.0541688   -0.0001723   -0.8560392  
C    0.5103136   -0.0000455   -2.1935956  
C   -0.9576373    0.0002461   -2.0455730  
N   -1.2018460   -0.0001389   -0.6915968  
C   -1.8348314    0.0008319   -3.0810607  
C   -1.2972851    0.0009739   -4.4314603  
O   -2.0050676    0.0014268   -5.4301316  
C    0.2542619    0.0004184   -4.6117572  
O    0.7184666    0.0002257   -5.7439122  
C    1.0974551    0.0000873   -3.4189129  
H    2.0940752   -0.0005484   -0.5817983  
H    2.1707276   -0.0000912   -3.5523673  
H   -2.1128194    0.0014915   -0.2706789  
C    3.2573670    0.0002920    2.9809380  
C    2.5379467    0.0001709    1.8291961  
C    1.1435042   -0.0000331    2.2038498  
C    1.1092607    0.0000083    3.6788474  
N    2.4227561   -0.0001909    4.0882609  
C   -0.0265533    0.0002524    4.4215661  
C   -1.3003036    0.0002640    3.7214979  
O   -2.3786784    0.0004133    4.3006425  
C   -1.2877726   -0.0000311    2.1595606  
O   -2.3539958   -0.0003306    1.5592035  
C    0.0000000    0.0000000    1.4700000  
H    2.9384090    0.0000368    0.8310761  
H   -0.0296291    0.0004086    5.5027230  
H    4.3270393    0.0004765    3.1139444  
H    2.7280493    0.0013407    5.0442112  
