62

C    0.6675599   -0.7200189   -5.1594013  
C   -0.1496426   -0.0015617   -4.3176960  
C   -1.0591328    0.7259461   -5.1412001  
C   -0.7463754    0.4086505   -6.4878378  
N    0.3079380   -0.4702285   -6.4630981  
C   -1.4437241    0.9473687   -7.5733226  
C   -2.4757934    1.8220988   -7.2942917  
O   -3.1898683    2.3769422   -8.3166711  
C   -2.8026938    2.1513147   -5.9572915  
O   -3.8548535    3.0364713   -5.8441467  
C   -2.1149953    1.6204442   -4.8859502  
H    0.7413906   -0.8795062   -7.2709297  
H   -1.2101819    0.7096716   -8.6019917  
H   -3.8527242    2.9486458   -7.9079640  
H   -4.0107587    3.2057906   -4.9100012  
H   -2.3881064    1.8914032   -3.8728017  
H    1.4794294   -1.3897680   -4.9329880  
C    3.3003539    0.0005272   -1.4738994  
C    2.5232807    0.0003493   -2.6090753  
C    1.1623195   -0.0001323   -2.1820106  
C    1.1711880    0.0000582   -0.7636143  
N    2.4852298   -0.0014922   -0.3662365  
C    0.0000000    0.0000000    0.0000000  
C   -1.2020387    0.0000519   -0.6806475  
O   -2.3759248    0.0003494    0.0157747  
C   -1.2314661   -0.0005114   -2.0955507  
O   -2.5054400   -0.0008040   -2.6250174  
C   -0.0764524   -0.0007276   -2.8495195  
H    2.8919944   -0.0005625   -3.6205309  
H    2.8036264    0.0088180    0.5858657  
H   -3.0835644    0.0000351   -0.6418811  
H   -2.4360058   -0.0011530   -3.5845915  
C    6.5907945    0.0037339   -4.4182877  
C    5.3731474    0.0029864   -3.8171136  
C    5.6071043    0.0014764   -2.3922987  
C    7.0713635    0.0014340   -2.2113696  
N    7.6095190    0.0024381   -3.4775758  
C    7.6973065    0.0005988   -1.0072521  
C    6.8738982   -0.0005458    0.1904676  
O    7.3427985   -0.0014167    1.3211454  
C    5.3209694   -0.0007741    0.0224870  
O    4.6174387   -0.0020409    1.0236381  
C    4.7630501    0.0004753   -1.3275413  
H    4.4198583    0.0032588   -4.3149620  
H    8.7727859    0.0007140   -0.8965478  
H    6.8296397    0.0049054   -5.4694017  
H    8.5911153    0.0042190   -3.6861729  
C    2.3971438    2.0127888    3.1728260  
C    1.9431056    1.6308205    1.9564670  
C    0.8496017    0.7127664    2.2356185  
C    0.7794028    0.6545384    3.7115134  
N    1.6840587    1.4146091    4.2663826  
C   -0.1885723   -0.1578550    4.3957118  
C   -1.0476298   -0.8789867    3.6398520  
O   -2.0015663   -1.6796266    4.1448486  
C   -1.0022026   -0.8410666    2.1483229  
O   -1.8147390   -1.5232959    1.5241687  
C    0.0000000    0.0000000    1.4700000  
H    2.3054237    1.9346118    0.9892483  
H   -0.2170646   -0.1815267    5.4753125  
H   -2.4487139   -2.0549881    3.3649027  
H    3.2048689    2.6911772    3.3971983  
