60

C    6.1102134   -4.5551321   -5.7768092  
C    7.0597428   -4.3437659   -6.7495300  
C    6.9409322   -2.9824448   -7.1585380  
C    5.8934251   -2.4080241   -6.3938850  
N    5.4094798   -3.3906512   -5.5663228  
C    5.4992129   -1.0738737   -6.5332720  
C    6.1749625   -0.3055203   -7.4612664  
O    5.8309423    1.0035022   -7.6376877  
C    7.2226168   -0.8606890   -8.2339418  
O    7.7970014    0.0323129   -9.1148347  
C    7.6118676   -2.1768568   -8.0971532  
H    7.7520430   -5.0804686   -7.1196433  
H    4.6679292   -3.2746584   -4.8995174  
H    6.4180868    1.3502841   -8.3219880  
H    8.4946221   -0.4221003   -9.5969524  
H    8.4177340   -2.5741974   -8.7031047  
H    5.8764130   -5.4447906   -5.2175212  
C    4.1774649   -0.7039260   -4.3991482  
C    3.1006054    0.0006263   -3.9654951  
C    2.5992399    0.7428151   -5.0980249  
C    3.4785672    0.4104975   -6.2351873  
N    4.4147925   -0.4705965   -5.7452433  
C    3.3361156    0.9100880   -7.4889105  
C    2.2439822    1.8371252   -7.7346383  
O    2.0321273    2.3416470   -8.8295699  
C    1.3005623    2.2033757   -6.5448382  
O    0.3778220    2.9830422   -6.7395976  
C    1.5546720    1.6002373   -5.2388884  
H    3.9920978    0.6532718   -8.3090581  
H    0.8967555    1.8588593   -4.4203623  
H    4.8177812   -1.3738065   -3.8485622  
C    3.2798083    0.0005857   -1.4499652  
C    2.5571142    0.0005565   -2.5996556  
C    1.1637432    0.0001548   -2.2210361  
C    1.1336964   -0.0000200   -0.7459473  
N    2.4483512   -0.0001428   -0.3402723  
C    0.0000000    0.0000000    0.0000000  
C   -1.2757368   -0.0000186   -0.6964415  
O   -2.3524598   -0.0000639   -0.1142311  
C   -1.2676497   -0.0000872   -2.2584083  
O   -2.3355766   -0.0004101   -2.8557295  
C    0.0181558    0.0001758   -2.9516296  
H    0.0150788    0.0003319   -4.0331631  
H    4.3498547    0.0008612   -1.3200026  
H    2.7563626    0.0012823    0.6148059  
C    2.5128556    2.1077716    2.9199648  
C    1.9592212    1.6432552    4.0696553  
C    0.8915788    0.7479214    3.6910360  
C    0.8684491    0.7287414    2.2159470  
N    1.8754542    1.5738793    1.8102719  
C    0.0000000    0.0000000    1.4700000  
C   -0.9772830   -0.8200135    2.1664417  
O   -1.8021297   -1.5120829    1.5842315  
C   -0.9711318   -0.8147624    3.7284083  
O   -1.7894187   -1.5009653    4.3257297  
C    0.0140216    0.0115358    4.4216297  
H    2.2638494    1.8988021    5.0689105  
H    0.0117648    0.0094386    5.5031631  
H    3.3327358    2.7953732    2.7900019  
H    2.1123206    1.7707734    0.8551938  
