62

C    5.8980618   -1.8354970   -4.9951671  
C    6.9984423   -2.6430867   -4.8236185  
C    7.7812596   -2.5380004   -6.0113693  
C    7.1029137   -1.6443486   -6.8792172  
N    5.9624383   -1.2378917   -6.2321281  
C    7.5890860   -1.3044199   -8.1452637  
C    8.7819257   -1.8768234   -8.5423364  
O    9.3020640   -1.5792212   -9.7686729  
C    9.4733147   -2.7710296   -7.6907535  
O   10.6464376   -3.2572042   -8.2299752  
C    8.9941460   -3.1070401   -6.4417462  
H    7.2102358   -3.2359578   -3.9503250  
H    5.2859775   -0.5927283   -6.5983877  
H    7.0767804   -0.6240780   -8.8115071  
H   10.1258592   -2.0781363   -9.8442409  
H   11.0506249   -3.8528989   -7.5917086  
H    9.5457294   -3.7950139   -5.8117258  
C    4.6022461   -2.1272933   -2.8466435  
C    3.4305511   -1.6635857   -2.2947620  
C    2.8449916   -0.7762116   -3.2457021  
C    3.7116209   -0.7379409   -4.3679384  
N    4.7696349   -1.5679976   -4.0918413  
C    3.4480383    0.0377427   -5.5009118  
C    2.2883217    0.7882330   -5.5011202  
O    1.9820894    1.5632869   -6.5821049  
C    1.4112315    0.7635556   -4.3907502  
O    0.2988105    1.5651930   -4.5432010  
C    1.6707636   -0.0012343   -3.2725974  
H    3.0458277   -1.9310528   -1.3255139  
H    4.1045760    0.0713694   -6.3594159  
H    1.1435169    1.9973734   -6.3780714  
H   -0.2405313    1.4910427   -3.7499694  
H    5.3325176   -2.8116316   -2.4499766  
C    1.0965514    0.0001358   -0.8010306  
C    0.0000000    0.0000000    0.0000000  
C   -1.1546565    0.0001470   -0.8669508  
C   -0.6372019    0.0003520   -2.2486278  
N    0.7342867    0.0007338   -2.1395012  
C   -1.4147744    0.0001354   -3.3608712  
C   -2.8576052   -0.0001047   -3.1854454  
O   -3.6427785   -0.0002490   -4.1244896  
C   -3.4275841   -0.0000727   -1.7311660  
O   -4.6406832    0.0000333   -1.5710049  
C   -2.4891868   -0.0001090   -0.6116739  
H   -1.0150456    0.0001617   -4.3654239  
H   -2.8919122   -0.0002919    0.3920871  
H    2.1388270    0.0000663   -0.5261650  
C    2.5528530    2.1414826    2.8079335  
C    2.0663498    1.7338582    4.0032312  
C    0.9804344    0.8229586    3.6752840  
C    0.9495562    0.7966882    2.1971295  
N    1.8690446    1.5676019    1.6831036  
C    0.0000000    0.0000000    1.4700000  
C   -0.8785127   -0.7372425    2.1869543  
O   -1.8187535   -1.5261249    1.6395491  
C   -0.8723269   -0.7321790    3.6796354  
O   -1.7010379   -1.4274584    4.2670412  
C    0.1115397    0.0933559    4.4024240  
H    2.4028853    2.0163452    4.9860947  
H   -2.2861435   -1.9184361    2.3990168  
H    0.0832434    0.0693689    5.4835595  
H    3.3664920    2.8238276    2.6198634  
