62

C    4.7161324   -0.0005436   -1.6923263  
C    5.7254240   -0.0020827   -0.7575558  
C    6.9579240   -0.0022076   -1.4755697  
C    6.6349836   -0.0004069   -2.8567406  
N    5.2655548   -0.0013827   -2.9530734  
C    7.6078554    0.0002912   -3.8608870  
C    8.9308318   -0.0005422   -3.4635103  
O    9.9212233    0.0004352   -4.4027330  
C    9.2730464   -0.0027137   -2.0903017  
O   10.6326704   -0.0037268   -1.8562872  
C    8.3138096   -0.0036768   -1.0991451  
H    5.5899959   -0.0041074    0.3104554  
H    4.7441080    0.0100377   -3.8109447  
H    7.3682593    0.0015183   -4.9153040  
H   10.7569971   -0.0006923   -3.9182261  
H   10.7775875   -0.0051583   -0.9051822  
H    8.6062643   -0.0055251   -0.0556198  
C    3.2573666   -0.0002920   -1.5109384  
C    2.5379463   -0.0001710   -0.3591964  
C    1.1435039    0.0000331   -0.7338498  
C    1.1092600   -0.0000083   -2.2088476  
N    2.4227554    0.0001909   -2.6182613  
C   -0.0265538   -0.0002524   -2.9515660  
C   -1.3003040   -0.0002640   -2.2514976  
O   -2.3786789   -0.0004133   -2.8306420  
C   -1.2877727    0.0000311   -0.6895603  
O   -2.3539960    0.0003306   -0.0892032  
C    0.0000000    0.0000000    0.0000000  
H    2.9384090   -0.0000368    0.6389236  
H    2.7280484   -0.0013407   -3.5742118  
C   -0.0307367   -0.0004647   -4.4215603  
C    1.0189041   -0.0016750   -5.3107848  
C    0.4547292   -0.0019274   -6.6208636  
C   -0.9553029   -0.0005400   -6.4668056  
N   -1.2160429   -0.0016285   -5.1189816  
C   -1.8348264   -0.0000671   -7.5536485  
C   -1.2808385   -0.0007050   -8.8190630  
O   -2.0937994    0.0000668   -9.9154701  
C    0.1236136   -0.0024644   -8.9932143  
O    0.5198494   -0.0033262  -10.3147053  
C    0.9918859   -0.0032051   -7.9214727  
H    2.0627965   -0.0034042   -5.0475757  
H   -2.1305299    0.0095153   -4.7047702  
H   -2.9104392    0.0008450   -7.4429297  
H   -1.5120585   -0.0008707  -10.6867293  
H    1.4814890   -0.0044779  -10.3438908  
H    2.0630601   -0.0047381   -8.0859778  
C    0.8681109    0.7263879    2.2709268  
C    0.6127770    0.5096195    3.5869401  
C   -0.4920590   -0.4175482    3.6542670  
C   -0.8620974   -0.7254003    2.2596025  
N    0.0000000    0.0000000    1.4700000  
C   -1.8641242   -1.5660088    1.8976294  
C   -2.6293522   -2.2103885    2.9520183  
O   -3.5512764   -2.9839180    2.7283916  
C   -2.2549728   -1.8987399    4.4361073  
O   -2.8923672   -2.4351063    5.3323774  
C   -1.1543735   -0.9755647    4.7012123  
H    1.1382914    0.9492124    4.4159191  
H   -2.1192137   -1.7782617    0.8686553  
H   -0.9013378   -0.7652422    5.7314848  
H    1.6172880    1.3558399    1.8188057  
