60

C    9.1056900   -0.0009152   -2.2240565  
C   10.1176370   -0.0011397   -1.2921602  
C   11.3480895   -0.0017067   -2.0136776  
C   11.0212201   -0.0015181   -3.3939251  
N    9.6515244   -0.0029871   -3.4863602  
C   11.9912307   -0.0016507   -4.4008355  
C   13.3153339   -0.0016725   -4.0072237  
O   14.3030482   -0.0014492   -4.9492611  
C   13.6614513   -0.0022353   -2.6349925  
O   15.0217383   -0.0026063   -2.4048468  
C   12.7050412   -0.0023782   -1.6411107  
H    9.9852483   -0.0020267   -0.2237663  
H    9.1276350    0.0073413   -4.3427564  
H   11.7486357   -0.0016522   -5.4545672  
H   15.1401963   -0.0018070   -4.4671329  
H   15.1693612   -0.0029496   -1.4541569  
H   13.0004627   -0.0029948   -0.5984201  
C    6.5597220   -0.0008210    1.3835020  
C    7.6114511   -0.0009114    0.5244669  
C    7.0637930   -0.0009871   -0.8115365  
C    5.5962691   -0.0009037   -0.6593384  
N    5.3559132   -0.0012036    0.6953274  
C    4.7161325   -0.0005435   -1.6923264  
C    5.2498348   -0.0004422   -3.0442498  
O    4.5392139   -0.0001860   -4.0409037  
C    6.8008624   -0.0007797   -3.2289599  
O    7.2618442   -0.0010045   -4.3624309  
C    7.6474458   -0.0008762   -2.0385195  
H    8.6521340   -0.0011061    0.7957482  
H    6.5627892   -0.0007239    2.4614079  
H    4.4461407    0.0003273    1.1188351  
C    3.2573665   -0.0002920   -1.5109385  
C    2.5379463   -0.0001709   -0.3591964  
C    1.1435038    0.0000331   -0.7338500  
C    1.1092599   -0.0000083   -2.2088477  
N    2.4227553    0.0001909   -2.6182613  
C   -0.0265539   -0.0002524   -2.9515660  
C   -1.3003040   -0.0002640   -2.2514977  
O   -2.3786790   -0.0004133   -2.8306421  
C   -1.2877727    0.0000311   -0.6895603  
O   -2.3539959    0.0003306   -0.0892030  
C    0.0000000    0.0000000    0.0000000  
H    2.9384091   -0.0000367    0.6389234  
H   -0.0296303   -0.0004086   -4.0327229  
H    2.7280482   -0.0013407   -3.5742119  
C    2.5128556    2.1077716    2.9199648  
C    1.9592212    1.6432552    4.0696553  
C    0.8915788    0.7479214    3.6910360  
C    0.8684491    0.7287414    2.2159470  
N    1.8754542    1.5738793    1.8102719  
C    0.0000000    0.0000000    1.4700000  
C   -0.9772830   -0.8200135    2.1664417  
O   -1.8021297   -1.5120829    1.5842315  
C   -0.9711318   -0.8147624    3.7284083  
O   -1.7894187   -1.5009653    4.3257297  
C    0.0140216    0.0115358    4.4216297  
H    2.2638494    1.8988021    5.0689105  
H    0.0117648    0.0094386    5.5031631  
H    3.3327358    2.7953732    2.7900019  
H    2.1123206    1.7707734    0.8551938  
