64

C   -0.1931840    0.1825619   -8.7708260  
C    0.8011590   -0.4590842   -9.4722815  
C    0.6851771   -0.0447586  -10.8322371  
C   -0.4068787    0.8578254  -10.9006627  
N   -0.9188424    0.9719505   -9.6320075  
C   -0.8110791    1.4669229  -12.0924728  
C   -0.0997093    1.1594968  -13.2359854  
O   -0.4515952    1.7263552  -14.4267252  
C    0.9926425    0.2610084  -13.1880075  
O    1.5987812    0.0571480  -14.4104574  
C    1.3917837   -0.3404597  -12.0126580  
H    1.5207956   -1.1426310   -9.0552918  
H   -1.6944171    1.5528295   -9.3692441  
H   -1.6426274    2.1555949  -12.1513020  
H    0.1645830    1.3814538  -15.0859920  
H    2.3256514   -0.5615463  -14.2901213  
H    2.2322257   -1.0246394  -12.0068738  
C    1.5862965   -2.0670320   -5.3411847  
C    1.3189951   -1.5555204   -6.5899331  
C    0.1997465   -0.6822136   -6.4513069  
C   -0.1759085   -0.7009549   -5.0836595  
N    0.6852546   -1.5532112   -4.4381564  
C   -1.2456329    0.0471727   -4.5828766  
C   -1.9487579    0.8286865   -5.4789955  
O   -3.0021416    1.5794499   -5.0433904  
C   -1.5894396    0.8603682   -6.8474632  
O   -2.3865861    1.6866039   -7.6124704  
C   -0.5344150    0.1223717   -7.3422465  
H    1.8630204   -1.7845990   -7.4902406  
H    0.6698565   -1.7594945   -3.4557148  
H   -3.3470235    2.0416479   -5.8184348  
H   -2.0769446    1.6504695   -8.5226458  
H    2.3474952   -2.7588381   -5.0234760  
C    1.1243410    0.0099923   -0.7919003  
C    0.7474076    0.0234544   -2.1148543  
C   -0.6787381    0.0234490   -2.1414700  
C   -1.1201745    0.0098592   -0.7935546  
N    0.0000000    0.0000000    0.0000000  
C   -2.4730816    0.0063709   -0.4408240  
C   -3.3971958    0.0170982   -1.4675058  
O   -4.7313517    0.0146259   -1.1793471  
C   -2.9763648    0.0303504   -2.8186324  
O   -4.0166480    0.0395118   -3.7247624  
C   -1.6418562    0.0335260   -3.1673481  
H    1.4178717    0.0310972   -2.9571209  
H   -2.8160166   -0.0041111    0.5845966  
H   -5.1938818    0.0230867   -2.0274384  
H   -3.6464675    0.0482293   -4.6127343  
H    2.1062467    0.0052819   -0.3505407  
C    0.8175213    0.6860729    2.3021913  
C    0.0000000    0.0000000    1.4700000  
C   -0.8887526   -0.7456559    2.3478473  
C   -0.4549825   -0.3816753    3.7138435  
N    0.5448156    0.4573574    3.6934124  
C   -1.0945674   -0.9182058    4.8835240  
C   -2.1210866   -1.7789155    4.6970523  
O   -2.8083856   -2.3554314    5.6976972  
C   -2.5824069   -2.1655116    3.3310774  
O   -3.5227682   -2.9541547    3.2362962  
C   -1.9100805   -1.6015804    2.1470656  
H   -0.7567140   -0.6349833    5.8697035  
H   -3.4728268   -2.9124471    5.2533954  
H   -2.2742832   -1.9066565    1.1752040  
H    1.6189533    1.3585343    2.0405121  
