66

C   -0.1830257    0.1780071   -8.7683087  
C    0.8119254   -0.4628886   -9.4695878  
C    0.6968639   -0.0474271  -10.8292758  
C   -0.3952831    0.8550447  -10.8977270  
N   -0.9081835    0.9680130   -9.6293461  
C   -0.7987152    1.4650902  -12.0893119  
C   -0.0864698    1.1587458  -13.2325690  
O   -0.4375815    1.7265593  -14.4230819  
C    1.0059878    0.2603870  -13.1845632  
O    1.6130435    0.0576585  -14.4067455  
C    1.4043716   -0.3420161  -12.0094347  
H    1.5313670   -1.1466770   -9.0526580  
H   -1.6840395    1.5485483   -9.3666519  
H   -1.6303288    2.1536822  -12.1481582  
H    0.1791276    1.3823138  -15.0821948  
H    2.3399229   -0.5610244  -14.2864067  
H    2.2449163   -1.0260696  -12.0036225  
C    1.6071931   -2.0691457   -5.4061220  
C    0.7600336   -1.6164453   -4.4213122  
C   -0.1612455   -0.7224870   -5.0431507  
C    0.1755314   -0.6690406   -6.4199772  
N    1.2548209   -1.4967874   -6.6059504  
C   -0.5252820    0.1165513   -7.3400284  
C   -1.5855711    0.8615301   -6.8615194  
O   -2.3042728    1.6457775   -7.7167616  
C   -1.9367273    0.8217439   -5.4911462  
O   -3.0155709    1.6195944   -5.1704051  
C   -1.2456329    0.0471727   -4.5828766  
H    0.8017170   -1.8952901   -3.3823217  
H    1.7089811   -1.6697419   -7.4844757  
H   -2.9880777    2.0738669   -7.1853338  
H   -3.1866799    1.5350661   -4.2274413  
H    2.4357999   -2.7539198   -5.3473447  
C    1.1243410    0.0099923   -0.7919003  
C    0.7474076    0.0234544   -2.1148543  
C   -0.6787381    0.0234490   -2.1414700  
C   -1.1201745    0.0098592   -0.7935546  
N    0.0000000    0.0000000    0.0000000  
C   -2.4730816    0.0063709   -0.4408240  
C   -3.3971958    0.0170982   -1.4675058  
O   -4.7313517    0.0146259   -1.1793471  
C   -2.9763648    0.0303504   -2.8186324  
O   -4.0166480    0.0395118   -3.7247624  
C   -1.6418562    0.0335260   -3.1673481  
H    1.4178717    0.0310972   -2.9571209  
H   -2.8160166   -0.0041111    0.5845966  
H   -5.1938818    0.0230867   -2.0274384  
H   -3.6464675    0.0482293   -4.6127343  
H    2.1062467    0.0052819   -0.3505407  
C    0.8576279    0.7185626    2.2703808  
C    0.0000000    0.0000000    1.4700000  
C   -0.8668858   -0.7285659    2.3373528  
C   -0.4876752   -0.4117774    3.6669281  
N    0.5635254    0.4678311    3.5902241  
C   -1.1297612   -0.9515493    4.7854808  
C   -2.1738724   -1.8268314    4.5576857  
O   -2.8357962   -2.3827064    5.6140350  
C   -2.5667212   -2.1555554    3.2384331  
O   -3.6226318   -3.0413663    3.1773122  
C   -1.9335634   -1.6236449    2.1344818  
H    1.0363952    0.8769718    4.3757045  
H   -0.8454472   -0.7142436    5.8013813  
H   -3.5178062   -2.9546422    5.2385129  
H   -3.8247440   -3.2102924    2.2519915  
H   -2.2566033   -1.8942483    1.1360343  
H    1.6567807    1.3889844    2.0042067  
