60

C   -1.5549522    4.3469685    2.1537336  
C   -2.1808800    3.5139668    1.2555186  
C   -3.5755398    3.5547055    1.5519375  
C   -3.7420796    4.4371005    2.6499218  
N   -2.4953282    4.8990384    2.9917441  
C   -4.9912515    4.7183996    3.2113753  
C   -6.0923947    4.0978523    2.6540769  
O   -7.3359647    4.3372554    3.1632289  
C   -5.9465169    3.2139557    1.5585122  
O   -7.1372317    2.6751794    1.1166291  
C   -4.7144546    2.9357727    1.0042885  
H   -1.6922365    2.9458901    0.4825318  
H   -2.3001787    5.5505965    3.7302349  
H   -5.1248609    5.3898579    4.0483303  
H   -7.9524174    3.8121096    2.6364721  
H   -6.9501600    2.0904725    0.3758688  
H   -0.5119604    4.5898771    2.2638349  
C   -4.6051146    2.0113809   -0.1334481  
C   -3.4864971    1.6298266   -0.7927589  
C   -3.9518793    0.7119511   -1.8210700  
C   -5.4173874    0.6533631   -1.6328192  
N   -5.8061458    1.4130855   -0.6450553  
C   -6.2597396   -0.1589834   -2.4668584  
C   -5.6651267   -0.8797261   -3.4447642  
O   -6.3285773   -1.6802771   -4.2962291  
C   -4.1885399   -0.8414365   -3.6601389  
O   -3.7155091   -1.5233211   -4.5692573  
C   -3.3460097   -0.0004262   -2.7913647  
H   -2.4709777    1.9337813   -0.6045897  
H   -7.3277598   -0.1829238   -2.3066431  
H   -5.6384854   -2.0553379   -4.8726449  
C    0.0000000    0.0000000    0.0000000  
C    1.0662919   -0.0000103   -0.8334272  
C    0.4961868    0.0000066   -2.1718889  
C   -0.9663860   -0.0000849   -1.9540248  
N   -1.2632775   -0.0000084   -0.6828659  
C   -1.8985364   -0.0000515   -3.0477258  
C   -1.3925778    0.0004567   -4.3020543  
O   -2.1456385    0.0005412   -5.4151314  
C    0.0786229    0.0009326   -4.5544999  
O    0.4683756    0.0012594   -5.7221104  
C    1.0143162    0.0008443   -3.4159034  
H    2.1107195    0.0000631   -0.5721869  
H   -1.5042277    0.0009692   -6.1484420  
H    2.0724151    0.0013151   -3.6409746  
C    1.1319247   -0.0015655    2.2709268  
C    0.7969915   -0.0034943    3.5869401  
C   -0.6453339   -0.0035710    3.6542670  
C   -1.1266833   -0.0015433    2.2596025  
N    0.0000000    0.0000000    1.4700000  
C   -2.4346130   -0.0013964    1.8976294  
C   -3.4350110   -0.0031408    2.9520183  
O   -4.6384611   -0.0030974    2.7283916  
C   -2.9478959   -0.0050506    4.4361073  
O   -3.7809380   -0.0062218    5.3323774  
C   -1.5113823   -0.0053090    4.7012123  
H    1.4821238   -0.0045407    4.4159191  
H   -2.7664565   -0.0000232    0.8686553  
H   -1.1823530   -0.0068408    5.7314848  
H    2.1104316   -0.0009391    1.8188057  
