64

C   -0.1859957   -1.1154412   -9.5378374  
C   -0.3098318   -0.7405306  -10.8556293  
C   -0.5701265    0.6618677  -10.8668336  
C   -0.5936912    1.0916221   -9.5152859  
N   -0.3588475   -0.0127536   -8.7343753  
C   -0.8244321    2.4208497   -9.1482672  
C   -1.0349231    3.3329121  -10.1641485  
O   -1.2646113    4.6439737   -9.8618694  
C   -1.0155967    2.9233626  -11.5186646  
O   -1.2424619    3.9492063  -12.4128242  
C   -0.7882949    1.6121644  -11.8814582  
H   -0.2242986   -1.3972686  -11.7043762  
H   -0.8437917    2.7547529   -8.1199999  
H   -1.3842658    5.1014930  -10.7042604  
H   -1.2127589    3.5880025  -13.3040328  
H   -0.7795180    1.3281877  -12.9272875  
H    0.0105327   -2.0824339   -9.1074186  
C    2.2882816   -2.1097767   -5.8897962  
C    1.6780090   -1.6459960   -7.0107556  
C    0.6303821   -0.7506084   -6.5799497  
C    0.6807209   -0.7305951   -5.1055495  
N    1.7068259   -1.5753508   -4.7500430  
C   -0.1496415   -0.0015615   -4.3176961  
C   -1.1605341    0.8179096   -4.9650744  
O   -1.9554938    1.5101850   -4.3429046  
C   -1.2321584    0.8117733   -6.5254067  
O   -2.0792931    1.4975140   -7.0816287  
C   -0.2825939   -0.0147697   -7.2663562  
H    1.9325532   -1.9020639   -8.0237955  
H    3.1137390   -2.7971810   -5.8004316  
H    1.9909865   -1.7716676   -3.8078329  
C    3.3003543    0.0005276   -1.4738987  
C    2.5232814    0.0003497   -2.6090747  
C    1.1623200   -0.0001320   -2.1820103  
C    1.1711883    0.0000582   -0.7636140  
N    2.4852300   -0.0014919   -0.3662360  
C    0.0000000    0.0000000    0.0000000  
C   -1.2020384    0.0000519   -0.6806477  
O   -2.3759249    0.0003493    0.0157743  
C   -1.2314656   -0.0005115   -2.0955510  
O   -2.5054392   -0.0008039   -2.6250180  
C   -0.0764516   -0.0007274   -2.8495195  
H    2.8919955   -0.0005620   -3.6205304  
H    2.8036267    0.0088183    0.5858662  
H   -3.0835638    0.0000347   -0.6418818  
H   -2.4360047   -0.0011529   -3.5845921  
H    4.3715549    0.0004895   -1.3667136  
C    2.5285572    2.1210227    2.9438989  
C    1.9331703    1.6216660    4.0790748  
C    0.8903039    0.7472258    3.6520102  
C    0.8972198    0.7527806    2.2336141  
N    1.9028376    1.5986179    1.8362361  
C    0.0000000    0.0000000    1.4700000  
C   -0.9207814   -0.7726952    2.1506477  
O   -1.8198395   -1.5274828    1.4542253  
C   -0.9436862   -0.7911793    3.5655508  
O   -1.9197945   -1.6098497    4.0950179  
C   -0.0590329   -0.0485852    4.3195194  
H    2.2150357    1.8593692    5.0905303  
H    2.1533708    1.7953814    0.8841339  
H   -2.3621246   -1.9821033    2.1118817  
H   -1.8668290   -1.5649508    5.0545920  
H   -0.1007624   -0.0827977    5.4019087  
H    3.3491200    2.8096064    2.8367138  
