64

C   -6.8603699    2.1254854   -0.0917863  
C   -7.1365385    2.9761757    0.9534526  
C   -8.5538563    2.9930650    1.1132129  
C   -9.0939842    2.1259747    0.1291687  
N   -8.0386640    1.6173293   -0.5865094  
C  -10.4667661    1.8986384   -0.0071282  
C  -11.3096277    2.5584131    0.8660615  
O  -12.6588952    2.3723362    0.7773759  
C  -10.7897896    3.4278426    1.8543314  
O  -11.7573006    4.0103107    2.6467945  
C   -9.4356359    3.6527981    1.9891940  
H   -6.4063566    3.5187567    1.5291556  
H   -8.1131055    0.9639008   -1.3451072  
H  -10.8847556    1.2391103   -0.7551320  
H  -13.0557783    2.9177399    1.4689569  
H  -11.3225020    4.5817305    3.2871332  
H   -9.0669090    4.3244460    2.7556191  
C   -4.3329660    2.1450171   -0.3175482  
C   -5.5711451    1.7385432   -0.6826116  
C   -5.3538013    0.8273997   -1.7957507  
C   -3.8860915    0.7997433   -1.9736450  
N   -3.2823478    1.5701205   -1.1099310  
C   -3.2578655    0.0024282   -2.9908505  
C   -4.0594178   -0.7340897   -3.7935892  
O   -3.6090884   -1.5234309   -4.7836321  
C   -5.5440609   -0.7276253   -3.6388176  
O   -6.2117105   -1.4223044   -4.4049018  
C   -6.1645244    0.0985307   -2.5879053  
H   -4.4116857   -1.9150018   -5.1730704  
H   -7.2431275    0.0755601   -2.5084184  
H   -4.0641802    2.8271376    0.4732984  
C    0.0000000    0.0000000    0.0000000  
C    1.0521666   -0.0011982   -0.8862343  
C    0.4917215   -0.0011996   -2.1979132  
C   -0.9187429    0.0003215   -2.0478682  
N   -1.1833171   -0.0009323   -0.7007913  
C   -1.7951703    0.0010483   -3.1372089  
C   -1.2375841    0.0005313   -4.4010422  
O   -2.0474218    0.0015510   -5.4997578  
C    0.1673576   -0.0013585   -4.5711963  
O    0.5673520   -0.0020735   -5.8915554  
C    1.0325768   -0.0023493   -3.4969892  
H    2.0953056   -0.0030808   -0.6200564  
H   -2.0989778    0.0102529   -0.2891822  
H   -1.4634888    0.0006601   -6.2693595  
H    1.5290707   -0.0033271   -5.9180047  
H    2.1042146   -0.0039770   -3.6584456  
C    1.1243417   -0.0099156    2.2619005  
C    0.7474090   -0.0234034    3.5848544  
C   -0.6787367   -0.0234952    3.6114698  
C   -1.1201739   -0.0099357    2.2635546  
N    0.0000000    0.0000000    1.4700000  
C   -2.4730812   -0.0065396    1.9108239  
C   -3.3971947   -0.0173298    2.9375057  
O   -4.7313508   -0.0149487    2.6493466  
C   -2.9763630   -0.0305536    4.2886322  
O   -4.0166453   -0.0397858    5.1947621  
C   -1.6418541   -0.0336380    4.6373480  
H    1.4178735   -0.0310004    4.4271209  
H   -2.8160170    0.0039190    0.8854031  
H   -5.1938803   -0.0234410    3.4974381  
H   -3.6464643   -0.0484781    6.0827341  
H   -1.3497443   -0.0436789    5.6809233  
H    2.1062470   -0.0051382    1.8205408  
