62

C    0.0000000    0.0000000    0.0000000  
C    1.0521666   -0.0011908   -0.8862345  
C    0.4917224   -0.0011958   -2.1979133  
C   -0.9187422    0.0003157   -2.0478684  
N   -1.1833169   -0.0009403   -0.7007915  
C   -1.7951696    0.0010365   -3.1372093  
C   -1.2375833    0.0005235   -4.4010426  
O   -2.0474210    0.0015378   -5.4997584  
C    0.1673590   -0.0013564   -4.5711967  
O    0.5673531   -0.0020684   -5.8915553  
C    1.0325774   -0.0023415   -3.4969893  
H    2.0953060   -0.0030663   -0.6200562  
H   -2.0989773    0.0102386   -0.2891828  
H   -1.4634876    0.0006514   -6.2693596  
H    1.5290718   -0.0033159   -5.9180047  
H    2.1042148   -0.0039619   -3.6584454  
C   -3.9676849    0.7292831   -2.0471641  
C   -5.3027878    0.5138166   -2.1702462  
C   -5.4806683   -0.4129604   -3.2630766  
C   -4.1300709   -0.7220025   -3.7701961  
N   -3.2578650    0.0024062   -2.9908511  
C   -3.8704658   -1.5626511   -4.8034530  
C   -4.9964202   -2.2058215   -5.4600306  
O   -4.8664343   -2.9792853   -6.3997948  
C   -6.4355617   -1.8929007   -4.9396875  
O   -7.3913520   -2.4282425   -5.4847871  
C   -6.5888872   -0.9698050   -3.8179754  
H   -2.8722056   -1.7757872   -5.1597662  
H   -7.5886456   -0.7585976   -3.4635767  
H   -3.4426178    1.3580914   -1.3465969  
C   -5.6876896    4.5686248   -0.6217377  
C   -6.8567042    4.5045561    0.0571439  
C   -7.3150558    3.1344384   -0.1137096  
C   -6.2735320    2.4939722   -0.9453432  
N   -5.3169992    3.3297484   -1.2461971  
C   -6.3581619    1.1155199   -1.3425759  
C   -7.4341603    0.4089044   -0.9275379  
O   -7.6418703   -0.8853870   -1.2236909  
C   -8.5018581    1.0268361   -0.0870952  
O   -9.4530417    0.3240168    0.2542491  
C   -8.3921942    2.4426107    0.3072150  
H   -7.3473403    5.2900215    0.6061393  
H   -8.4857262   -1.1066488   -0.7899825  
H   -9.1864488    2.8527465    0.9164586  
H   -5.0328167    5.4175236   -0.7378612  
C    1.1188642   -0.0008217    2.2703808  
C    0.0000000    0.0000000    1.4700000  
C   -1.1323862   -0.0008904    2.3373528  
C   -0.6382662   -0.0019682    3.6669281  
N    0.7324016   -0.0038477    3.5902241  
C   -1.4770914   -0.0027325    4.7854808  
C   -2.8395474   -0.0020958    4.5576857  
O   -3.7039201   -0.0024443    5.6140350  
C   -3.3517868   -0.0013946    3.2384331  
O   -4.7300496   -0.0012389    3.1773122  
C   -2.5248543   -0.0009135    2.1344818  
H    1.3576314    0.0056174    4.3757045  
H   -1.1067570   -0.0036993    5.8013813  
H   -4.5940033   -0.0021850    5.2385129  
H   -4.9934601   -0.0007286    2.2519915  
H   -2.9462578   -0.0005617    1.1360343  
H    2.1619896   -0.0009344    2.0042067  
