64

C    5.3812587   -2.4191164   -6.7394895  
C    6.3195787   -2.6424681   -7.7203750  
C    6.4681863   -1.4201836   -8.4404694  
C    5.5878644   -0.4786585   -7.8484479  
N    4.9418292   -1.1184291   -6.8198811  
C    5.4708841    0.8379101   -8.3042456  
C    6.2571252    1.2108945   -9.3770394  
O    6.1828028    2.4845326   -9.8621514  
C    7.1412574    0.2857538   -9.9813905  
O    7.8555342    0.8091709  -11.0393075  
C    7.2569810   -1.0133111   -9.5324322  
H    6.8328958   -3.5723264   -7.8960542  
H    4.8017297    1.5602842   -7.8574686  
H    6.8044305    2.5323455  -10.6000944  
H    8.4280256    0.1202061  -11.3902846  
H    7.9427505   -1.6994349  -10.0155810  
H    4.9896400   -3.0851150   -5.9897958  
C    3.8539788   -0.7242740   -4.5616546  
C    2.8310662   -0.0116220   -4.0232752  
C    2.2151346    0.7224537   -5.1033663  
C    2.9684434    0.3765483   -6.3238847  
N    3.9485189   -0.5038664   -5.9273859  
C    2.6958870    0.8655339   -7.5601334  
C    1.5867062    1.7946805   -7.6977564  
O    1.2619197    2.2902849   -8.7688262  
C    0.7753249    2.1752394   -6.4184441  
O   -0.1604719    2.9568025   -6.5219053  
C    1.1641181    1.5827319   -5.1410928  
H    3.2608083    0.5988322   -8.4425413  
H    0.5971077    1.8512326   -4.2601098  
H    4.5468417   -1.3917706   -4.0755698  
C    3.3041270    0.0001177   -1.5420434  
C    2.5845372   -0.0004781   -0.3695856  
C    1.2040006   -0.0000008   -0.7283592  
C    1.1422371    0.0006037   -2.1454375  
N    2.4348636    0.0026109   -2.6077467  
C   -0.0655183    0.0008798   -2.8497920  
C   -1.2321770    0.0002326   -2.1101400  
O   -2.4392818    0.0001147   -2.7472520  
C   -1.1911210   -0.0000007   -0.6955263  
O   -2.4371527   -0.0002320   -0.1032859  
C    0.0000000    0.0000000    0.0000000  
H    3.0031533   -0.0000660    0.6222577  
H   -0.1193553    0.0014844   -3.9297472  
H   -3.1132989   -0.0000648   -2.0551784  
H   -2.3200282   -0.0004069    0.8516410  
H    4.3686624    0.0004070   -1.7024294  
C    2.5311839    2.1237619    3.0120429  
C    1.9795631    1.6616747    1.8395852  
C    0.9223175    0.7739173    2.1983588  
C    0.8753926    0.7337535    3.6154372  
N    1.8668922    1.5631002    4.0777464  
C   -0.0496243   -0.0427881    4.3197917  
C   -0.9437528   -0.7922060    3.5801400  
O   -1.8685244   -1.5680278    4.2172520  
C   -0.9124520   -0.7656372    2.1655264  
O   -1.8671164   -1.5663939    1.5732860  
C    0.0000000    0.0000000    1.4700000  
H    2.3005065    1.9304404    0.8477417  
H    2.0679347    1.7444845    5.0445261  
H   -0.0904770   -0.0778569    5.3997470  
H   -2.3849669   -2.0011402    3.5251786  
H   -1.7775064   -1.4909735    0.6183591  
H    3.3468514    2.8078103    3.1724291  
