64

C    6.1887898    0.7189139   -5.9785362  
C    6.1355534    0.4715746   -7.3307408  
C    7.1938495   -0.4368043   -7.6298349  
C    7.8643738   -0.7107226   -6.4102889  
N    7.2298304    0.0085371   -5.4281291  
C    8.9637185   -1.5706652   -6.3282676  
C    9.3938241   -2.1651511   -7.4986414  
O   10.4626109   -3.0137792   -7.4754444  
C    8.7381005   -1.9040904   -8.7253001  
O    9.2856507   -2.5716544   -9.8013536  
C    7.6536763   -1.0556360   -8.8070052  
H    5.4224354    0.8947656   -8.0173012  
H    9.4792187   -1.7834686   -5.4018890  
H   10.5935220   -3.3129157   -8.3846445  
H    8.7848060   -2.3404622  -10.5895853  
H    7.1719091   -0.8748408   -9.7607819  
H    5.5674224    1.3469646   -5.3633834  
C    4.7577216    0.0005129   -1.7610467  
C    5.7908194   -0.0019948   -0.8526581  
C    7.0043636   -0.0008192   -1.6022642  
C    6.6458593    0.0027363   -2.9746300  
N    5.2743991    0.0015095   -3.0355632  
C    7.5924713    0.0050451   -4.0035663  
C    8.9252693    0.0040476   -3.6404922  
O    9.8910729    0.0065539   -4.6049783  
C    9.3028361    0.0001370   -2.2765841  
O   10.6680520   -0.0008114   -2.0777646  
C    8.3695192   -0.0024152   -1.2609859  
H    5.6830214   -0.0054833    0.2184911  
H    4.7309661    0.0139309   -3.8796650  
H   10.7390815    0.0050110   -4.1422208  
H   10.8374849   -0.0034725   -1.1307222  
H    8.6888292   -0.0055758   -0.2253654  
C    3.3041270    0.0001177   -1.5420435  
C    2.5845370   -0.0004780   -0.3695856  
C    1.2040004   -0.0000007   -0.7283590  
C    1.1422370    0.0006038   -2.1454373  
N    2.4348634    0.0026110   -2.6077469  
C   -0.0655187    0.0008799   -2.8497918  
C   -1.2321769    0.0002326   -2.1101398  
O   -2.4392822    0.0001149   -2.7472517  
C   -1.1911211   -0.0000007   -0.6955263  
O   -2.4371526   -0.0002319   -0.1032858  
C    0.0000000    0.0000000    0.0000000  
H    3.0031534   -0.0000661    0.6222578  
H    2.7054623   -0.0071098   -3.5745266  
H   -0.1193555    0.0014846   -3.9297472  
H   -3.1132992   -0.0000646   -2.0551783  
H   -2.3200279   -0.0004070    0.8516411  
C    0.0000000    0.0000000    1.4700000  
C    1.0541688    0.0001722    2.3260392  
C    0.5103138    0.0000454    3.6635956  
C   -0.9576371   -0.0002459    3.5155732  
N   -1.2018458    0.0001392    2.1615969  
C   -1.8348311   -0.0008317    4.5510609  
C   -1.2972847   -0.0009736    5.9014604  
O   -2.0050672   -0.0014265    6.9001319  
C    0.2542623   -0.0004184    6.0817573  
O    0.7184670   -0.0002256    7.2139121  
C    1.0974552   -0.0000873    4.8889129  
H    2.0940752    0.0005483    2.0517982  
H   -2.9081052   -0.0011668    4.4207061  
H    2.1707277    0.0000911    5.0223670  
H   -2.1128194   -0.0014912    1.7406791  
