60

C    6.5739152    0.0019520   -5.8237903  
C    7.6260817    0.0007593   -6.7100250  
C    7.0656366    0.0008522   -8.0217040  
C    5.6551720    0.0024224   -7.8716581  
N    5.3905980    0.0011060   -6.5245817  
C    4.7787452    0.0032440   -8.9609996  
C    5.3363311    0.0027733  -10.2248323  
O    4.5264935    0.0038856  -11.3235484  
C    6.7412727    0.0008359  -10.3949876  
O    7.1412675    0.0001763  -11.7153456  
C    7.6064921   -0.0002488   -9.3207798  
H    8.6692204   -0.0011801   -6.4438470  
H    4.4749379    0.0123060   -6.1129727  
H    3.7028215    0.0042970   -8.8533415  
H    5.1104266    0.0030131  -12.0931505  
H    8.1029860   -0.0011152  -11.7417958  
H    8.6781293   -0.0019113   -9.4822362  
C    6.5739150    0.0018721   -4.3537904  
C    7.6280837    0.0019470   -3.4977512  
C    7.0842294    0.0017737   -2.1601949  
C    5.6162780    0.0015611   -2.3082170  
N    5.3720693    0.0020316   -3.6621935  
C    4.7390840    0.0009613   -1.2727298  
C    5.2766305    0.0007201    0.0776698  
O    4.5688481    0.0002470    1.0763412  
C    6.8281773    0.0011907    0.2579666  
O    7.2923820    0.0012996    1.3901216  
C    7.6713703    0.0015461   -0.9348778  
H    8.6679908    0.0022879   -3.7719920  
H    8.7446428    0.0016655   -0.8014235  
H    4.4610955    0.0004680   -4.0831112  
C    3.2798077    0.0005856   -1.4499661  
C    2.5571132    0.0005565   -2.5996564  
C    1.1637425    0.0001547   -2.2210366  
C    1.1336959   -0.0000200   -0.7459475  
N    2.4483509   -0.0001429   -0.3402730  
C    0.0000000    0.0000000    0.0000000  
C   -1.2757370   -0.0000187   -0.6964411  
O   -2.3524597   -0.0000640   -0.1142306  
C   -1.2676502   -0.0000874   -2.2584078  
O   -2.3355774   -0.0004102   -2.8557287  
C    0.0181551    0.0001758   -2.9516297  
H    2.9547342    0.0006074   -3.5989118  
H    0.0150776    0.0003317   -4.0331632  
H    2.7563626    0.0012823    0.6148051  
C    2.5528530    2.1414826    2.8079335  
C    2.0663498    1.7338582    4.0032312  
C    0.9804344    0.8229586    3.6752840  
C    0.9495562    0.7966882    2.1971295  
N    1.8690446    1.5676019    1.6831036  
C    0.0000000    0.0000000    1.4700000  
C   -0.8785127   -0.7372425    2.1869543  
O   -1.8187535   -1.5261249    1.6395491  
C   -0.8723269   -0.7321790    3.6796354  
O   -1.7010379   -1.4274584    4.2670412  
C    0.1115397    0.0933559    4.4024240  
H    2.4028853    2.0163452    4.9860947  
H   -2.2861435   -1.9184361    2.3990168  
H    0.0832434    0.0693689    5.4835595  
H    3.3664920    2.8238276    2.6198634  
