62

C    4.1084827    0.7215703   -7.7919037  
C    5.1222191    0.0024085   -7.2023174  
C    5.7754440   -0.7248397   -8.2410696  
C    5.1110156   -0.4066670   -9.4531873  
N    4.1028472    0.4724624   -9.1444068  
C    5.4893474   -0.9449169  -10.6868564  
C    6.5580736   -1.8200716  -10.6971317  
O    6.9695348   -2.3744888  -11.8745589  
C    7.2335159   -2.1501633   -9.4981170  
O    8.2768169   -3.0356513   -9.6735505  
C    6.8606553   -1.6197544   -8.2806742  
H    3.4676402    0.8823282   -9.8050894  
H    4.9869700   -0.7065512  -11.6142189  
H    7.7178624   -2.9466015  -11.6601801  
H    8.6789579   -3.2055636   -8.8162192  
H    7.3969329   -1.8913833   -7.3789516  
H    3.3881025    1.3913893   -7.3544642  
C    2.5562217   -0.0001551   -3.6003001  
C    3.5655128   -0.0017025   -2.6655294  
C    4.7980128   -0.0018122   -3.3835434  
C    4.4750737    0.0000059   -4.7647141  
N    3.1056446   -0.0009746   -4.8610468  
C    5.4479449    0.0007222   -5.7688602  
C    6.7709215   -0.0001109   -5.3714836  
O    7.7613129    0.0008838   -6.3107055  
C    7.1131347   -0.0023000   -3.9982744  
O    8.4727603   -0.0033100   -3.7642599  
C    6.1538986   -0.0032805   -3.0071182  
H    3.4300846   -0.0037426   -1.5975180  
H    2.5841971    0.0104552   -5.7189186  
H    8.5970863   -0.0002467   -5.8261986  
H    8.6176763   -0.0047535   -2.8131546  
H    6.4463530   -0.0051417   -1.9635927  
C    0.0000000    0.0000000    0.0000000  
C    1.0541688   -0.0001722   -0.8560390  
C    0.5103141   -0.0000453   -2.1935955  
C   -0.9576367    0.0002460   -2.0455731  
N   -1.2018459   -0.0001392   -0.6915969  
C   -1.8348307    0.0008318   -3.0810611  
C   -1.2972843    0.0009738   -4.4314606  
O   -2.0050665    0.0014267   -5.4301321  
C    0.2542628    0.0004186   -4.6117570  
O    0.7184676    0.0002258   -5.7439117  
C    1.0974555    0.0000874   -3.4189127  
H    2.0940752   -0.0005483   -0.5817978  
H   -2.9081051    0.0011670   -2.9507061  
H   -2.1128194    0.0014912   -0.2706792  
C    1.0965515   -0.0001358    2.2710304  
C    0.0000000    0.0000000    1.4700000  
C   -1.1546562   -0.0001469    2.3369512  
C   -0.6372014   -0.0003519    3.7186280  
N    0.7342871   -0.0007337    3.6095011  
C   -1.4147739   -0.0001353    4.8308716  
C   -2.8576048    0.0001048    4.6554461  
O   -3.6427778    0.0002493    5.5944904  
C   -3.4275839    0.0000726    3.2011665  
O   -4.6406829   -0.0000333    3.0410059  
C   -2.4891866    0.0001091    2.0816745  
H   -1.0150448   -0.0001615    5.8354244  
H   -2.8919121    0.0002919    1.0779135  
H    2.1388271   -0.0000662    1.9961646  
H    1.3735872    0.0006099    4.3830260  
