62

C    6.8064685    0.0000404   -4.0743115  
C    7.7887309    0.0006880   -3.1111770  
C    7.1308653    0.0013418   -1.8455495  
C    5.7357517    0.0007678   -2.1016435  
N    5.5736262    0.0019338   -3.4648498  
C    4.7795897    0.0008677   -1.0815734  
C    5.2401781    0.0012527    0.2207462  
O    4.3497074    0.0010154    1.2551913  
C    6.6282667    0.0022032    0.4964749  
O    6.9274451    0.0029070    1.8432619  
C    7.5721097    0.0023784   -0.5093511  
H    8.8489888    0.0017942   -3.2978485  
H    4.6916428   -0.0086999   -3.9444066  
H    4.8738769    0.0016566    2.0666778  
H    7.8844229    0.0034998    1.9422367  
H    8.6285026    0.0032962   -0.2674566  
H    6.8877375   -0.0001765   -5.1477887  
C    3.3321166    0.0004717   -1.3379342  
C    2.6974176    0.0000121   -2.5332317  
C    1.2800432   -0.0002115   -2.2052842  
C    1.2395033    0.0000645   -0.7271297  
N    2.4394059    0.0005461   -0.2131042  
C    0.0000000    0.0000000    0.0000000  
C   -1.1468704    0.0000636   -0.7169540  
O   -2.3742206    0.0000073   -0.1695488  
C   -1.1388774    0.0001610   -2.2096351  
O   -2.2206238    0.0000908   -2.7970408  
C    0.1454514    0.0001820   -2.9324241  
H    3.1367977   -0.0000646   -3.5160953  
H   -2.9844351    0.0001027   -0.9290163  
C    0.9350719   -0.7259382   -5.2319051  
C    0.6347934   -0.5089061   -6.5383526  
C   -0.4715636    0.4184311   -6.5675990  
C   -0.7935145    0.7260955   -5.1610140  
N    0.0950440    0.0004357   -4.4015596  
C   -1.7824145    1.5667848   -4.7647529  
C   -2.5832523    2.2114556   -5.7921736  
O   -3.4968510    2.9850783   -5.5369349  
C   -2.2600300    1.9000098   -7.2882797  
O   -2.9277035    2.4366218   -8.1620757  
C   -1.1693061    0.9767230   -7.5911241  
H    1.1315070   -0.9484311   -7.3849380  
H   -2.0020381    1.7788965   -3.7276012  
H   -0.9517793    0.7665421   -8.6295027  
H    1.6992183   -1.3555751   -4.8058451  
C    0.8576279    0.7185626    2.2703808  
C    0.0000000    0.0000000    1.4700000  
C   -0.8668858   -0.7285659    2.3373528  
C   -0.4876752   -0.4117774    3.6669281  
N    0.5635254    0.4678311    3.5902241  
C   -1.1297612   -0.9515493    4.7854808  
C   -2.1738724   -1.8268314    4.5576857  
O   -2.8357962   -2.3827064    5.6140350  
C   -2.5667212   -2.1555554    3.2384331  
O   -3.6226318   -3.0413663    3.1773122  
C   -1.9335634   -1.6236449    2.1344818  
H    1.0363952    0.8769718    4.3757045  
H   -0.8454472   -0.7142436    5.8013813  
H   -3.5178062   -2.9546422    5.2385129  
H   -3.8247440   -3.2102924    2.2519915  
H   -2.2566033   -1.8942483    1.1360343  
H    1.6567807    1.3889844    2.0042067  
