62

C    4.7916548   -0.6823169   -7.4087082  
C    4.2303297    0.5703295   -7.3178294  
C    5.0222937    1.4409342   -8.1237083  
C    6.0614677    0.6565499   -8.6865433  
N    5.8930502   -0.6272823   -8.2304426  
C    7.0338926    1.1886596   -9.5386228  
C    6.9556764    2.5371040   -9.8280324  
O    7.8794615    3.1081459  -10.6548004  
C    5.9265039    3.3363347   -9.2759003  
O    5.9848485    4.6603954   -9.6590480  
C    4.9670057    2.8121224   -8.4350126  
H    6.4749938   -1.4094343   -8.4703633  
H    7.8285525    0.5962097   -9.9707367  
H    7.6447735    4.0428335  -10.7222158  
H    5.2554689    5.1298733   -9.2428759  
H    4.1908447    3.4490853   -8.0271771  
H    4.4943542   -1.6103773   -6.9512430  
C    2.8912669   -0.6998115   -3.3332351  
C    1.7334695    0.0049281   -3.2500363  
C    1.6041102    0.7488995   -4.4807305  
C    2.7899385    0.4174236   -5.2935812  
N    3.5303612   -0.4649349   -4.5411803  
C    3.0393026    0.9187046   -6.5298013  
C    2.0755510    1.8468028   -7.0975619  
O    2.2101249    2.3528611   -8.2039503  
C    0.8125767    2.2121885   -6.2542380  
O   -0.0056406    2.9927353   -6.7217081  
C    0.6534234    1.6072169   -4.9341882  
H   -0.2239001    1.8652504   -4.3567402  
H    3.3315067   -1.3708305   -2.6136436  
H    4.3999325   -0.8765954   -4.8265370  
C    1.1319246    0.0015678   -0.8009268  
C    0.7969914    0.0034958   -2.1169401  
C   -0.6453340    0.0035696   -2.1842669  
C   -1.1266832    0.0015410   -0.7896025  
N    0.0000000    0.0000000    0.0000000  
C   -2.4346129    0.0013913   -0.4276292  
C   -3.4350111    0.0031335   -1.4820181  
O   -4.6384614    0.0030875   -1.2583914  
C   -2.9478961    0.0050442   -2.9661074  
O   -3.7809382    0.0062135   -3.8623773  
C   -1.5113825    0.0053055   -3.2312122  
H   -2.7664565    0.0000174    0.6013448  
H   -1.1823533    0.0068381   -4.2614848  
H    2.1104316    0.0009435   -0.3488059  
C    2.5285572    2.1210227    2.9438989  
C    1.9331703    1.6216660    4.0790748  
C    0.8903039    0.7472258    3.6520102  
C    0.8972198    0.7527806    2.2336141  
N    1.9028376    1.5986179    1.8362361  
C    0.0000000    0.0000000    1.4700000  
C   -0.9207814   -0.7726952    2.1506477  
O   -1.8198395   -1.5274828    1.4542253  
C   -0.9436862   -0.7911793    3.5655508  
O   -1.9197945   -1.6098497    4.0950179  
C   -0.0590329   -0.0485852    4.3195194  
H    2.2150357    1.8593692    5.0905303  
H    2.1533708    1.7953814    0.8841339  
H   -2.3621246   -1.9821033    2.1118817  
H   -1.8668290   -1.5649508    5.0545920  
H   -0.1007624   -0.0827977    5.4019087  
H    3.3491200    2.8096064    2.8367138  
