60

C    3.4497185   -0.7084685   -2.8313370  
C    4.7277972   -0.4583052   -3.2745100  
C    4.6186625    0.4497396   -4.3691078  
C    3.2380226    0.7205535   -4.5491655  
N    2.5562222   -0.0001542   -3.6002998  
C    2.7591278    1.5793430   -5.5431117  
C    3.6909770    2.1758461   -6.3701666  
O    3.2780229    3.0234689   -7.3570888  
C    5.0728187    1.9178918   -6.2064857  
O    5.8738728    2.5871740   -7.1085489  
C    5.5459556    1.0705763   -5.2263205  
H    5.6279511   -0.8794476   -2.8605605  
H    1.7081250    1.7897823   -5.6856247  
H    4.0763374    3.3243550   -7.8103276  
H    6.7909278    2.3580490   -6.9293420  
H    6.6101108    0.8921709   -5.1252065  
H    3.1046851   -1.3372253   -2.0284827  
C    0.0000000    0.0000000    0.0000000  
C    1.0541691   -0.0001719   -0.8560389  
C    0.5103143   -0.0000448   -2.1935953  
C   -0.9576364    0.0002464   -2.0455731  
N   -1.2018458   -0.0001389   -0.6915972  
C   -1.8348303    0.0008322   -3.0810611  
C   -1.2972837    0.0009745   -4.4314603  
O   -2.0050658    0.0014276   -5.4301322  
C    0.2542633    0.0004194   -4.6117570  
O    0.7184681    0.0002269   -5.7439118  
C    1.0974560    0.0000881   -3.4189126  
H    2.0940754   -0.0005481   -0.5817976  
H   -2.1128195    0.0014913   -0.2706792  
C   -4.3137498    2.1424310   -0.2077338  
C   -5.5591243    1.7353210   -0.5466765  
C   -5.3648104    0.8246404   -1.6644432  
C   -3.9011710    0.7979210   -1.8733226  
N   -3.2797686    1.5684038   -1.0223203  
C   -3.2941065    0.0012879   -2.9038247  
C   -4.1120049   -0.7354729   -3.6896746  
O   -3.6822277   -1.5242473   -4.6892582  
C   -5.5930492   -0.7299485   -3.5035618  
O   -6.2763252   -1.4248011   -4.2555822  
C   -6.1916575    0.0955198   -2.4395154  
H   -6.4941450    2.0180131   -0.0940210  
H   -4.4926426   -1.9161849   -5.0617706  
H   -7.2683262    0.0718762   -2.3372599  
H   -4.0287176    2.8244773    0.5774687  
C    1.0965515   -0.0001358    2.2710304  
C    0.0000000    0.0000000    1.4700000  
C   -1.1546562   -0.0001469    2.3369512  
C   -0.6372014   -0.0003519    3.7186280  
N    0.7342871   -0.0007337    3.6095011  
C   -1.4147739   -0.0001353    4.8308716  
C   -2.8576048    0.0001048    4.6554461  
O   -3.6427778    0.0002493    5.5944904  
C   -3.4275839    0.0000726    3.2011665  
O   -4.6406829   -0.0000333    3.0410059  
C   -2.4891866    0.0001091    2.0816745  
H   -1.0150448   -0.0001615    5.8354244  
H   -2.8919121    0.0002919    1.0779135  
H    2.1388271   -0.0000662    1.9961646  
H    1.3735872    0.0006099    4.3830260  
