62

C    5.2369228   -1.1100388   -8.7293691  
C    5.6717612   -0.7343172   -9.9792561  
C    5.4392938    0.6680865  -10.0968229  
C    4.8561474    1.0970087   -8.8770313  
N    4.7455560   -0.0078468   -8.0697627  
C    4.4934198    2.4260090   -8.6383338  
C    4.7238480    3.3386961   -9.6493157  
O    4.3889834    4.6495705   -9.4690769  
C    5.3043675    2.9299808  -10.8735571  
O    5.4692942    3.9563742  -11.7805634  
C    5.6622065    1.6190070  -11.1098306  
H    6.1024061   -1.3905323  -10.7160866  
H    4.0484540    2.7592789   -7.7108984  
H    4.6300632    5.1076077  -10.2847643  
H    5.8667241    3.5957193  -12.5790500  
H    6.1048312    1.3356745  -12.0576095  
H    5.2370829   -2.0772958   -8.2567456  
C    5.9718891   -2.1066115   -4.3836097  
C    5.8824617   -1.6421429   -5.6565381  
C    4.7503164   -0.7470245   -5.6994995  
C    4.1834492   -0.7279189   -4.3374836  
N    4.9692736   -1.5728897   -3.5882214  
C    3.1006054    0.0006263   -3.9654951  
C    2.4499046    0.8204920   -4.9739315  
O    1.4681174    1.5123812   -4.7379557  
C    3.0331140    0.8153163   -6.4229465  
O    2.4935217    1.5013961   -7.2804980  
C    4.2049177   -0.0107667   -6.7027951  
H    6.5349997   -1.8975860   -6.4723545  
H    6.6857550   -2.7940673   -3.9597116  
H    4.8362804   -1.7697855   -2.6132382  
C    3.2798083    0.0005857   -1.4499652  
C    2.5571142    0.0005565   -2.5996556  
C    1.1637432    0.0001548   -2.2210361  
C    1.1336964   -0.0000200   -0.7459473  
N    2.4483512   -0.0001428   -0.3402723  
C    0.0000000    0.0000000    0.0000000  
C   -1.2757368   -0.0000186   -0.6964415  
O   -2.3524598   -0.0000639   -0.1142311  
C   -1.2676497   -0.0000872   -2.2584083  
O   -2.3355766   -0.0004101   -2.8557295  
C    0.0181558    0.0001758   -2.9516296  
H    0.0150788    0.0003319   -4.0331631  
H    4.3498547    0.0008612   -1.3200026  
H    2.7563626    0.0012823    0.6148059  
C    0.8676693    0.7151171    2.2619005  
C    0.5875920    0.4624972    3.5848544  
C   -0.5048400   -0.4542819    3.6114698  
C   -0.8517165   -0.7276451    2.2635546  
N    0.0000000    0.0000000    1.4700000  
C   -1.8902865   -1.5946756    1.9108239  
C   -2.5912627   -2.1969500    2.9375057  
O   -3.6148162   -3.0527051    2.6493466  
C   -2.2603868   -1.9365747    4.2886322  
O   -3.0513550   -2.6123276    5.1947621  
C   -1.2361111   -1.0811317    4.6373480  
H    1.1060808    0.8876438    4.4271209  
H   -2.1597133   -1.8070987    0.8854031  
H   -3.9636755   -3.3565188    3.4974381  
H   -2.7621927   -2.3810384    6.0827341  
H   -1.0058879   -0.9010589    5.6809233  
H    1.6167816    1.3499334    1.8205408  
