60

C   -7.0223136    4.2421567    2.6446698  
C   -6.0249965    4.9056176    3.3211641  
C   -4.7893836    4.5274365    2.7171446  
C   -5.0981941    3.6238425    1.6682974  
N   -6.4624018    3.4711315    1.6530213  
C   -4.1187238    3.0460985    0.8548852  
C   -2.8035772    3.3869681    1.1046363  
O   -1.8072873    2.8521317    0.3401950  
C   -2.4754473    4.2864550    2.1467835  
O   -1.1221820    4.5250849    2.2695517  
C   -3.4411787    4.8565849    2.9498034  
H   -6.1701147    5.5784465    4.1489542  
H   -6.9748861    2.8966157    1.0086047  
H   -0.9786582    3.2163843    0.6777724  
H   -0.9867419    5.1420635    2.9952220  
H   -3.1595106    5.5421058    3.7404997  
H   -8.0886346    4.2568187    2.7919850  
C   -4.4297989    2.1087668   -0.2339402  
C   -5.6380128    1.6447699   -0.6450376  
C   -5.3911879    0.7496341   -1.7507698  
C   -3.9296547    0.7300037   -1.9515860  
N   -3.4052355    1.5747187   -1.0006228  
C   -3.2941076    0.0012878   -2.9038237  
C   -4.1035800   -0.8182215   -3.7902177  
O   -3.6253056   -1.5102279   -4.6794206  
C   -5.6534083   -0.8124880   -3.5957852  
O   -6.3452678   -1.4982644   -4.3362598  
C   -6.2225102    0.0137342   -2.5340264  
H   -6.5931621    1.9005366   -0.2220868  
H   -7.2964266    0.0119726   -2.4058679  
H   -2.4284984    1.7712471   -0.8805870  
C    0.0000000    0.0000000    0.0000000  
C    1.0541688   -0.0001723   -0.8560392  
C    0.5103136   -0.0000455   -2.1935956  
C   -0.9576373    0.0002461   -2.0455730  
N   -1.2018460   -0.0001389   -0.6915968  
C   -1.8348314    0.0008319   -3.0810607  
C   -1.2972851    0.0009739   -4.4314603  
O   -2.0050676    0.0014268   -5.4301316  
C    0.2542619    0.0004184   -4.6117572  
O    0.7184666    0.0002257   -5.7439122  
C    1.0974551    0.0000873   -3.4189129  
H    2.0940752   -0.0005484   -0.5817983  
H    2.1707276   -0.0000912   -3.5523673  
H   -2.1128194    0.0014915   -0.2706789  
C    1.0672568    0.0000697    2.3021913  
C    0.0000000    0.0000000    1.4700000  
C   -1.1601224    0.0000736    2.3478473  
C   -0.5938729    0.0000769    3.7138435  
N    0.7113367    0.0001554    3.6934124  
C   -1.4286986    0.0001879    4.8835240  
C   -2.7683114    0.0006799    4.6970523  
O   -3.6653903    0.0008304    5.6976972  
C   -3.3702025    0.0010610    3.3310774  
O   -4.5974910    0.0013779    3.2362962  
C   -2.4926826    0.0008943    2.1470656  
H   -0.9878360   -0.0000190    5.8697035  
H   -4.5324246    0.0012261    5.2533954  
H   -2.9677772    0.0012974    1.1752040  
H    2.1134392    0.0000545    2.0405121  
