64

C    6.9462793    0.6782360   -5.2076000  
C    7.6085734   -0.1396578   -4.3216638  
C    8.9976243   -0.0538780   -4.6343607  
C    9.1234165    0.8391574   -5.7291622  
N    7.8588789    1.2638366   -6.0535206  
C   10.3563904    1.1622641   -6.3037654  
C   11.4829271    0.5733600   -5.7631327  
O   12.7122318    0.8541367   -6.2856126  
C   11.3778020   -0.3205194   -4.6710037  
O   12.5899295   -0.8242824   -4.2463698  
C   10.1617458   -0.6399394   -4.1038152  
H    7.1471710   -0.7268285   -3.5462084  
H    7.6346877    1.9129483   -6.7858955  
H   10.4589705    1.8420416   -7.1383800  
H   13.3510135    0.3456421   -5.7692241  
H   12.4300602   -1.4185018   -3.5068100  
H   10.1124697   -1.3281041   -3.2680640  
C    3.4064261   -0.7320644   -2.9766973  
C    4.6700290   -0.5172684   -3.4253019  
C    4.5733626    0.4097454   -4.5280876  
C    3.1395867    0.7196571   -4.6862998  
N    2.4861704   -0.0045255   -3.7159919  
C    2.6336018    1.5607562   -5.6234423  
C    3.5631621    2.2035284   -6.5373883  
O    3.2058152    2.9773465   -7.4159155  
C    5.0860057    1.8896873   -6.3882055  
O    5.8780981    2.4246880   -7.1521584  
C    5.5107682    0.9661703   -5.3391362  
H    5.5674034   -0.9580708   -3.0290369  
H    1.5784194    1.7745296   -5.7224441  
H    3.0700424   -1.3608068   -2.1683539  
C    0.0000000    0.0000000    0.0000000  
C    1.0521669   -0.0011848   -0.8862341  
C    0.4917221   -0.0011931   -2.1979130  
C   -0.9187427    0.0003100   -2.0478683  
N   -1.1833170   -0.0009472   -0.7007915  
C   -1.7951698    0.0010259   -3.1372090  
C   -1.2375835    0.0005161   -4.4010425  
O   -2.0474208    0.0015256   -5.4997580  
C    0.1673584   -0.0013557   -4.5711962  
O    0.5673529   -0.0020659   -5.8915551  
C    1.0325773   -0.0023359   -3.4969890  
H    2.0953059   -0.0030542   -0.6200560  
H   -2.0989777    0.0102265   -0.2891825  
H   -2.8710930    0.0020274   -3.0295514  
H   -1.4634881    0.0006427   -6.2693593  
H    1.5290715   -0.0033076   -5.9180042  
C    1.1243417   -0.0099156    2.2619005  
C    0.7474090   -0.0234034    3.5848544  
C   -0.6787367   -0.0234952    3.6114698  
C   -1.1201739   -0.0099357    2.2635546  
N    0.0000000    0.0000000    1.4700000  
C   -2.4730812   -0.0065396    1.9108239  
C   -3.3971947   -0.0173298    2.9375057  
O   -4.7313508   -0.0149487    2.6493466  
C   -2.9763630   -0.0305536    4.2886322  
O   -4.0166453   -0.0397858    5.1947621  
C   -1.6418541   -0.0336380    4.6373480  
H    1.4178735   -0.0310004    4.4271209  
H   -2.8160170    0.0039190    0.8854031  
H   -5.1938803   -0.0234410    3.4974381  
H   -3.6464643   -0.0484781    6.0827341  
H   -1.3497443   -0.0436789    5.6809233  
H    2.1062470   -0.0051382    1.8205408  
