64

C   10.8313567   -2.1264393   -0.9858280  
C   11.7762670   -1.6285620   -1.8528509  
C   11.0967496   -0.7542271   -2.7519578  
C    9.7275760   -0.7583184   -2.3814518  
N    9.6007051   -1.6032216   -1.3069008  
C    8.7600214   -0.0052204   -3.0533667  
C    9.1823818    0.7662932   -4.1185214  
O    8.2793017    1.5213280   -4.8094495  
C   10.5440896    0.7833090   -4.5035953  
O   10.8061758    1.6009244   -5.5834837  
C   11.4991073    0.0404010   -3.8413606  
H   12.8259778   -1.8671592   -1.8396700  
H    8.7445480   -1.7988741   -0.8203848  
H    8.7762499    1.9749884   -5.5026289  
H   11.7471940    1.5550657   -5.7783857  
H   12.5346091    0.0734777   -4.1593519  
H   10.9376383   -2.8144836   -0.1646964  
C    6.6962559   -0.0006584    0.9128043  
C    7.6449137   -0.0016133   -0.0834455  
C    6.9440364   -0.0023813   -1.3257701  
C    5.5585247   -0.0015568   -1.0219874  
N    5.4432390   -0.0024702    0.3459766  
C    4.5679461   -0.0016854   -2.0086701  
C    4.9836054   -0.0023571   -3.3260176  
O    4.0581873   -0.0021607   -4.3293195  
C    6.3614227   -0.0035603   -3.6491825  
O    6.6142428   -0.0045344   -5.0054365  
C    7.3392016   -0.0037074   -2.6763132  
H    8.7109485   -0.0028460    0.0667588  
H    4.5782209    0.0083751    0.8554932  
H    4.5542211   -0.0030159   -5.1583030  
H    7.5672638   -0.0052861   -5.1371684  
H    6.8142878   -0.0002736    1.9828640  
C    3.1301149   -0.0010311   -1.7028252  
C    2.5367768   -0.0002767   -0.4864665  
C    1.1089904    0.0001028   -0.7656183  
C    1.0177872   -0.0004148   -2.2415132  
N    2.1993578   -0.0011611   -2.7963820  
C   -0.2459209   -0.0002877   -2.9257118  
C   -1.3675319   -0.0000605   -2.1698524  
O   -2.6129313    0.0000867   -2.6748490  
C   -1.3083584    0.0000910   -0.6783232  
O   -2.3693261    0.0004206   -0.0541692  
C    0.0000000    0.0000000    0.0000000  
H    3.0096017   -0.0001007    0.4807525  
H   -0.2829630   -0.0004687   -4.0053125  
H   -3.1967441    0.0002094   -1.8949034  
C    2.5285572    2.1210227    2.9438989  
C    1.9331703    1.6216660    4.0790748  
C    0.8903039    0.7472258    3.6520102  
C    0.8972198    0.7527806    2.2336141  
N    1.9028376    1.5986179    1.8362361  
C    0.0000000    0.0000000    1.4700000  
C   -0.9207814   -0.7726952    2.1506477  
O   -1.8198395   -1.5274828    1.4542253  
C   -0.9436862   -0.7911793    3.5655508  
O   -1.9197945   -1.6098497    4.0950179  
C   -0.0590329   -0.0485852    4.3195194  
H    2.2150357    1.8593692    5.0905303  
H    2.1533708    1.7953814    0.8841339  
H   -2.3621246   -1.9821033    2.1118817  
H   -1.8668290   -1.5649508    5.0545920  
H   -0.1007624   -0.0827977    5.4019087  
H    3.3491200    2.8096064    2.8367138  
