66

C    7.5161552   -0.6273220   -4.8403109  
C    8.8861751   -0.5573834   -4.7372441  
C    9.2545295    0.7963246   -4.9949061  
C    8.0569518    1.5120484   -5.2507816  
N    7.0205195    0.6173800   -5.1508124  
C    8.0408075    2.8789979   -5.5440027  
C    9.2557177    3.5354485   -5.5792673  
O    9.2974901    4.8704699   -5.8603124  
C   10.4613790    2.8385894   -5.3271039  
O   11.5876297    3.6320894   -5.3996224  
C   10.4780797    1.4900027   -5.0380358  
H    9.5397651   -1.3809980   -4.5060042  
H    7.1314744    3.4302338   -5.7401001  
H   10.2288302    5.1258541   -5.8348084  
H   12.3575143    3.0848709   -5.2167693  
H   11.4172245    0.9831238   -4.8494654  
H    6.8534418   -1.4668968   -4.7183128  
C    3.4043357   -0.7242382   -2.9869837  
C    2.4861704   -0.0045255   -3.7159919  
C    3.2157601    0.7227063   -4.7026190  
C    4.5865270    0.4039558   -4.5256374  
N    4.6659996   -0.4754871   -3.4745038  
C    5.5977273    0.9420304   -5.3273469  
C    5.2182040    1.8176007   -6.3261040  
O    6.1649633    2.3718700   -7.1381671  
C    3.8556303    2.1482705   -6.5181128  
O    3.6391784    3.0341207   -7.5533719  
C    2.8575497    1.6180349   -5.7274092  
H    5.5125626   -0.8857746   -3.1238232  
H    5.6928636    2.9443313   -7.7567739  
H    2.6943217    3.2044150   -7.6154184  
H    1.8225156    1.8901100   -5.8981669  
H    3.2592093   -1.3942244   -2.1569140  
C    0.0000000    0.0000000    0.0000000  
C    1.0521669   -0.0011848   -0.8862341  
C    0.4917221   -0.0011931   -2.1979130  
C   -0.9187427    0.0003100   -2.0478683  
N   -1.1833170   -0.0009472   -0.7007915  
C   -1.7951698    0.0010259   -3.1372090  
C   -1.2375835    0.0005161   -4.4010425  
O   -2.0474208    0.0015256   -5.4997580  
C    0.1673584   -0.0013557   -4.5711962  
O    0.5673529   -0.0020659   -5.8915551  
C    1.0325773   -0.0023359   -3.4969890  
H    2.0953059   -0.0030542   -0.6200560  
H   -2.0989777    0.0102265   -0.2891825  
H   -2.8710930    0.0020274   -3.0295514  
H   -1.4634881    0.0006427   -6.2693593  
H    1.5290715   -0.0033076   -5.9180042  
C    3.3003543   -0.0005276    2.9438989  
C    2.5232812   -0.0003497    4.0790748  
C    1.1623199    0.0001319    3.6520102  
C    1.1711883   -0.0000583    2.2336141  
N    2.4852299    0.0014920    1.8362361  
C    0.0000000    0.0000000    1.4700000  
C   -1.2020384   -0.0000520    2.1506477  
O   -2.3759250   -0.0003494    1.4542253  
C   -1.2314658    0.0005113    3.5655508  
O   -2.5054393    0.0008037    4.0950179  
C   -0.0764518    0.0007272    4.3195194  
H    2.8919952    0.0005619    5.0905303  
H    2.8036267   -0.0088181    0.8841339  
H   -3.0835639   -0.0000348    2.1118817  
H   -2.4360050    0.0011527    5.0545920  
H   -0.1304098    0.0013421    5.4019087  
H    4.3715549   -0.0004895    2.8367138  
