62

C    9.9004161    0.7090644   -1.0465261  
C   11.2498626    0.4586343   -1.1400477  
C   11.5781501   -0.4510796   -0.0915977  
C   10.3784277   -0.7225895    0.6147155  
N    9.3795277   -0.0006751    0.0100222  
C   10.3271027   -1.5830119    1.7155458  
C   11.5083515   -2.1804625    2.1103655  
O   11.5149420   -3.0296879    3.1789096  
C   12.7155924   -1.9218361    1.4186293  
O   13.8058806   -2.5922184    1.9336065  
C   12.7670182   -1.0729099    0.3327168  
H   11.9159167    0.8806736   -1.8730199  
H    9.4159557   -1.7939892    2.2582252  
H   12.4269316   -3.3310039    3.2825885  
H   14.5794210   -2.3625418    1.4096893  
H   13.7064799   -0.8940244   -0.1770770  
H    9.2685370    1.3389139   -1.6490022  
C    5.6692779    0.0013336   -2.3388885  
C    4.7630507    0.0004755   -1.3275395  
C    5.5107326   -0.0007787   -0.0923043  
C    6.9370637   -0.0005501   -0.4696231  
N    6.9650299    0.0003506   -1.8451617  
C    7.9663628   -0.0010977    0.4148248  
C    7.6481553   -0.0021966    1.8330202  
O    8.5043591   -0.0028173    2.7077864  
C    6.1443527   -0.0027088    2.2553733  
O    5.8642069   -0.0039399    3.4464981  
C    5.1238530   -0.0017577    1.2101785  
H    4.0849829   -0.0019149    1.5109647  
H    5.4995508    0.0023846   -3.4033514  
H    7.7983617    0.0022629   -2.4042690  
C    3.3003548    0.0005276   -1.4738982  
C    2.5232817    0.0003497   -2.6090743  
C    1.1623204   -0.0001319   -2.1820101  
C    1.1711886    0.0000583   -0.7636140  
N    2.4852302   -0.0014919   -0.3662356  
C    0.0000000    0.0000000    0.0000000  
C   -1.2020379    0.0000520   -0.6806479  
O   -2.3759249    0.0003495    0.0157742  
C   -1.2314652   -0.0005112   -2.0955511  
O   -2.5054384   -0.0008036   -2.6250184  
C   -0.0764510   -0.0007271   -2.8495195  
H    2.8919962   -0.0005619   -3.6205297  
H    2.8036267    0.0088181    0.5858667  
H   -3.0835636    0.0000348   -0.6418823  
H   -2.4360038   -0.0011526   -3.5845925  
H   -0.1304090   -0.0013420   -3.9319089  
C    2.3971438    2.0127888    3.1728260  
C    1.9431056    1.6308205    1.9564670  
C    0.8496017    0.7127664    2.2356185  
C    0.7794028    0.6545384    3.7115134  
N    1.6840587    1.4146091    4.2663826  
C   -0.1885723   -0.1578550    4.3957118  
C   -1.0476298   -0.8789867    3.6398520  
O   -2.0015663   -1.6796266    4.1448486  
C   -1.0022026   -0.8410666    2.1483229  
O   -1.8147390   -1.5232959    1.5241687  
C    0.0000000    0.0000000    1.4700000  
H    2.3054237    1.9346118    0.9892483  
H   -0.2170646   -0.1815267    5.4753125  
H   -2.4487139   -2.0549881    3.3649027  
H    3.2048689    2.6911772    3.3971983  
