64

C    0.4064071    0.0983733   -8.7893375  
C    1.4519442   -0.5483093   -9.4066876  
C    1.4414683   -0.1448936  -10.7748049  
C    0.3580440    0.7565327  -10.9346436  
N   -0.2504453    0.8804876   -9.7103103  
C    0.0472304    1.3558996  -12.1589576  
C    0.8448395    1.0397533  -13.2415697  
O    0.5860975    1.5969188  -14.4604350  
C    1.9301403    0.1422596  -13.1021271  
O    2.6289434   -0.0710094  -14.2723986  
C    2.2371827   -0.4496117  -11.8946757  
H    2.1371381   -1.2281274   -8.9298755  
H   -1.0439628    1.4630270   -9.5129309  
H   -0.7772257    2.0436363  -12.2873838  
H    1.2513647    1.2471054  -15.0673250  
H    3.3442853   -0.6883365  -14.0912997  
H    3.0746063   -1.1332743  -11.8184819  
C    1.9332186   -2.1183845   -5.2802478  
C    1.0132699   -1.6573354   -4.3672334  
C    0.1425864   -0.7692371   -5.0656542  
C    0.5838246   -0.7278052   -6.4130661  
N    1.6739349   -1.5567573   -6.5085374  
C   -0.0442370    0.0493840   -7.3909739  
C   -1.1378295    0.7981573   -7.0016523  
O   -1.7886902    1.5745666   -7.9163018  
C   -1.5929066    0.7703229   -5.6618962  
O   -2.6929017    1.5705682   -5.4317601  
C   -0.9736297    0.0040464   -4.6965763  
H    0.9751829   -1.9269942   -3.3256834  
H    2.1939842   -1.7372808   -7.3481452  
H   -2.5110525    2.0070696   -7.4425943  
H   -2.9357434    1.4942922   -4.5039595  
H    2.7546834   -2.8023052   -5.1521543  
C    1.1188642    0.0008222   -0.8003808  
C    0.0000000    0.0000000    0.0000000  
C   -1.1323862    0.0008899   -0.8673528  
C   -0.6382663    0.0019679   -2.1969280  
N    0.7324016    0.0038481   -2.1202242  
C   -1.4770914    0.0027318   -3.3154808  
C   -2.8395473    0.0020945   -3.0876857  
O   -3.7039201    0.0024425   -4.1440349  
C   -3.3517868    0.0013931   -1.7684331  
O   -4.7300497    0.0012366   -1.7073121  
C   -2.5248543    0.0009123   -0.6644817  
H    1.3576314   -0.0056167   -2.9057046  
H   -4.5940032    0.0021826   -3.7685128  
H   -4.9934602    0.0007259   -0.7819913  
H   -2.9462577    0.0005603    0.3339659  
H    2.1619895    0.0009355   -0.5342068  
C    0.8400945    0.7047457    2.2710304  
C    0.0000000    0.0000000    1.4700000  
C   -0.8844236   -0.7423113    2.3369512  
C   -0.4878984   -0.4098547    3.7186280  
N    0.5629682    0.4714286    3.6095011  
C   -1.0836927   -0.9095027    4.8308716  
C   -2.1891196   -1.8367527    4.6554461  
O   -2.7906899   -2.3413415    5.5944904  
C   -2.6257283   -2.2031529    3.2011665  
O   -3.5549479   -2.9829990    3.0410059  
C   -1.9068976   -1.5999348    2.0816745  
H   -0.7774656   -0.6525820    5.8354244  
H   -2.2155208   -1.8586617    1.0779135  
H    1.6384792    1.3747609    1.9961646  
H    1.0518368    0.8833920    4.3830260  
