62

C    7.3478076   -0.3751664   -5.3604312  
C    6.7422192    0.8406274   -5.5785494  
C    7.7834973    1.7933179   -5.7852413  
C    9.0135270    1.0946839   -5.6810133  
N    8.7128749   -0.2192748   -5.4207470  
C   10.2543158    1.7214869   -5.8305082  
C   10.2533729    3.0782155   -6.0902486  
O   11.4370064    3.7399874   -6.2454377  
C    9.0365079    3.7927502   -6.1974543  
O    9.2025349    5.1372374   -6.4584795  
C    7.8120767    3.1750943   -6.0498203  
H    9.3845734   -0.9566087   -5.3061116  
H   11.1953438    1.1946845   -5.7520919  
H   11.2128344    4.6639461   -6.4166423  
H    8.3332855    5.5455868   -6.5155761  
H    6.8966605    3.7485610   -6.1371540  
H    6.9140517   -1.3409273   -5.1651860  
C    3.4075051   -0.7135436   -3.0380983  
C    4.6431440   -0.4602656   -3.5872018  
C    4.4415535    0.4568466   -4.6609182  
C    3.0508655    0.7297251   -4.7196559  
N    2.4521483    0.0014840   -3.7217481  
C    2.4894551    1.5969074   -5.6617819  
C    3.3476058    2.1998352   -6.5607998  
O    2.8524827    3.0557657   -7.5016764  
C    4.7381013    1.9399506   -6.5183756  
O    5.4595883    2.6163301   -7.4803063  
C    5.2926064    1.0843579   -5.5893912  
H    5.5750094   -0.8851980   -3.2554603  
H    1.4303405    1.8089636   -5.7118855  
H    3.6093213    3.3600514   -8.0192390  
H    6.3883749    2.3853431   -7.3823091  
H    3.1318943   -1.3487722   -2.2137910  
C    0.0000000    0.0000000    0.0000000  
C    1.0662923   -0.0000101   -0.8334270  
C    0.4961873    0.0000065   -2.1718887  
C   -0.9663854   -0.0000848   -1.9540250  
N   -1.2632773   -0.0000083   -0.6828660  
C   -1.8985359   -0.0000514   -3.0477261  
C   -1.3925770    0.0004566   -4.3020547  
O   -2.1456378    0.0005414   -5.4151314  
C    0.0786240    0.0009326   -4.5545000  
O    0.4683767    0.0012591   -5.7221100  
C    1.0143171    0.0008444   -3.4159031  
H    2.1107200    0.0000633   -0.5721865  
H   -2.9622181   -0.0003268   -2.8593381  
H   -1.5042265    0.0009697   -6.1484419  
C    0.0000000    0.0000000    1.4700000  
C    1.0541688    0.0001722    2.3260392  
C    0.5103138    0.0000454    3.6635956  
C   -0.9576371   -0.0002459    3.5155732  
N   -1.2018458    0.0001392    2.1615969  
C   -1.8348311   -0.0008317    4.5510609  
C   -1.2972847   -0.0009736    5.9014604  
O   -2.0050672   -0.0014265    6.9001319  
C    0.2542623   -0.0004184    6.0817573  
O    0.7184670   -0.0002256    7.2139121  
C    1.0974552   -0.0000873    4.8889129  
H    2.0940752    0.0005483    2.0517982  
H   -2.9081052   -0.0011668    4.4207061  
H    2.1707277    0.0000911    5.0223670  
H   -2.1128194   -0.0014912    1.7406791  
