60

C   -3.4023856    0.0128652   -8.3085205  
C   -4.4210887    0.0123040   -7.3840143  
C   -5.6462565    0.0133692   -8.1144678  
C   -5.3093515    0.0142803   -9.4922994  
N   -3.9390180    0.0158966   -9.5747610  
C   -6.2720082    0.0151488  -10.5062432  
C   -7.5989393    0.0147897  -10.1222790  
O   -8.5797723    0.0152508  -11.0714797  
C   -7.9550365    0.0142581   -8.7526029  
O   -9.3169621    0.0143743   -8.5323638  
C   -7.0058836    0.0136744   -7.7517867  
H   -4.2964800    0.0123609   -6.3146848  
H   -3.4089086    0.0062681  -10.4273303  
H   -6.0217490    0.0159896  -11.5581803  
H   -9.4204072    0.0151848  -10.5954577  
H   -9.4714996    0.0139643   -7.5827735  
H   -7.3088884    0.0134575   -6.7112740  
C   -1.0641738    0.0073911   -4.6315339  
C    0.2051247    0.0079407   -5.1010655  
C    0.0692340    0.0101849   -6.5495228  
C   -1.3902933    0.0106360   -6.7869341  
N   -2.0598290    0.0090850   -5.6663495  
C   -1.9455307    0.0127607   -8.1123747  
C   -1.0819577    0.0147510   -9.1533232  
O   -1.4607000    0.0168502  -10.4427375  
C    0.3963089    0.0147283   -8.9462286  
O    1.1228021    0.0164817   -9.9399213  
C    0.9412630    0.0124831   -7.5769422  
H    1.1205717    0.0070365   -4.5344694  
H   -0.6266011    0.0179438  -10.9461564  
H    2.0176805    0.0126567   -7.4694464  
C    1.1319245    0.0015656   -0.8009271  
C    0.7969914    0.0034943   -2.1169404  
C   -0.6453340    0.0035712   -2.1842672  
C   -1.1266833    0.0015434   -0.7896027  
N    0.0000000    0.0000000    0.0000000  
C   -2.4346131    0.0013965   -0.4276296  
C   -3.4350110    0.0031409   -1.4820182  
O   -4.6384610    0.0030975   -1.2583916  
C   -2.9478961    0.0050507   -2.9661073  
O   -3.7809383    0.0062220   -3.8623773  
C   -1.5113824    0.0053091   -3.2312124  
H    1.4821237    0.0045409   -2.9459193  
H   -2.7664564    0.0000233    0.6013449  
H    2.1104315    0.0009392   -0.3488061  
C    0.0000000    0.0000000    1.4700000  
C    1.0541688    0.0001722    2.3260392  
C    0.5103138    0.0000454    3.6635956  
C   -0.9576371   -0.0002459    3.5155732  
N   -1.2018458    0.0001392    2.1615969  
C   -1.8348311   -0.0008317    4.5510609  
C   -1.2972847   -0.0009736    5.9014604  
O   -2.0050672   -0.0014265    6.9001319  
C    0.2542623   -0.0004184    6.0817573  
O    0.7184670   -0.0002256    7.2139121  
C    1.0974552   -0.0000873    4.8889129  
H    2.0940752    0.0005483    2.0517982  
H   -2.9081052   -0.0011668    4.4207061  
H    2.1707277    0.0000911    5.0223670  
H   -2.1128194   -0.0014912    1.7406791  
