62

C    9.4164877   -4.2392367   -6.1571749  
C    9.8163233   -4.9031096   -5.0205696  
C    8.9171811   -4.5253434   -3.9796880  
C    7.9817265   -3.6215664   -4.5454072  
N    8.3148219   -3.4683522   -5.8683545  
C    6.9454237   -3.0441293   -3.8055204  
C    6.8515680   -3.3854997   -2.4702918  
O    5.8583294   -2.8509795   -1.7016698  
C    7.7756175   -4.2851763   -1.8875987  
O    7.5492538   -4.5243128   -0.5478537  
C    8.7983680   -4.8550036   -2.6168480  
H   10.6537731   -5.5759396   -4.9500564  
H    7.8223743   -2.8936050   -6.5280073  
H    5.9734587   -3.2155596   -0.8144883  
H    8.2164155   -5.1413889   -0.2320762  
H    9.4911205   -5.5406806   -2.1431208  
H    9.8308441   -4.2535159   -7.1506859  
C    5.9718892   -2.1066112   -4.3836112  
C    5.8824610   -1.6421421   -5.6565394  
C    4.7503159   -0.7470241   -5.6995007  
C    4.1834490   -0.7279187   -4.3374842  
N    4.9692736   -1.5728895   -3.5882225  
C    3.1006054    0.0006263   -3.9654951  
C    2.4499042    0.8204921   -4.9739311  
O    1.4681172    1.5123811   -4.7379552  
C    3.0331132    0.8153166   -6.4229463  
O    2.4935205    1.5013966   -7.2804980  
C    4.2049168   -0.0107663   -6.7027955  
H    6.5349989   -1.8975853   -6.4723559  
H    4.6026857   -0.0086178   -7.7085287  
H    4.8362807   -1.7697856   -2.6132391  
C    3.2798083    0.0005857   -1.4499652  
C    2.5571142    0.0005565   -2.5996556  
C    1.1637432    0.0001548   -2.2210361  
C    1.1336964   -0.0000200   -0.7459473  
N    2.4483512   -0.0001428   -0.3402723  
C    0.0000000    0.0000000    0.0000000  
C   -1.2757368   -0.0000186   -0.6964415  
O   -2.3524598   -0.0000639   -0.1142311  
C   -1.2676497   -0.0000872   -2.2584083  
O   -2.3355766   -0.0004101   -2.8557295  
C    0.0181558    0.0001758   -2.9516296  
H    0.0150788    0.0003319   -4.0331631  
H    4.3498547    0.0008612   -1.3200026  
H    2.7563626    0.0012823    0.6148059  
C    2.5285572    2.1210227    2.9438989  
C    1.9331703    1.6216660    4.0790748  
C    0.8903039    0.7472258    3.6520102  
C    0.8972198    0.7527806    2.2336141  
N    1.9028376    1.5986179    1.8362361  
C    0.0000000    0.0000000    1.4700000  
C   -0.9207814   -0.7726952    2.1506477  
O   -1.8198395   -1.5274828    1.4542253  
C   -0.9436862   -0.7911793    3.5655508  
O   -1.9197945   -1.6098497    4.0950179  
C   -0.0590329   -0.0485852    4.3195194  
H    2.2150357    1.8593692    5.0905303  
H    2.1533708    1.7953814    0.8841339  
H   -2.3621246   -1.9821033    2.1118817  
H   -1.8668290   -1.5649508    5.0545920  
H   -0.1007624   -0.0827977    5.4019087  
H    3.3491200    2.8096064    2.8367138  
