62

C    5.8992832    0.0461452   -4.6496045  
C    6.2226739    0.0333387   -3.3125473  
C    7.6465941    0.0319726   -3.2285777  
C    8.1419138    0.0446627   -4.5576461  
N    7.0545807    0.0510852   -5.3956684  
C    9.5079196    0.0473254   -4.8556563  
C   10.3899714    0.0372963   -3.7926121  
O   11.7346416    0.0397149   -4.0268505  
C    9.9151103    0.0241938   -2.4595137  
O   10.9180865    0.0149041   -1.5122576  
C    8.5676498    0.0212864   -2.1647791  
H    5.5188597    0.0247917   -2.4979522  
H    7.0949804    0.0708504   -6.3986438  
H    9.8918410    0.0568316   -5.8664571  
H   12.1626689    0.0312064   -3.1608346  
H   10.5124732    0.0063557   -0.6398987  
H    8.2337826    0.0109719   -1.1338066  
C    1.6628972    0.0337774   -3.2649299  
C    3.0162025    0.0329607   -3.2529402  
C    3.4037232    0.0459987   -4.6551376  
C    2.1237308    0.0535434   -5.3955064  
N    1.0997901    0.0465116   -4.5858853  
C    2.0755560    0.0671417   -6.8316752  
C    3.2525887    0.0733281   -7.4979267  
O    3.3565999    0.0859909   -8.8377253  
C    4.5608689    0.0663576   -6.7792364  
O    5.5929755    0.0724795   -7.4500116  
C    4.5838551    0.0523656   -5.3057374  
H    3.6706629    0.0246397   -2.3981374  
H    1.1260108    0.0722085   -7.3466974  
H    4.3151302    0.0875710   -9.0119996  
C    1.1243417    0.0099160   -0.7919004  
C    0.7474091    0.0234036   -2.1148543  
C   -0.6787366    0.0234950   -2.1414699  
C   -1.1201739    0.0099353   -0.7935547  
N    0.0000000    0.0000000    0.0000000  
C   -2.4730814    0.0065387   -0.4408241  
C   -3.3971947    0.0173286   -1.4675058  
O   -4.7313509    0.0149470   -1.1793468  
C   -2.9763629    0.0305525   -2.8186324  
O   -4.0166449    0.0397843   -3.7247623  
C   -1.6418539    0.0336374   -3.1673480  
H   -2.8160170   -0.0039200    0.5845965  
H   -5.1938800    0.0234391   -2.0274383  
H   -3.6464639    0.0484767   -4.6127342  
H   -1.3497441    0.0436783   -4.2109235  
H    2.1062470    0.0051389   -0.3505406  
C    0.0000000    0.0000000    1.4700000  
C    1.0541688    0.0001722    2.3260392  
C    0.5103138    0.0000454    3.6635956  
C   -0.9576371   -0.0002459    3.5155732  
N   -1.2018458    0.0001392    2.1615969  
C   -1.8348311   -0.0008317    4.5510609  
C   -1.2972847   -0.0009736    5.9014604  
O   -2.0050672   -0.0014265    6.9001319  
C    0.2542623   -0.0004184    6.0817573  
O    0.7184670   -0.0002256    7.2139121  
C    1.0974552   -0.0000873    4.8889129  
H    2.0940752    0.0005483    2.0517982  
H   -2.9081052   -0.0011668    4.4207061  
H    2.1707277    0.0000911    5.0223670  
H   -2.1128194   -0.0014912    1.7406791  
