60

C    1.6927202   -2.3775011   -7.8009187  
C    1.2609980   -1.0740754   -7.7162733  
C    1.5978207   -0.4429374   -8.9502972  
C    2.2384893   -1.4190216   -9.7557347  
N    2.2814304   -2.5816132   -9.0269319  
C    2.7072503   -1.1468714  -11.0445269  
C    2.5256851    0.1338805  -11.5291783  
O    2.9640130    0.4537161  -12.7816104  
C    1.8890899    1.1216202  -10.7405509  
O    1.7838007    2.3478639  -11.3639151  
C    1.4266378    0.8539177   -9.4689378  
H    2.6695967   -3.4514646   -9.3442118  
H    3.1964957   -1.8863528  -11.6634043  
H    2.7411673    1.3835167  -12.9197237  
H    1.3426351    2.9571012  -10.7640760  
H    0.9431187    1.6309080   -8.8884446  
H    1.6285667   -3.1773340   -7.0832066  
C    0.9070721   -0.7042926   -5.2310448  
C    0.0950446    0.0004351   -4.4015596  
C   -0.8184769    0.7430225   -5.2375488  
C   -0.4696135    0.4107476   -6.6320657  
N    0.5842459   -0.4707048   -6.5591861  
C   -1.1031229    0.9106726   -7.7231412  
C   -2.2017460    1.8380505   -7.5097575  
O   -2.8350881    2.3428871   -8.4275364  
C   -2.5881747    2.2042622   -6.0413003  
O   -3.5112398    2.9842135   -5.8492391  
C   -1.8314682    1.6007481   -4.9472170  
H   -0.8315613    0.6538815   -8.7376471  
H   -2.1054516    1.8593459   -3.9334198  
H    1.7143129   -1.3744694   -4.9838303  
C    3.3321173    0.0004713   -1.3379338  
C    2.6974181    0.0000116   -2.5332314  
C    1.2800438   -0.0002119   -2.2052841  
C    1.2395034    0.0000643   -0.7271299  
N    2.4394062    0.0005460   -0.2131038  
C    0.0000000    0.0000000    0.0000000  
C   -1.1468702    0.0000634   -0.7169543  
O   -2.3742203    0.0000074   -0.1695487  
C   -1.1388770    0.0001607   -2.2096355  
O   -2.2206234    0.0000905   -2.7970411  
C    0.1454522    0.0001815   -2.9324241  
H    3.1367984   -0.0000653   -3.5160950  
H   -2.9844346    0.0001026   -0.9290167  
H    4.3940038    0.0007618   -1.1498640  
C    2.4951002    2.0940188    2.9809380  
C    1.9440701    1.6314916    1.8291961  
C    0.8759964    0.7350050    2.2038498  
C    0.8497377    0.7130254    3.6788474  
N    1.8560616    1.5571714    4.0882609  
C   -0.0205033   -0.0168748    4.4215661  
C   -0.9962600   -0.8356168    3.7214979  
O   -1.8224391   -1.5286685    4.3006425  
C   -0.9864710   -0.8277881    2.1595606  
O   -1.8030528   -1.5133726    1.5592035  
C    0.0000000    0.0000000    1.4700000  
H    2.2509283    1.8888011    0.8310761  
H   -0.0229599   -0.0187323    5.5027230  
H    3.3143982    2.7817323    3.1139444  
H    2.0889452    1.7545833    5.0442112  
