62

C    0.8852651   -0.7074224   -5.2161081  
C    0.5993479   -0.4569338   -6.5382184  
C   -0.5006908    0.4507935   -6.5615734  
C   -0.8459774    0.7210872   -5.2126308  
N    0.0139746    0.0003883   -4.4216235  
C   -1.8906661    1.5794580   -4.8568025  
C   -2.5995120    2.1760697   -5.8813861  
O   -3.6292747    3.0232984   -5.5901738  
C   -2.2703418    1.9186314   -7.2334922  
O   -3.0694396    2.5879581   -8.1372551  
C   -1.2400308    1.0717294   -7.5852626  
H    1.1189326   -0.8776614   -7.3820272  
H   -2.1589204    1.7895004   -3.8305844  
H   -3.9830433    3.3243423   -6.4372189  
H   -2.7809036    2.3591936   -9.0260844  
H   -1.0112977    0.8937151   -8.6295177  
H    1.6408477   -1.3360923   -4.7769872  
C    3.2798087    0.0005858   -1.4499643  
C    2.5571149    0.0005569   -2.5996548  
C    1.1637440    0.0001551   -2.2210358  
C    1.1336966   -0.0000198   -0.7459468  
N    2.4483512   -0.0001426   -0.3402714  
C    0.0000000    0.0000000    0.0000000  
C   -1.2757369   -0.0000185   -0.6964416  
O   -2.3524599   -0.0000639   -0.1142315  
C   -1.2676492   -0.0000870   -2.2584080  
O   -2.3355760   -0.0004099   -2.8557298  
C    0.0181565    0.0001762   -2.9516296  
H    2.9547360    0.0006079   -3.5989102  
H    2.7563627    0.0012824    0.6148067  
C    5.6685275    0.0007288   -2.2869283  
C    4.7390849    0.0009618   -1.2727274  
C    5.4635798   -0.0000954   -0.0440263  
C    6.8430314   -0.0006636   -0.3742361  
N    6.9321478   -0.0020923   -1.7441533  
C    7.8522879   -0.0014297    0.5933327  
C    7.4618846   -0.0013188    1.9183845  
O    8.4063107   -0.0016938    2.9038146  
C    6.0904953   -0.0011308    2.2678260  
O    5.8636441   -0.0014638    3.6286647  
C    5.0942997   -0.0006483    1.3138234  
H    7.7872783    0.0077883   -2.2701143  
H    8.9054286   -0.0020095    0.3481860  
H    7.9262118   -0.0018360    3.7421280  
H    4.9133145   -0.0012805    3.7785886  
H    4.0523277   -0.0006965    1.6117709  
H    5.5300643    0.0009060   -3.3545366  
C    0.0000000    0.0000000    1.4700000  
C    1.0662921    0.0000102    2.3034270  
C    0.4961870   -0.0000064    3.6418889  
C   -0.9663858    0.0000850    3.4240247  
N   -1.2632773    0.0000084    2.1528658  
C   -1.8985362    0.0000517    4.5177257  
C   -1.3925775   -0.0004564    5.7720543  
O   -2.1456383   -0.0005410    6.8851312  
C    0.0786232   -0.0009323    6.0245000  
O    0.4683759   -0.0012588    7.1921102  
C    1.0143166   -0.0008442    4.8859032  
H    2.1107198   -0.0000632    2.0421868  
H   -2.9622183    0.0003270    4.3293377  
H   -1.5042274   -0.0009692    7.6184419  
H    2.0724152   -0.0013148    5.1109744  
