62

C   -7.3207891    3.2468893    0.3589370  
C   -6.9435647    1.9943670   -0.0669232  
C   -8.0509351    1.1252775    0.1633251  
C   -9.0841865    1.9104163    0.7359271  
N   -8.6070579    3.1932162    0.8426515  
C  -10.3272425    1.3798244    1.0938012  
C  -10.5310540    0.0321505    0.8692706  
O  -11.7266215   -0.5374063    1.1997821  
C   -9.5122367   -0.7678144    0.2992854  
O   -9.8686175   -2.0909556    0.1391846  
C   -8.2855931   -0.2450998   -0.0537598  
H   -9.1217128    3.9756032    1.2045679  
H  -11.1188262    1.9728551    1.5307338  
H  -11.6583729   -1.4717793    0.9640839  
H   -9.1254652   -2.5610160   -0.2511640  
H   -7.5245081   -0.8825950   -0.4883032  
H   -6.7735854    4.1739946    0.3572310  
C   -4.4297979    2.1087671   -0.2339399  
C   -5.6380117    1.6447705   -0.6450366  
C   -5.3911869    0.7496343   -1.7507692  
C   -3.9296544    0.7300039   -1.9515854  
N   -3.4052348    1.5747190   -1.0006226  
C   -3.2941076    0.0012878   -2.9038237  
C   -4.1035805   -0.8182213   -3.7902174  
O   -3.6253061   -1.5102281   -4.6794204  
C   -5.6534092   -0.8124880   -3.5957845  
O   -6.3452685   -1.4982638   -4.3362583  
C   -6.2225101    0.0137343   -2.5340255  
H   -7.2964264    0.0119731   -2.4058665  
H   -4.2016951    2.7960861    0.5644653  
H   -2.4284977    1.7712471   -0.8805870  
C    0.0000000    0.0000000    0.0000000  
C    1.0541688   -0.0001723   -0.8560392  
C    0.5103136   -0.0000455   -2.1935956  
C   -0.9576373    0.0002461   -2.0455730  
N   -1.2018460   -0.0001389   -0.6915968  
C   -1.8348314    0.0008319   -3.0810607  
C   -1.2972851    0.0009739   -4.4314603  
O   -2.0050676    0.0014268   -5.4301316  
C    0.2542619    0.0004184   -4.6117572  
O    0.7184666    0.0002257   -5.7439122  
C    1.0974551    0.0000873   -3.4189129  
H    2.0940752   -0.0005484   -0.5817983  
H    2.1707276   -0.0000912   -3.5523673  
H   -2.1128194    0.0014915   -0.2706789  
C    3.3003543   -0.0005276    2.9438989  
C    2.5232812   -0.0003497    4.0790748  
C    1.1623199    0.0001319    3.6520102  
C    1.1711883   -0.0000583    2.2336141  
N    2.4852299    0.0014920    1.8362361  
C    0.0000000    0.0000000    1.4700000  
C   -1.2020384   -0.0000520    2.1506477  
O   -2.3759250   -0.0003494    1.4542253  
C   -1.2314658    0.0005113    3.5655508  
O   -2.5054393    0.0008037    4.0950179  
C   -0.0764518    0.0007272    4.3195194  
H    2.8919952    0.0005619    5.0905303  
H    2.8036267   -0.0088181    0.8841339  
H   -3.0835639   -0.0000348    2.1118817  
H   -2.4360050    0.0011527    5.0545920  
H   -0.1304098    0.0013421    5.4019087  
H    4.3715549   -0.0004895    2.8367138  
