60

C    7.3692885   -0.5379760   -5.2210768  
C    8.7405625   -0.4301353   -5.2421293  
C    9.0466328    0.9342569   -5.5238284  
C    7.8115402    1.6171362   -5.6657754  
N    6.8134651    0.6934902   -5.4777870  
C    7.7312531    2.9841438   -5.9479710  
C    8.9194282    3.6744237   -6.0891478  
O    8.8987807    5.0110907   -6.3646594  
C   10.1617108    3.0106410   -5.9515143  
O   11.2544760    3.8355704   -6.1209211  
C   10.2416710    1.6620194   -5.6733932  
H    9.4348516   -1.2359816   -5.0760910  
H    6.7930567    3.5104442   -6.0575066  
H    9.8212123    5.2923181   -6.4220784  
H   12.0525390    3.3094357   -6.0119171  
H   11.2076415    1.1809188   -5.5737832  
H    6.7437301   -1.3961815   -5.0446716  
C    3.4164201   -0.7248687   -3.0395957  
C    4.6504342   -0.5074357   -3.5630528  
C    4.4860928    0.4201596   -4.6573078  
C    3.0448514    0.7275388   -4.7289411  
N    2.4521483    0.0014840   -3.7217481  
C    2.4820253    1.5683510   -5.6333557  
C    3.3539025    2.2134654   -6.6009263  
O    2.9430853    2.9872304   -7.4558052  
C    4.8835167    1.9023274   -6.5436540  
O    5.6273698    2.4393134   -7.3533383  
C    5.3721317    0.9788703   -5.5227059  
H    5.5707633   -0.9468576   -3.2217088  
H    1.4224208    1.7802485   -5.6686830  
H    3.1302859   -1.3547876   -2.2130249  
C    0.0000000    0.0000000    0.0000000  
C    1.0662923   -0.0000101   -0.8334270  
C    0.4961873    0.0000065   -2.1718887  
C   -0.9663854   -0.0000848   -1.9540250  
N   -1.2632773   -0.0000083   -0.6828660  
C   -1.8985359   -0.0000514   -3.0477261  
C   -1.3925770    0.0004566   -4.3020547  
O   -2.1456378    0.0005414   -5.4151314  
C    0.0786240    0.0009326   -4.5545000  
O    0.4683767    0.0012591   -5.7221100  
C    1.0143171    0.0008444   -3.4159031  
H    2.1107200    0.0000633   -0.5721865  
H   -2.9622181   -0.0003268   -2.8593381  
H   -1.5042265    0.0009697   -6.1484419  
C    0.0000000    0.0000000    1.4700000  
C    1.0541688    0.0001722    2.3260392  
C    0.5103138    0.0000454    3.6635956  
C   -0.9576371   -0.0002459    3.5155732  
N   -1.2018458    0.0001392    2.1615969  
C   -1.8348311   -0.0008317    4.5510609  
C   -1.2972847   -0.0009736    5.9014604  
O   -2.0050672   -0.0014265    6.9001319  
C    0.2542623   -0.0004184    6.0817573  
O    0.7184670   -0.0002256    7.2139121  
C    1.0974552   -0.0000873    4.8889129  
H    2.0940752    0.0005483    2.0517982  
H   -2.9081052   -0.0011668    4.4207061  
H    2.1707277    0.0000911    5.0223670  
H   -2.1128194   -0.0014912    1.7406791  
