62

C    6.7688485   -2.1173129   -2.0583825  
C    7.3511581   -2.9679079   -1.1474103  
C    8.7498656   -2.9828455   -1.4266873  
C    8.9637172   -2.1147176   -2.5278446  
N    7.7399841   -1.6073577   -2.8879546  
C   10.2295722   -1.8854090   -3.0754007  
C   11.2990677   -2.5442417   -2.5006855  
O   12.5570692   -2.3562391   -2.9957606  
C   11.1058311   -3.4146814   -1.4016809  
O   12.2693892   -3.9960092   -0.9417517  
C    9.8572807   -3.6415825   -0.8611600  
H    6.8315610   -3.5116795   -0.3771344  
H    7.5791488   -0.9536112   -3.6327555  
H   10.3991966   -1.2250818   -3.9146847  
H   13.1463251   -2.9012780   -2.4581961  
H   12.0508686   -4.5682216   -0.1998447  
H    9.7402047   -4.3139653   -0.0193335  
C    4.2926938   -2.1403418   -1.5040809  
C    5.3604705   -1.7320209   -2.2284474  
C    4.8134481   -0.8208707   -3.2219619  
C    3.3612071   -0.7952320   -2.9446110  
N    3.0500067   -1.5667026   -1.9386404  
C    2.4521483    0.0014840   -3.7217481  
C    2.9703733    0.7393567   -4.7298754  
O    2.2390468    1.5283419   -5.5352978  
C    4.4316781    0.7349404   -5.0343912  
O    4.8335664    1.4307754   -5.9668718  
C    5.3436397   -0.0906368   -4.2228043  
H    2.8845127    1.9211529   -6.1502980  
H    6.3952202   -0.0661691   -4.4754093  
H    4.2782621   -2.8230632   -0.6694219  
C    0.0000000    0.0000000    0.0000000  
C    1.0662923   -0.0000101   -0.8334270  
C    0.4961873    0.0000065   -2.1718887  
C   -0.9663854   -0.0000848   -1.9540250  
N   -1.2632773   -0.0000083   -0.6828660  
C   -1.8985359   -0.0000514   -3.0477261  
C   -1.3925770    0.0004566   -4.3020547  
O   -2.1456378    0.0005414   -5.4151314  
C    0.0786240    0.0009326   -4.5545000  
O    0.4683767    0.0012591   -5.7221100  
C    1.0143171    0.0008444   -3.4159031  
H    2.1107200    0.0000633   -0.5721865  
H   -2.9622181   -0.0003268   -2.8593381  
H   -1.5042265    0.0009697   -6.1484419  
C    3.3003543   -0.0005276    2.9438989  
C    2.5232812   -0.0003497    4.0790748  
C    1.1623199    0.0001319    3.6520102  
C    1.1711883   -0.0000583    2.2336141  
N    2.4852299    0.0014920    1.8362361  
C    0.0000000    0.0000000    1.4700000  
C   -1.2020384   -0.0000520    2.1506477  
O   -2.3759250   -0.0003494    1.4542253  
C   -1.2314658    0.0005113    3.5655508  
O   -2.5054393    0.0008037    4.0950179  
C   -0.0764518    0.0007272    4.3195194  
H    2.8919952    0.0005619    5.0905303  
H    2.8036267   -0.0088181    0.8841339  
H   -3.0835639   -0.0000348    2.1118817  
H   -2.4360050    0.0011527    5.0545920  
H   -0.1304098    0.0013421    5.4019087  
H    4.3715549   -0.0004895    2.8367138  
