60

C    6.4776671   -0.0020911    3.7152382  
C    7.2731049   -0.0034291    2.5928544  
C    8.6269379   -0.0041751    3.0420037  
C    8.5949957   -0.0035175    4.4600673  
N    7.2746660   -0.0003033    4.8360141  
C    9.7536064   -0.0042815    5.2426345  
C   10.9665574   -0.0060430    4.5816320  
O   12.1289574   -0.0072055    5.2970607  
C   11.0189992   -0.0063479    3.1673954  
O   12.3014173   -0.0077538    2.6587244  
C    9.8764049   -0.0053214    2.3947360  
H    6.9408113   -0.0097045    5.7828164  
H    9.7360153   -0.0036425    6.3237878  
H   12.8472020   -0.0080490    4.6510038  
H   12.2476029   -0.0078964    1.6981477  
H    9.9479642   -0.0054050    1.3133673  
H    5.4048657   -0.0008246    3.8049818  
C    6.7921787   -0.0024529    1.2037505  
C    5.5119019   -0.0013791    0.7650373  
C    5.6127417   -0.0007797   -0.6862830  
C    7.0661036   -0.0015327   -0.9589046  
N    7.7625294   -0.0025955    0.1451691  
C    7.5891409   -0.0012857   -2.2973807  
C    6.7006590   -0.0007189   -3.3171523  
O    7.0481224   -0.0004246   -4.6153470  
C    5.2278296   -0.0003233   -3.0743867  
O    4.4775294    0.0003121   -4.0502297  
C    4.7161325   -0.0005435   -1.6923264  
H    4.6104180   -0.0011262    1.3535969  
H    8.6559200   -0.0016445   -2.4673550  
H    6.2020990   -0.0000590   -5.0984587  
C    3.2573665   -0.0002920   -1.5109385  
C    2.5379463   -0.0001709   -0.3591964  
C    1.1435038    0.0000331   -0.7338500  
C    1.1092599   -0.0000083   -2.2088477  
N    2.4227553    0.0001909   -2.6182613  
C   -0.0265539   -0.0002524   -2.9515660  
C   -1.3003040   -0.0002640   -2.2514977  
O   -2.3786790   -0.0004133   -2.8306421  
C   -1.2877727    0.0000311   -0.6895603  
O   -2.3539959    0.0003306   -0.0892030  
C    0.0000000    0.0000000    0.0000000  
H    2.9384091   -0.0000367    0.6389234  
H   -0.0296303   -0.0004086   -4.0327229  
H    2.7280482   -0.0013407   -3.5742119  
C    0.8175213    0.6860729    2.3021913  
C    0.0000000    0.0000000    1.4700000  
C   -0.8887526   -0.7456559    2.3478473  
C   -0.4549825   -0.3816753    3.7138435  
N    0.5448156    0.4573574    3.6934124  
C   -1.0945674   -0.9182058    4.8835240  
C   -2.1210866   -1.7789155    4.6970523  
O   -2.8083856   -2.3554314    5.6976972  
C   -2.5824069   -2.1655116    3.3310774  
O   -3.5227682   -2.9541547    3.2362962  
C   -1.9100805   -1.6015804    2.1470656  
H   -0.7567140   -0.6349833    5.8697035  
H   -3.4728268   -2.9124471    5.2533954  
H   -2.2742832   -1.9066565    1.1752040  
H    1.6189533    1.3585343    2.0405121  
