60

C    5.5305766   -3.0357197   -2.2727897  
C    5.5296738   -3.6844783   -1.0597030  
C    6.7140607   -4.4778572   -1.0109590  
C    7.4043451   -4.2707233   -2.2326498  
N    6.6574260   -3.3912509   -2.9764633  
C    8.6182737   -4.8969513   -2.5309889  
C    9.1451104   -5.7475440   -1.5785643  
O   10.3281507   -6.3847327   -1.8181847  
C    8.4710837   -5.9673629   -0.3537445  
O    9.1235212   -6.8418713    0.4905918  
C    7.2733425   -5.3501210   -0.0588637  
H    4.7683957   -3.5975381   -0.3034688  
H    6.9020145   -3.0484351   -3.8878555  
H    9.1492737   -4.7433960   -3.4603234  
H   10.5119412   -6.9222313   -1.0367875  
H    8.6023846   -6.9348551    1.2939439  
H    6.7801533   -5.5381471    0.8876503  
C    4.5546440   -2.0975048   -2.8456843  
C    3.3966019   -1.6333850   -2.3093948  
C    2.8128206   -0.7373020   -3.2794823  
C    3.7322607   -0.7172945   -4.4331806  
N    4.7679899   -1.5620810   -4.1068522  
C    3.5352967    0.0116911   -5.5607837  
C    2.3379415    0.8314599   -5.6435736  
O    2.0707004    1.5238122   -6.6169856  
C    1.3504333    0.8257213   -4.4333664  
O    0.3391711    1.5121845   -4.4914814  
C    1.6707636   -0.0012343   -3.2725974  
H    2.9970337   -1.8893867   -1.3442927  
H    4.2221656    0.0121016   -6.3957216  
H    5.5563145   -1.7607940   -4.6951595  
C    1.0965514    0.0001358   -0.8010306  
C    0.0000000    0.0000000    0.0000000  
C   -1.1546565    0.0001470   -0.8669508  
C   -0.6372019    0.0003520   -2.2486278  
N    0.7342867    0.0007338   -2.1395012  
C   -1.4147744    0.0001354   -3.3608712  
C   -2.8576052   -0.0001047   -3.1854454  
O   -3.6427785   -0.0002490   -4.1244896  
C   -3.4275841   -0.0000727   -1.7311660  
O   -4.6406832    0.0000333   -1.5710049  
C   -2.4891868   -0.0001090   -0.6116739  
H   -1.0150456    0.0001617   -4.3654239  
H   -2.8919122   -0.0002919    0.3920871  
H    2.1388270    0.0000663   -0.5261650  
C    2.5128556    2.1077716    2.9199648  
C    1.9592212    1.6432552    4.0696553  
C    0.8915788    0.7479214    3.6910360  
C    0.8684491    0.7287414    2.2159470  
N    1.8754542    1.5738793    1.8102719  
C    0.0000000    0.0000000    1.4700000  
C   -0.9772830   -0.8200135    2.1664417  
O   -1.8021297   -1.5120829    1.5842315  
C   -0.9711318   -0.8147624    3.7284083  
O   -1.7894187   -1.5009653    4.3257297  
C    0.0140216    0.0115358    4.4216297  
H    2.2638494    1.8988021    5.0689105  
H    0.0117648    0.0094386    5.5031631  
H    3.3327358    2.7953732    2.7900019  
H    2.1123206    1.7707734    0.8551938  
