64

C    4.9635583    0.0900295   -7.8601744  
C    6.0501003   -0.5573046   -8.4013328  
C    6.1365025   -0.1552844   -9.7671707  
C    5.0671893    0.7460013  -10.0041923  
N    4.3735978    0.8712181   -8.8261143  
C    4.8438489    1.3441257  -11.2480398  
C    5.7160392    1.0268585  -12.2711737  
O    5.5442503    1.5827858  -13.5058585  
C    6.7886676    0.1294844  -12.0543684  
O    7.5685126   -0.0849931  -13.1720383  
C    7.0094405   -0.4611616  -10.8276155  
H    6.6997717   -1.2366506   -7.8765382  
H    3.5681566    1.4539754   -8.6859745  
H    4.0306120    2.0317485  -11.4351848  
H    6.2507631    1.2323396  -14.0637942  
H    8.2691881   -0.7021504  -12.9401455  
H    7.8393091   -1.1447640  -10.6916584  
C    6.2380164   -2.1231804   -4.2495877  
C    5.2558083   -1.6611808   -3.4044306  
C    4.4368138   -0.7737768   -4.1636158  
C    4.9722984   -0.7337286   -5.4764672  
N    6.0663544   -1.5628008   -5.4937160  
C    4.4150850    0.0424761   -6.4971570  
C    3.2967540    0.7916695   -6.1869598  
O    2.7123220    1.5671595   -7.1461625  
C    2.7480081    0.7652113   -4.8827381  
O    1.6345602    1.5657143   -4.7318325  
C    3.2973506   -0.0000934   -3.8752374  
H    5.1440869   -1.9297761   -2.3679137  
H    6.6444975   -1.7441919   -6.2942341  
H    1.9582895    2.0001608   -6.7251997  
H    1.3266648    1.4903899   -3.8234657  
H    7.0482934   -2.8069876   -4.0629900  
C    3.3321174    0.0004714   -1.3379332  
C    2.6974186    0.0000115   -2.5332308  
C    1.2800441   -0.0002119   -2.2052838  
C    1.2395035    0.0000643   -0.7271293  
N    2.4394063    0.0005458   -0.2131034  
C    0.0000000    0.0000000    0.0000000  
C   -1.1468701    0.0000634   -0.7169542  
O   -2.3742201    0.0000072   -0.1695492  
C   -1.1388767    0.0001606   -2.2096354  
O   -2.2206229    0.0000903   -2.7970413  
C    0.1454526    0.0001815   -2.9324239  
H   -2.9844344    0.0001023   -0.9290168  
H    0.1083580    0.0003680   -4.0135594  
H    4.3940040    0.0007617   -1.1498630  
C    0.0000000    0.0000000    1.4700000  
C    1.0521667    0.0011902    2.3562342  
C    0.4917218    0.0011957    3.6679131  
C   -0.9187428   -0.0003148    3.5178682  
N   -1.1833171    0.0009411    2.1707914  
C   -1.7951701   -0.0010350    4.6072090  
C   -1.2375837   -0.0005224    5.8710424  
O   -2.0474215   -0.0015360    6.9697579  
C    0.1673580    0.0013566    6.0411963  
O    0.5673524    0.0020687    7.3615553  
C    1.0325770    0.0023412    4.9669890  
H    2.0953057    0.0030649    2.0900562  
H   -2.0989778   -0.0102372    1.7591824  
H   -2.8710934   -0.0020419    4.4995513  
H   -1.4634884   -0.0006497    7.7393593  
H    1.5290710    0.0033153    7.3880045  
H    2.1042148    0.0039609    5.1284455  
