60

C    4.5938588   -0.0516110   -6.5963383  
C    5.7839905   -0.7078505   -6.8094211  
C    6.2494596   -0.3174568   -8.0999753  
C    5.2939477    0.5862407   -8.6312510  
N    4.3007979    0.7240149   -7.6935477  
C    5.4291964    1.1750107   -9.8921432  
C    6.5495870    0.8457356  -10.6300325  
O    6.7315377    1.3921735  -11.8674940  
C    7.5139311   -0.0542307  -10.1172773  
O    8.5725648   -0.2811191  -10.9723564  
C    7.3810195   -0.6356529   -8.8735706  
H    6.2577639   -1.3855186   -6.1200028  
H    3.4918225    1.3112185   -7.7869899  
H    4.7044372    1.8644109  -10.3028183  
H    7.5631720    1.0342360  -12.2044380  
H    9.1772008   -0.8992247  -10.5504981  
H    8.1360181   -1.3215230   -8.5074596  
C    4.5533949   -2.1376043   -2.6578821  
C    4.9399046   -1.7283669   -3.8886194  
C    3.8940259   -0.8167857   -4.3264062  
C    2.9285540   -0.7919270   -3.2066609  
N    3.3097737   -1.5641892   -2.2257060  
C    1.7334695    0.0049281   -3.2500363  
C    1.5131091    0.7436790   -4.3613521  
O    0.4396992    1.5328949   -4.5373375  
C    2.4688038    0.7400642   -5.5079972  
O    2.2042975    1.4366800   -6.4877849  
C    3.6875675   -0.0856734   -5.4394566  
H    5.8254286   -2.0102064   -4.4322095  
H    0.5632902    1.9263771   -5.4199756  
H    5.0606860   -2.8208826   -1.9954926  
C    1.1319246    0.0015678   -0.8009268  
C    0.7969914    0.0034958   -2.1169401  
C   -0.6453340    0.0035696   -2.1842669  
C   -1.1266832    0.0015410   -0.7896025  
N    0.0000000    0.0000000    0.0000000  
C   -2.4346129    0.0013913   -0.4276292  
C   -3.4350111    0.0031335   -1.4820181  
O   -4.6384614    0.0030875   -1.2583914  
C   -2.9478961    0.0050442   -2.9661074  
O   -3.7809382    0.0062135   -3.8623773  
C   -1.5113825    0.0053055   -3.2312122  
H   -2.7664565    0.0000174    0.6013448  
H   -1.1823533    0.0068381   -4.2614848  
H    2.1104316    0.0009435   -0.3488059  
C    2.3971438    2.0127888    3.1728260  
C    1.9431056    1.6308205    1.9564670  
C    0.8496017    0.7127664    2.2356185  
C    0.7794028    0.6545384    3.7115134  
N    1.6840587    1.4146091    4.2663826  
C   -0.1885723   -0.1578550    4.3957118  
C   -1.0476298   -0.8789867    3.6398520  
O   -2.0015663   -1.6796266    4.1448486  
C   -1.0022026   -0.8410666    2.1483229  
O   -1.8147390   -1.5232959    1.5241687  
C    0.0000000    0.0000000    1.4700000  
H    2.3054237    1.9346118    0.9892483  
H   -0.2170646   -0.1815267    5.4753125  
H   -2.4487139   -2.0549881    3.3649027  
H    3.2048689    2.6911772    3.3971983  
