62

C    1.4507224   -2.4163464   -7.7211901  
C    1.0181723   -1.1136823   -7.6293534  
C    1.3363111   -0.4810576   -8.8675670  
C    1.9669589   -1.4554919   -9.6828501  
N    2.0221716   -2.6185713   -8.9556531  
C    2.4168128   -1.1816004  -10.9779963  
C    2.2262919    0.0992288  -11.4589925  
O    2.6461592    0.4207294  -12.7173096  
C    1.5994580    1.0853381  -10.6605656  
O    1.4833091    2.3118885  -11.2813937  
C    1.1556596    0.8159175   -9.3826840  
H    2.4071521   -3.4875537   -9.2791362  
H    2.8983421   -1.9198191  -11.6043877  
H    2.4198766    1.3502752  -12.8514887  
H    1.0497905    2.9199555  -10.6748300  
H    0.6792473    1.5916838   -8.7947252  
H    1.3981134   -3.2168313   -7.0032659  
C    0.6776466   -0.7282711   -5.1604461  
C    0.3570671   -0.5122885   -6.4622354  
C   -0.7499183    0.4146722   -6.4749880  
C   -1.0501144    0.7232591   -5.0638015  
N   -0.1496415   -0.0015615   -4.3176961  
C   -2.0330281    1.5639197   -4.6528576  
C   -2.8499207    2.2075843   -5.6681985  
O   -3.7597068    2.9810996   -5.3993800  
C   -2.5498407    1.8951507   -7.1689128  
O   -3.2311660    2.4309114   -8.0326354  
C   -1.4636387    0.9719933   -7.4879704  
H   -2.2366081    1.7767176   -3.6125776  
H   -1.2621751    0.7611250   -8.5294453  
H    1.4485190   -1.3573518   -4.7458346  
C    3.3003543    0.0005276   -1.4738987  
C    2.5232814    0.0003497   -2.6090747  
C    1.1623200   -0.0001320   -2.1820103  
C    1.1711883    0.0000582   -0.7636140  
N    2.4852300   -0.0014919   -0.3662360  
C    0.0000000    0.0000000    0.0000000  
C   -1.2020384    0.0000519   -0.6806477  
O   -2.3759249    0.0003493    0.0157743  
C   -1.2314656   -0.0005115   -2.0955510  
O   -2.5054392   -0.0008039   -2.6250180  
C   -0.0764516   -0.0007274   -2.8495195  
H    2.8919955   -0.0005620   -3.6205304  
H    2.8036267    0.0088183    0.5858662  
H   -3.0835638    0.0000347   -0.6418818  
H   -2.4360047   -0.0011529   -3.5845921  
H    4.3715549    0.0004895   -1.3667136  
C    2.5528530    2.1414826    2.8079335  
C    2.0663498    1.7338582    4.0032312  
C    0.9804344    0.8229586    3.6752840  
C    0.9495562    0.7966882    2.1971295  
N    1.8690446    1.5676019    1.6831036  
C    0.0000000    0.0000000    1.4700000  
C   -0.8785127   -0.7372425    2.1869543  
O   -1.8187535   -1.5261249    1.6395491  
C   -0.8723269   -0.7321790    3.6796354  
O   -1.7010379   -1.4274584    4.2670412  
C    0.1115397    0.0933559    4.4024240  
H    2.4028853    2.0163452    4.9860947  
H   -2.2861435   -1.9184361    2.3990168  
H    0.0832434    0.0693689    5.4835595  
H    3.3664920    2.8238276    2.6198634  
