62

C    1.4751621   -0.0000335   -7.8706057  
C    0.3179252    0.0009696   -7.1267848  
C   -0.7699832    0.0010942   -8.0493122  
C   -0.2104345   -0.0001542   -9.3527039  
N    1.1547325    0.0011365   -9.2080185  
C   -0.9926676   -0.0006985  -10.5115401  
C   -2.3647571   -0.0002764  -10.3516964  
O   -3.1755961   -0.0011266  -11.4496730  
C   -2.9418889    0.0013416   -9.0595147  
O   -4.3214861    0.0019934   -9.0669256  
C   -2.1708088    0.0021527   -7.9158537  
H    0.2644546    0.0026463   -6.0515495  
H    1.8181976   -0.0098749   -9.9614592  
H   -0.5723331   -0.0015054  -11.5077922  
H   -4.0832321   -0.0003412  -11.1188243  
H   -4.6305314    0.0030603   -8.1558310  
H   -2.6412828    0.0035738   -6.9395701  
C    3.2973507   -0.0000930   -3.8752373  
C    4.6090968    0.0000005   -4.2265165  
C    4.6584749   -0.0001365   -5.6695683  
C    3.2579284   -0.0002896   -6.1335299  
N    2.4824025   -0.0006539   -4.9971105  
C    2.8797120   -0.0000495   -7.4368546  
C    3.9215751    0.0001629   -8.4502930  
O    3.6829943    0.0003252   -9.6508680  
C    5.4116105    0.0000756   -7.9816786  
O    6.2974484   -0.0000538   -8.8258060  
C    5.6945664    0.0000910   -6.5485741  
H    5.4465358   -0.0000337   -3.5517507  
H    6.7288538    0.0002356   -6.2323876  
H    1.4789637    0.0007241   -4.9846260  
C    3.3321175    0.0004715   -1.3379331  
C    2.6974186    0.0000117   -2.5332308  
C    1.2800441   -0.0002117   -2.2052838  
C    1.2395036    0.0000644   -0.7271292  
N    2.4394065    0.0005460   -0.2131033  
C    0.0000000    0.0000000    0.0000000  
C   -1.1468701    0.0000635   -0.7169542  
O   -2.3742199    0.0000073   -0.1695491  
C   -1.1388766    0.0001607   -2.2096354  
O   -2.2206227    0.0000905   -2.7970412  
C    0.1454526    0.0001817   -2.9324239  
H   -2.9844344    0.0001026   -0.9290168  
H    0.1083579    0.0003683   -4.0135594  
H    4.3940038    0.0007619   -1.1498630  
C    0.8576279    0.7185626    2.2703808  
C    0.0000000    0.0000000    1.4700000  
C   -0.8668858   -0.7285659    2.3373528  
C   -0.4876752   -0.4117774    3.6669281  
N    0.5635254    0.4678311    3.5902241  
C   -1.1297612   -0.9515493    4.7854808  
C   -2.1738724   -1.8268314    4.5576857  
O   -2.8357962   -2.3827064    5.6140350  
C   -2.5667212   -2.1555554    3.2384331  
O   -3.6226318   -3.0413663    3.1773122  
C   -1.9335634   -1.6236449    2.1344818  
H    1.0363952    0.8769718    4.3757045  
H   -0.8454472   -0.7142436    5.8013813  
H   -3.5178062   -2.9546422    5.2385129  
H   -3.8247440   -3.2102924    2.2519915  
H   -2.2566033   -1.8942483    1.1360343  
H    1.6567807    1.3889844    2.0042067  
