60

C    3.7086908   -2.1204980   -4.1261746  
C    2.7487699   -1.6589363   -4.9967947  
C    3.4010458   -0.7718970   -5.9036008  
C    4.7699371   -0.7316099   -5.5342230  
N    4.9220992   -1.5601945   -4.4502891  
C    5.7140273    0.0443465   -6.2134666  
C    5.2681657    0.7930414   -7.2853071  
O    6.1478793    1.5682708   -7.9839742  
C    3.9062006    0.7663383   -7.6689162  
O    3.6190125    1.5663445   -8.7555881  
C    2.9742268    0.0012781   -6.9991141  
H    1.7064031   -1.9275817   -4.9796444  
H    5.7878482   -1.7413272   -3.9752630  
H    6.7587488    0.0795060   -5.9368371  
H    5.6370684    2.0009361   -8.6804924  
H    2.6795996    1.4908825   -8.9490108  
H    3.6235402   -2.8039434   -3.2987626  
C   -0.8287671    0.0000935   -4.7555305  
C    0.4829789    0.0003533   -5.1068098  
C    0.5323572    0.0005984   -6.5498610  
C   -0.8681890    0.0004884   -7.0138227  
N   -1.6437154   -0.0002183   -5.8774035  
C   -1.2464054    0.0010497   -8.3171481  
C   -0.2045426    0.0015872   -9.3305866  
O   -0.4431238    0.0020517  -10.5311605  
C    1.2854927    0.0014608   -8.8619716  
O    2.1713305    0.0016029   -9.7060991  
C    1.5684486    0.0011152   -7.4288673  
H    1.3204180    0.0001888   -4.4320437  
H   -2.2794297    0.0010872   -8.6361648  
H   -2.6471542    0.0010998   -5.8649191  
C    1.0672566   -0.0000698   -0.8321912  
C    0.0000000    0.0000000    0.0000000  
C   -1.1601226   -0.0000736   -0.8778472  
C   -0.5938732   -0.0000770   -2.2438435  
N    0.7113365   -0.0001555   -2.2234123  
C   -1.4286989   -0.0001880   -3.4135239  
C   -2.7683117   -0.0006800   -3.2270522  
O   -3.6653907   -0.0008306   -4.2276967  
C   -3.3702026   -0.0010611   -1.8610771  
O   -4.5974909   -0.0013781   -1.7662957  
C   -2.4926826   -0.0008944   -0.6770655  
H   -4.5324249   -0.0012263   -3.7833950  
H   -2.9677773   -0.0012975    0.2947963  
H    2.1134390   -0.0000546   -0.5705121  
C    2.5128556    2.1077716    2.9199648  
C    1.9592212    1.6432552    4.0696553  
C    0.8915788    0.7479214    3.6910360  
C    0.8684491    0.7287414    2.2159470  
N    1.8754542    1.5738793    1.8102719  
C    0.0000000    0.0000000    1.4700000  
C   -0.9772830   -0.8200135    2.1664417  
O   -1.8021297   -1.5120829    1.5842315  
C   -0.9711318   -0.8147624    3.7284083  
O   -1.7894187   -1.5009653    4.3257297  
C    0.0140216    0.0115358    4.4216297  
H    2.2638494    1.8988021    5.0689105  
H    0.0117648    0.0094386    5.5031631  
H    3.3327358    2.7953732    2.7900019  
H    2.1123206    1.7707734    0.8551938  
