60

C   10.8934236   -2.1241513   -0.2641486  
C   11.9209650   -1.6249677   -1.0305954  
C   11.3354600   -0.7500290   -1.9930229  
C    9.9358197   -0.7551152   -1.7630111  
N    9.7013017   -1.6011647   -0.7076345  
C    9.0408288   -0.0017741   -2.5286850  
C    9.5684076    0.7710100   -3.5448750  
O    8.7394834    1.5263360   -4.3229365  
C   10.9620895    0.7890320   -3.7901234  
O   11.3316831    1.6078600   -4.8371491  
C   11.8455808    0.0458850   -3.0353386  
H   12.9640813   -1.8631033   -0.9114607  
H    8.8004065   -1.7976976   -0.3104659  
H    9.3037921    1.9809237   -4.9618181  
H   12.2876198    1.5626246   -4.9358450  
H   12.9079340    0.0797523   -3.2468518  
H   10.9164252   -2.8129793    0.5628605  
C    6.7921791   -0.0024531    1.2037504  
C    5.5119024   -0.0013790    0.7650370  
C    5.6127416   -0.0007798   -0.6862834  
C    7.0661036   -0.0015329   -0.9589053  
N    7.7625298   -0.0025956    0.1451683  
C    7.5891403   -0.0012859   -2.2973816  
C    6.7006579   -0.0007190   -3.3171529  
O    7.0481214   -0.0004248   -4.6153474  
C    5.2278291   -0.0003233   -3.0743868  
O    4.4775289    0.0003121   -4.0502301  
C    4.7161325   -0.0005435   -1.6923264  
H    4.6104185   -0.0011262    1.3535969  
H    6.2020980   -0.0000591   -5.0984586  
H    7.1449934   -0.0031694    2.2228162  
C    3.2573665   -0.0002920   -1.5109385  
C    2.5379463   -0.0001709   -0.3591964  
C    1.1435038    0.0000331   -0.7338500  
C    1.1092599   -0.0000083   -2.2088477  
N    2.4227553    0.0001909   -2.6182613  
C   -0.0265539   -0.0002524   -2.9515660  
C   -1.3003040   -0.0002640   -2.2514977  
O   -2.3786790   -0.0004133   -2.8306421  
C   -1.2877727    0.0000311   -0.6895603  
O   -2.3539959    0.0003306   -0.0892030  
C    0.0000000    0.0000000    0.0000000  
H    2.9384091   -0.0000367    0.6389234  
H   -0.0296303   -0.0004086   -4.0327229  
H    2.7280482   -0.0013407   -3.5742119  
C    2.4951002    2.0940188    2.9809380  
C    1.9440701    1.6314916    1.8291961  
C    0.8759964    0.7350050    2.2038498  
C    0.8497377    0.7130254    3.6788474  
N    1.8560616    1.5571714    4.0882609  
C   -0.0205033   -0.0168748    4.4215661  
C   -0.9962600   -0.8356168    3.7214979  
O   -1.8224391   -1.5286685    4.3006425  
C   -0.9864710   -0.8277881    2.1595606  
O   -1.8030528   -1.5133726    1.5592035  
C    0.0000000    0.0000000    1.4700000  
H    2.2509283    1.8888011    0.8310761  
H   -0.0229599   -0.0187323    5.5027230  
H    3.3143982    2.7817323    3.1139444  
H    2.0889452    1.7545833    5.0442112  
