60

C   -7.3207891    3.2468893    0.3589370  
C   -6.9435647    1.9943670   -0.0669232  
C   -8.0509351    1.1252775    0.1633251  
C   -9.0841865    1.9104163    0.7359271  
N   -8.6070579    3.1932162    0.8426515  
C  -10.3272425    1.3798244    1.0938012  
C  -10.5310540    0.0321505    0.8692706  
O  -11.7266215   -0.5374063    1.1997821  
C   -9.5122367   -0.7678144    0.2992854  
O   -9.8686175   -2.0909556    0.1391846  
C   -8.2855931   -0.2450998   -0.0537598  
H   -9.1217128    3.9756032    1.2045679  
H  -11.1188262    1.9728551    1.5307338  
H  -11.6583729   -1.4717793    0.9640839  
H   -9.1254652   -2.5610160   -0.2511640  
H   -7.5245081   -0.8825950   -0.4883032  
H   -6.7735854    4.1739946    0.3572310  
C   -4.4297979    2.1087671   -0.2339399  
C   -5.6380117    1.6447705   -0.6450366  
C   -5.3911869    0.7496343   -1.7507692  
C   -3.9296544    0.7300039   -1.9515854  
N   -3.4052348    1.5747190   -1.0006226  
C   -3.2941076    0.0012878   -2.9038237  
C   -4.1035805   -0.8182213   -3.7902174  
O   -3.6253061   -1.5102281   -4.6794204  
C   -5.6534092   -0.8124880   -3.5957845  
O   -6.3452685   -1.4982638   -4.3362583  
C   -6.2225101    0.0137343   -2.5340255  
H   -7.2964264    0.0119731   -2.4058665  
H   -4.2016951    2.7960861    0.5644653  
H   -2.4284977    1.7712471   -0.8805870  
C    0.0000000    0.0000000    0.0000000  
C    1.0541688   -0.0001723   -0.8560392  
C    0.5103136   -0.0000455   -2.1935956  
C   -0.9576373    0.0002461   -2.0455730  
N   -1.2018460   -0.0001389   -0.6915968  
C   -1.8348314    0.0008319   -3.0810607  
C   -1.2972851    0.0009739   -4.4314603  
O   -2.0050676    0.0014268   -5.4301316  
C    0.2542619    0.0004184   -4.6117572  
O    0.7184666    0.0002257   -5.7439122  
C    1.0974551    0.0000873   -3.4189129  
H    2.0940752   -0.0005484   -0.5817983  
H    2.1707276   -0.0000912   -3.5523673  
H   -2.1128194    0.0014915   -0.2706789  
C    1.0672568    0.0000697    2.3021913  
C    0.0000000    0.0000000    1.4700000  
C   -1.1601224    0.0000736    2.3478473  
C   -0.5938729    0.0000769    3.7138435  
N    0.7113367    0.0001554    3.6934124  
C   -1.4286986    0.0001879    4.8835240  
C   -2.7683114    0.0006799    4.6970523  
O   -3.6653903    0.0008304    5.6976972  
C   -3.3702025    0.0010610    3.3310774  
O   -4.5974910    0.0013779    3.2362962  
C   -2.4926826    0.0008943    2.1470656  
H   -0.9878360   -0.0000190    5.8697035  
H   -4.5324246    0.0012261    5.2533954  
H   -2.9677772    0.0012974    1.1752040  
H    2.1134392    0.0000545    2.0405121  
