62

C   -6.3882432    1.0768165   -1.2392192  
C   -6.2737920    1.9624367   -0.1927753  
C   -7.5946829    2.2236228    0.2779993  
C   -8.4812559    1.4626946   -0.5263036  
N   -7.7160968    0.7795663   -1.4387095  
C   -9.8674354    1.4756228   -0.3442931  
C  -10.3677155    2.2709613    0.6682947  
O  -11.7136290    2.3204749    0.8898306  
C   -9.4992607    3.0376948    1.4811434  
O  -10.1503908    3.7783902    2.4458930  
C   -8.1316789    3.0256354    1.3019798  
H   -5.3517822    2.3709154    0.1841013  
H   -8.0689505    0.1487544   -2.1355248  
H  -10.5485398    0.8980785   -0.9539998  
H  -11.8463118    2.9262023    1.6306106  
H   -9.4923229    4.2662432    2.9504220  
H   -7.4916363    3.6236183    1.9401338  
C   -3.9877630    0.7060337   -1.9730980  
C   -3.2941076    0.0012878   -2.9038237  
C   -4.2616230   -0.7404938   -3.6774573  
C   -5.5852975   -0.4077261   -3.1171521  
N   -5.3499622    0.4732133   -2.0868838  
C   -6.7614333   -0.9068533   -3.5746254  
C   -6.7208864   -1.8338313   -4.6933756  
O   -7.7257841   -2.3379516   -5.1774667  
C   -5.3299831   -2.2005534   -5.3022346  
O   -5.2832936   -2.9801748   -6.2441854  
C   -4.1317819   -1.5978946   -4.7234702  
H   -7.7216479   -0.6497118   -3.1494484  
H   -3.1726430   -1.8568417   -5.1509310  
H   -3.6184118    1.3757279   -1.2135069  
C    0.0000000    0.0000000    0.0000000  
C    1.0541688   -0.0001723   -0.8560392  
C    0.5103136   -0.0000455   -2.1935956  
C   -0.9576373    0.0002461   -2.0455730  
N   -1.2018460   -0.0001389   -0.6915968  
C   -1.8348314    0.0008319   -3.0810607  
C   -1.2972851    0.0009739   -4.4314603  
O   -2.0050676    0.0014268   -5.4301316  
C    0.2542619    0.0004184   -4.6117572  
O    0.7184666    0.0002257   -5.7439122  
C    1.0974551    0.0000873   -3.4189129  
H    2.0940752   -0.0005484   -0.5817983  
H    2.1707276   -0.0000912   -3.5523673  
H   -2.1128194    0.0014915   -0.2706789  
C    3.3041272   -0.0001177    3.0120429  
C    2.5845372    0.0004780    1.8395852  
C    1.2040006    0.0000008    2.1983588  
C    1.1422373   -0.0006037    3.6154372  
N    2.4348639   -0.0026109    4.0777464  
C   -0.0655181   -0.0008797    4.3197917  
C   -1.2321768   -0.0002324    3.5801400  
O   -2.4392816   -0.0001146    4.2172520  
C   -1.1911209    0.0000007    2.1655264  
O   -2.4371527    0.0002320    1.5732860  
C    0.0000000    0.0000000    1.4700000  
H    3.0031534    0.0000661    0.8477417  
H    2.7054629    0.0071099    5.0445261  
H   -0.1193549   -0.0014844    5.3997470  
H   -3.1132988    0.0000648    3.5251786  
H   -2.3200282    0.0004071    0.6183591  
H    4.3686625   -0.0004071    3.1724291  
