60

C    9.1199937    0.0016836   -0.8363905  
C   10.1581811    0.0023064   -1.7389606  
C   11.3674925    0.0027410   -0.9825434  
C   11.0012783    0.0020649    0.3877898  
N    9.6294979    0.0033835    0.4410097  
C   11.9420912    0.0019473    1.4220336  
C   13.2769116    0.0022156    1.0664566  
O   14.2372757    0.0017654    2.0363598  
C   13.6621379    0.0032649   -0.2953129  
O   15.0284497    0.0038313   -0.4864559  
C   12.7345462    0.0036548   -1.3161444  
H   10.0564059    0.0035371   -2.8107037  
H    9.0813291   -0.0072755    1.2820675  
H   11.6694554    0.0015773    2.4683949  
H   15.0878726    0.0023565    1.5783745  
H   15.2032049    0.0045036   -1.4325341  
H   13.0596712    0.0046439   -2.3499580  
C    6.4690067    0.0019755   -4.4192259  
C    7.5790592    0.0025229   -3.6450419  
C    7.0826137    0.0021760   -2.2775472  
C    5.6103549    0.0015082   -2.4155218  
N    5.2447492    0.0013071   -3.6686472  
C    4.7390840    0.0009613   -1.2727298  
C    5.3125318    0.0006873   -0.0477839  
O    4.6211392    0.0001824    1.1046125  
C    6.7952873    0.0009744    0.1242520  
O    7.2479830    0.0008233    1.2689297  
C    7.6676529    0.0015790   -1.0635621  
H    8.6077291    0.0030016   -3.9627138  
H    5.3014942    0.0000717    1.8019436  
H    6.4103389    0.0020015   -5.4960416  
C    3.2798077    0.0005856   -1.4499661  
C    2.5571132    0.0005565   -2.5996564  
C    1.1637425    0.0001547   -2.2210366  
C    1.1336959   -0.0000200   -0.7459475  
N    2.4483509   -0.0001429   -0.3402730  
C    0.0000000    0.0000000    0.0000000  
C   -1.2757370   -0.0000187   -0.6964411  
O   -2.3524597   -0.0000640   -0.1142306  
C   -1.2676502   -0.0000874   -2.2584078  
O   -2.3355774   -0.0004102   -2.8557287  
C    0.0181551    0.0001758   -2.9516297  
H    2.9547342    0.0006074   -3.5989118  
H    0.0150776    0.0003317   -4.0331632  
H    2.7563626    0.0012823    0.6148051  
C    0.0000000    0.0000000    1.4700000  
C    1.0662921    0.0000102    2.3034270  
C    0.4961870   -0.0000064    3.6418889  
C   -0.9663858    0.0000850    3.4240247  
N   -1.2632773    0.0000084    2.1528658  
C   -1.8985362    0.0000517    4.5177257  
C   -1.3925775   -0.0004564    5.7720543  
O   -2.1456383   -0.0005410    6.8851312  
C    0.0786232   -0.0009323    6.0245000  
O    0.4683759   -0.0012588    7.1921102  
C    1.0143166   -0.0008442    4.8859032  
H    2.1107198   -0.0000632    2.0421868  
H   -2.9622183    0.0003270    4.3293377  
H   -1.5042274   -0.0009692    7.6184419  
H    2.0724152   -0.0013148    5.1109744  
