60

C   -0.9316379    2.1194658   -5.6171811  
C   -1.9228868    1.6197481   -6.4296922  
C   -1.2935251    0.7457516   -7.3649110  
C    0.0942258    0.7519365   -7.0715955  
N    0.2798475    1.5977066   -6.0063088  
C    1.0237155   -0.0002858   -7.7961634  
C    0.5434911   -0.7730604   -8.8355775  
O    1.4075471   -1.5273190   -9.5755205  
C   -0.8376027   -0.7921690   -9.1438490  
O   -1.1585642   -1.6108382  -10.2069145  
C   -1.7551024   -0.0501260   -8.4296408  
H   -2.9705451    1.8569325   -6.3579354  
H    1.1616107    1.7948332   -5.5685698  
H    0.8732224   -1.9821009  -10.2395502  
H   -2.1090756   -1.5663796  -10.3488861  
H   -2.8067277   -0.0848105   -8.6891775  
H   -0.9927654    2.8078974   -4.7917821  
C    3.1006060    0.0006268   -3.9654947  
C    4.3994794    0.0008534   -4.3456359  
C    4.3646292    0.0008284   -5.8000375  
C    2.9251417    0.0004560   -6.1383562  
N    2.1793119    0.0004171   -5.0670360  
C    2.4634065    0.0003689   -7.4991966  
C    3.3972670    0.0010303   -8.4775826  
O    3.1090955    0.0010284   -9.7902129  
C    4.8575568    0.0017905   -8.1682057  
O    5.6513836    0.0022449   -9.1089818  
C    5.3059844    0.0018212   -6.7643402  
H    5.2733150    0.0011076   -3.7167584  
H    3.9761780    0.0016100  -10.2344184  
H    6.3723227    0.0024984   -6.5822606  
C    3.2798085    0.0005859   -1.4499648  
C    2.5571146    0.0005569   -2.5996553  
C    1.1637437    0.0001551   -2.2210359  
C    1.1336966   -0.0000198   -0.7459471  
N    2.4483513   -0.0001427   -0.3402720  
C    0.0000000    0.0000000    0.0000000  
C   -1.2757366   -0.0000185   -0.6964416  
O   -2.3524595   -0.0000640   -0.1142313  
C   -1.2676493   -0.0000870   -2.2584084  
O   -2.3355759   -0.0004098   -2.8557296  
C    0.0181563    0.0001763   -2.9516295  
H    0.0150795    0.0003323   -4.0331630  
H    4.3498549    0.0008614   -1.3200020  
H    2.7563627    0.0012824    0.6148062  
C    0.8681109    0.7263879    2.2709268  
C    0.6127770    0.5096195    3.5869401  
C   -0.4920590   -0.4175482    3.6542670  
C   -0.8620974   -0.7254003    2.2596025  
N    0.0000000    0.0000000    1.4700000  
C   -1.8641242   -1.5660088    1.8976294  
C   -2.6293522   -2.2103885    2.9520183  
O   -3.5512764   -2.9839180    2.7283916  
C   -2.2549728   -1.8987399    4.4361073  
O   -2.8923672   -2.4351063    5.3323774  
C   -1.1543735   -0.9755647    4.7012123  
H    1.1382914    0.9492124    4.4159191  
H   -2.1192137   -1.7782617    0.8686553  
H   -0.9013378   -0.7652422    5.7314848  
H    1.6172880    1.3558399    1.8188057  
