64

C    0.8500364   -0.9758202   -9.5253870  
C    0.4064071    0.0983733   -8.7893375  
C    0.4732535    1.2417510   -9.6395257  
C    0.9690765    0.8000131  -10.8929026  
N    1.1892626   -0.5510104  -10.7886412  
C    1.1646303    1.6628638  -11.9755078  
C    0.8537090    2.9958762  -11.7895434  
O    1.0252955    3.8817207  -12.8136776  
C    0.3582045    3.4558539  -10.5462770  
O    0.0960382    4.8100590  -10.5190686  
C    0.1652921    2.6052425   -9.4777395  
H    1.5315686   -1.1417405  -11.5247421  
H    1.5423390    1.3324635  -12.9333048  
H    0.7528205    4.7450405  -12.4764830  
H   -0.2346020    5.0383403   -9.6449009  
H   -0.2155053    2.9865856   -8.5375006  
H    0.9526702   -2.0111508   -9.2487729  
C    1.9332186   -2.1183845   -5.2802478  
C    1.0132699   -1.6573355   -4.3672335  
C    0.1425864   -0.7692371   -5.0656542  
C    0.5838245   -0.7278052   -6.4130661  
N    1.6739349   -1.5567573   -6.5085374  
C   -0.0442370    0.0493840   -7.3909739  
C   -1.1378295    0.7981573   -7.0016523  
O   -1.7886902    1.5745666   -7.9163018  
C   -1.5929066    0.7703229   -5.6618962  
O   -2.6929017    1.5705682   -5.4317601  
C   -0.9736297    0.0040464   -4.6965763  
H    0.9751829   -1.9269942   -3.3256834  
H    2.1939842   -1.7372808   -7.3481452  
H   -2.5110529    2.0070699   -7.4425944  
H   -2.9357434    1.4942921   -4.5039595  
H    2.7546831   -2.8023048   -5.1521544  
C    1.1188642    0.0008222   -0.8003808  
C    0.0000000    0.0000000    0.0000000  
C   -1.1323862    0.0008899   -0.8673528  
C   -0.6382663    0.0019679   -2.1969280  
N    0.7324016    0.0038481   -2.1202242  
C   -1.4770914    0.0027318   -3.3154808  
C   -2.8395473    0.0020945   -3.0876857  
O   -3.7039201    0.0024425   -4.1440349  
C   -3.3517868    0.0013931   -1.7684331  
O   -4.7300497    0.0012366   -1.7073121  
C   -2.5248543    0.0009123   -0.6644817  
H    1.3576314   -0.0056167   -2.9057046  
H   -4.5940032    0.0021826   -3.7685128  
H   -4.9934602    0.0007259   -0.7819913  
H   -2.9462577    0.0005603    0.3339659  
H    2.1619895    0.0009355   -0.5342068  
C    2.5128556    2.1077716    2.9199648  
C    1.9592212    1.6432552    4.0696553  
C    0.8915788    0.7479214    3.6910360  
C    0.8684491    0.7287414    2.2159470  
N    1.8754542    1.5738793    1.8102719  
C    0.0000000    0.0000000    1.4700000  
C   -0.9772830   -0.8200135    2.1664417  
O   -1.8021297   -1.5120829    1.5842315  
C   -0.9711318   -0.8147624    3.7284083  
O   -1.7894187   -1.5009653    4.3257297  
C    0.0140216    0.0115358    4.4216297  
H    2.2638494    1.8988021    5.0689105  
H    0.0117648    0.0094386    5.5031631  
H    3.3327358    2.7953732    2.7900019  
H    2.1123206    1.7707734    0.8551938  
