62

C    4.4489674   -1.1730764   -8.9755822  
C    4.7505022   -0.8102127  -10.2678188  
C    4.5111423    0.5920027  -10.3731673  
C    4.0613740    1.0340660   -9.1026501  
N    4.0333308   -0.0631203   -8.2780202  
C    3.7298871    2.3665664   -8.8393084  
C    3.8550035    3.2693061   -9.8773768  
O    3.5449955    4.5830509   -9.6749384  
C    4.3017504    2.8474195  -11.1522286  
O    4.3730551    3.8650448  -12.0810445  
C    4.6286863    1.5329858  -11.4128107  
H    5.0989437   -1.4746584  -11.0398892  
H    3.3863622    2.7098339   -7.8732039  
H    3.6999596    5.0328567  -10.5157265  
H    4.6828461    3.4957289  -12.9136541  
H    4.9678851    1.2394817  -12.3993594  
H    4.4961280   -2.1360858   -8.4966800  
C    5.6357769   -2.1338822   -4.7226666  
C    5.4138141   -1.6803982   -5.9832854  
C    4.2861637   -0.7812076   -5.9147638  
C    3.8663700   -0.7477414   -4.5007469  
N    4.7243815   -1.5891314   -3.8308459  
C    2.8310662   -0.0116220   -4.0232752  
C    2.0799745    0.8018233   -4.9649245  
O    1.1306872    1.4996775   -4.6330294  
C    2.5068730    0.7814480   -6.4673049  
O    1.8818001    1.4620139   -7.2694108  
C    3.6400758   -0.0517386   -6.8616447  
H    5.9757719   -1.9456747   -6.8610355  
H    6.3883459   -2.8203724   -4.3701585  
H    4.6945086   -1.7768211   -2.8454892  
C    3.3041270    0.0001177   -1.5420434  
C    2.5845372   -0.0004781   -0.3695856  
C    1.2040006   -0.0000008   -0.7283592  
C    1.1422371    0.0006037   -2.1454375  
N    2.4348636    0.0026109   -2.6077467  
C   -0.0655183    0.0008798   -2.8497920  
C   -1.2321770    0.0002326   -2.1101400  
O   -2.4392818    0.0001147   -2.7472520  
C   -1.1911210   -0.0000007   -0.6955263  
O   -2.4371527   -0.0002320   -0.1032859  
C    0.0000000    0.0000000    0.0000000  
H    3.0031533   -0.0000660    0.6222577  
H   -0.1193553    0.0014844   -3.9297472  
H   -3.1132989   -0.0000648   -2.0551784  
H   -2.3200282   -0.0004069    0.8516410  
H    4.3686624    0.0004070   -1.7024294  
C    2.5128556    2.1077716    2.9199648  
C    1.9592212    1.6432552    4.0696553  
C    0.8915788    0.7479214    3.6910360  
C    0.8684491    0.7287414    2.2159470  
N    1.8754542    1.5738793    1.8102719  
C    0.0000000    0.0000000    1.4700000  
C   -0.9772830   -0.8200135    2.1664417  
O   -1.8021297   -1.5120829    1.5842315  
C   -0.9711318   -0.8147624    3.7284083  
O   -1.7894187   -1.5009653    4.3257297  
C    0.0140216    0.0115358    4.4216297  
H    2.2638494    1.8988021    5.0689105  
H    0.0117648    0.0094386    5.5031631  
H    3.3327358    2.7953732    2.7900019  
H    2.1123206    1.7707734    0.8551938  
