64

C   -0.1490081    0.6979029   -9.3249880  
C    0.9464702   -0.1188071   -9.4842934  
C    1.3367086   -0.0296353  -10.8533670  
C    0.4349967    0.8641537  -11.4858088  
N   -0.4553713    1.2860002  -10.5298242  
C    0.5203950    1.1903957  -12.8426673  
C    1.5347256    0.6039095  -13.5743398  
O    1.6641644    0.8877909  -14.9031242  
C    2.4439835   -0.2906740  -12.9613251  
O    3.3973688   -0.7917692  -13.8234761  
C    2.3601697   -0.6131865  -11.6228610  
H    1.4069255   -0.7073859   -8.7093429  
H   -1.2062005    1.9348921  -10.6820577  
H   -0.1638190    1.8707634  -13.3306752  
H    2.4236888    0.3805797  -15.2179661  
H    3.9706386   -1.3866738  -13.3304711  
H    3.0709017   -1.3018167  -11.1811293  
C    0.1164984   -0.7216419   -5.1523588  
C    0.3272668   -0.5036916   -6.4760466  
C   -0.6879583    0.4235573   -6.9169126  
C   -1.5133656    0.7301691   -5.7330708  
N   -0.9736297    0.0040464   -4.6965763  
C   -2.5790057    1.5704732   -5.7354628  
C   -2.9370204    2.2158101   -6.9876212  
O   -3.8800007    2.9891572   -7.0926151  
C   -2.0769065    1.9054816   -8.2539958  
O   -2.3689422    2.4426617   -9.3139075  
C   -0.9518080    0.9825225   -8.1269039  
H    1.1050430   -0.9425533   -7.0752779  
H   -3.1711432    1.7818107   -4.8559063  
H    0.6657002   -1.3515125   -4.4715280  
C    1.1188642    0.0008222   -0.8003808  
C    0.0000000    0.0000000    0.0000000  
C   -1.1323862    0.0008899   -0.8673528  
C   -0.6382663    0.0019679   -2.1969280  
N    0.7324016    0.0038481   -2.1202242  
C   -1.4770914    0.0027318   -3.3154808  
C   -2.8395473    0.0020945   -3.0876857  
O   -3.7039201    0.0024425   -4.1440349  
C   -3.3517868    0.0013931   -1.7684331  
O   -4.7300497    0.0012366   -1.7073121  
C   -2.5248543    0.0009123   -0.6644817  
H    1.3576314   -0.0056167   -2.9057046  
H   -4.5940032    0.0021826   -3.7685128  
H   -4.9934602    0.0007259   -0.7819913  
H   -2.9462577    0.0005603    0.3339659  
H    2.1619895    0.0009355   -0.5342068  
C    2.5311839    2.1237619    3.0120429  
C    1.9795631    1.6616747    1.8395852  
C    0.9223175    0.7739173    2.1983588  
C    0.8753926    0.7337535    3.6154372  
N    1.8668922    1.5631002    4.0777464  
C   -0.0496243   -0.0427881    4.3197917  
C   -0.9437528   -0.7922060    3.5801400  
O   -1.8685244   -1.5680278    4.2172520  
C   -0.9124520   -0.7656372    2.1655264  
O   -1.8671164   -1.5663939    1.5732860  
C    0.0000000    0.0000000    1.4700000  
H    2.3005065    1.9304404    0.8477417  
H    2.0679347    1.7444845    5.0445261  
H   -0.0904770   -0.0778569    5.3997470  
H   -2.3849669   -2.0011402    3.5251786  
H   -1.7775064   -1.4909735    0.6183591  
H    3.3468514    2.8078103    3.1724291  
