62

C   -0.1590118   -2.6043100   -9.7619998  
C   -0.0386273   -2.0408251  -11.0111833  
C   -0.3344755   -0.6524156  -10.8719250  
C   -0.6304214   -0.4251394   -9.5034632  
N   -0.5165363   -1.6314354   -8.8580978  
C   -0.9677439    0.8355932   -9.0019102  
C   -1.0067297    1.8860845   -9.8980833  
O   -1.3300249    3.1383246   -9.4617462  
C   -0.7149858    1.6792214  -11.2673563  
O   -0.7968892    2.8244212  -12.0323084  
C   -0.3823971    0.4356989  -11.7628997  
H    0.2283786   -2.5661015  -11.9121754  
H   -0.6581038   -1.7794296   -7.8752258  
H   -1.2994190    3.7139605  -10.2369698  
H   -0.5854808    2.5975981  -12.9430561  
H   -0.1641489    0.3078578  -12.8167033  
H   -0.0195307   -3.6234844   -9.4445315  
C    0.8348000   -0.7155476   -5.2158233  
C    0.5509172   -0.4631666   -6.5380112  
C   -0.5417432    0.4534220   -6.5616508  
C   -0.8848304    0.7269205   -5.2127931  
N   -0.0307352   -0.0004646   -4.4215603  
C   -1.9225412    1.5938243   -4.8572340  
C   -2.6265387    2.1958309   -5.8820042  
O   -3.6494143    3.0514525   -5.5910578  
C   -2.2994634    1.9353173   -7.2340292  
O   -3.0931217    2.6108037   -8.1380024  
C   -1.2760373    1.0799989   -7.5855344  
H    1.0670805   -0.8883460   -7.3816882  
H   -2.1890860    1.8063496   -3.8310816  
H   -4.0007374    3.3550845   -6.4381967  
H   -2.8064473    2.3794365   -9.0267601  
H    1.5852737   -1.3501720   -4.7765053  
C    3.2573670   -0.0002920   -1.5109380  
C    2.5379468   -0.0001709   -0.3591961  
C    1.1435043    0.0000332   -0.7338500  
C    1.1092609   -0.0000082   -2.2088477  
N    2.4227562    0.0001909   -2.6182613  
C   -0.0265532   -0.0002522   -2.9515663  
C   -1.3003035   -0.0002639   -2.2514981  
O   -2.3786784   -0.0004131   -2.8306429  
C   -1.2877725    0.0000312   -0.6895608  
O   -2.3539958    0.0003307   -0.0892036  
C    0.0000000    0.0000000    0.0000000  
H    2.9384091   -0.0000369    0.6389239  
H    4.3270394   -0.0004765   -1.6439446  
H    2.7280494   -0.0013406   -3.5742113  
C    2.5128556    2.1077716    2.9199648  
C    1.9592212    1.6432552    4.0696553  
C    0.8915788    0.7479214    3.6910360  
C    0.8684491    0.7287414    2.2159470  
N    1.8754542    1.5738793    1.8102719  
C    0.0000000    0.0000000    1.4700000  
C   -0.9772830   -0.8200135    2.1664417  
O   -1.8021297   -1.5120829    1.5842315  
C   -0.9711318   -0.8147624    3.7284083  
O   -1.7894187   -1.5009653    4.3257297  
C    0.0140216    0.0115358    4.4216297  
H    2.2638494    1.8988021    5.0689105  
H    0.0117648    0.0094386    5.5031631  
H    3.3327358    2.7953732    2.7900019  
H    2.1123206    1.7707734    0.8551938  
