64

C   -3.3041146    0.0089503   -1.5420439  
C   -2.5845262    0.0075711   -0.3695859  
C   -1.2039958    0.0033051   -0.7283595  
C   -1.1422343    0.0025310   -2.1454376  
N   -2.4348613    0.0040714   -2.6077473  
C    0.0655165   -0.0010598   -2.8497917  
C    1.2321722   -0.0036143   -2.1101395  
O    2.4392729   -0.0068094   -2.7472517  
C    1.1911166   -0.0032683   -0.6955262  
O    2.4371436   -0.0064567   -0.1032859  
C    0.0000000    0.0000000    0.0000000  
H   -3.0031416    0.0083081    0.6222574  
H   -2.7054323    0.0145347   -3.5745267  
H    0.1193513   -0.0018121   -3.9297470  
H    3.1132883   -0.0084797   -2.0551783  
H    2.3200204   -0.0059602    0.8516413  
C   -5.7131579    0.0154458   -0.7960725  
C   -4.7577049    0.0125445   -1.7610471  
C   -5.4429580    0.0133815   -3.0319770  
C   -6.8863020    0.0170637   -2.7261420  
N   -6.9827184    0.0177640   -1.3537016  
C   -7.8702859    0.0192349   -3.6607408  
C   -7.4818654    0.0176271   -5.0613348  
O   -8.2934521    0.0192952   -5.9776457  
C   -5.9589045    0.0134785   -5.4082907  
O   -5.6198050    0.0117878   -6.5839910  
C   -4.9917123    0.0117008   -4.3135825  
H   -8.9231768    0.0220580   -3.4151327  
H   -3.9391578    0.0090333   -4.5622712  
H   -5.5966382    0.0158683    0.2755208  
C   -8.2527577    2.1513171    2.3644447  
C   -7.5336671    1.6851093    1.2883285  
C   -8.3890304    0.7994873    0.5681707  
C   -9.6279482    0.7648129    1.2579593  
N   -9.5104270    1.5952323    2.3447938  
C  -10.7109940   -0.0083571    0.8289971  
C  -10.5403506   -0.7599850   -0.3173509  
O  -11.5656327   -1.5326943   -0.7807412  
C   -9.3116438   -0.7388849   -1.0192427  
O   -9.2987197   -1.5412408   -2.1414733  
C   -8.2426771    0.0234236   -0.5964877  
H   -6.5172365    1.9498274    1.0521360  
H  -10.2348439    1.7801953    3.0148611  
H  -11.6578114   -0.0392389    1.3503270  
H  -11.2400599   -1.9681027   -1.5792933  
H   -8.4338023   -1.4695608   -2.5566642  
H   -7.9675598    2.8354012    3.1452458  
C    2.5311839    2.1237619    3.0120429  
C    1.9795631    1.6616747    1.8395852  
C    0.9223175    0.7739173    2.1983588  
C    0.8753926    0.7337535    3.6154372  
N    1.8668922    1.5631002    4.0777464  
C   -0.0496243   -0.0427881    4.3197917  
C   -0.9437528   -0.7922060    3.5801400  
O   -1.8685244   -1.5680278    4.2172520  
C   -0.9124520   -0.7656372    2.1655264  
O   -1.8671164   -1.5663939    1.5732860  
C    0.0000000    0.0000000    1.4700000  
H    2.3005065    1.9304404    0.8477417  
H    2.0679347    1.7444845    5.0445261  
H   -0.0904770   -0.0778569    5.3997470  
H   -2.3849669   -2.0011402    3.5251786  
H   -1.7775064   -1.4909735    0.6183591  
H    3.3468514    2.8078103    3.1724291  
