60

C    9.7384397    0.7188837   -4.6796935  
C    9.1704848    0.0013079   -3.6525716  
C   10.2226710   -0.7258733   -3.0211362  
C   11.4203174   -0.4092956   -3.7120398  
N   11.0903408    0.4688590   -4.7143263  
C   12.6615441   -0.9479320   -3.3598790  
C   12.6943975   -1.8218401   -2.2905885  
O   13.8801025   -2.3765668   -1.9040686  
C   11.5100818   -2.1503321   -1.5889436  
O   11.7074988   -3.0347142   -0.5486370  
C   10.2851924   -1.6195417   -1.9359759  
H   11.7373766    0.8775349   -5.3641805  
H   13.5779602   -0.7107799   -3.8825073  
H   13.6816130   -2.9476573   -1.1505951  
H   10.8589695   -3.2035779   -0.1278197  
H    9.3951221   -1.8899344   -1.3799721  
H    9.2859326    1.3881519   -5.3912236  
C    6.6781257    0.0000527   -4.1292994  
C    7.7444182    0.0009684   -3.2958728  
C    7.1743128    0.0014028   -1.9574107  
C    5.7117403    0.0007372   -2.1752743  
N    5.4148486   -0.0001362   -3.4464332  
C    4.7795901    0.0008674   -1.0815733  
C    5.2855489    0.0012392    0.1727554  
O    4.5324883    0.0014071    1.2858322  
C    6.7567497    0.0015423    0.4252006  
O    7.1465030    0.0019993    1.5928107  
C    7.6924431    0.0014449   -0.7133963  
H    5.1738992    0.0016453    2.0191430  
H    8.7505412    0.0015571   -0.4883252  
H    6.6781258   -0.0005126   -5.2077115  
C    3.3321168    0.0004716   -1.3379341  
C    2.6974177    0.0000118   -2.5332316  
C    1.2800432   -0.0002116   -2.2052842  
C    1.2395033    0.0000644   -0.7271298  
N    2.4394059    0.0005460   -0.2131041  
C    0.0000000    0.0000000    0.0000000  
C   -1.1468704    0.0000635   -0.7169542  
O   -2.3742206    0.0000074   -0.1695488  
C   -1.1388774    0.0001608   -2.2096352  
O   -2.2206238    0.0000906   -2.7970409  
C    0.1454514    0.0001818   -2.9324241  
H    3.1367978   -0.0000649   -3.5160956  
H   -2.9844350    0.0001027   -0.9290164  
H    0.1083567    0.0003684   -4.0135594  
C    0.0000000    0.0000000    1.4700000  
C    1.0541688    0.0001722    2.3260392  
C    0.5103138    0.0000454    3.6635956  
C   -0.9576371   -0.0002459    3.5155732  
N   -1.2018458    0.0001392    2.1615969  
C   -1.8348311   -0.0008317    4.5510609  
C   -1.2972847   -0.0009736    5.9014604  
O   -2.0050672   -0.0014265    6.9001319  
C    0.2542623   -0.0004184    6.0817573  
O    0.7184670   -0.0002256    7.2139121  
C    1.0974552   -0.0000873    4.8889129  
H    2.0940752    0.0005483    2.0517982  
H   -2.9081052   -0.0011668    4.4207061  
H    2.1707277    0.0000911    5.0223670  
H   -2.1128194   -0.0014912    1.7406791  
