60

C    1.9242999   -3.2785063  -10.1041650  
C    1.3953435   -2.5963323   -9.0330391  
C    1.2823540   -1.2294123   -9.4246560  
C    1.7614666   -1.1370629  -10.7565146  
N    2.1450744   -2.3987950  -11.1379530  
C    1.7972811    0.0674213  -11.4655451  
C    1.3408409    1.1992449  -10.8183854  
O    1.3531918    2.4015275  -11.4644332  
C    0.8593624    1.1273978   -9.4895390  
O    0.4405499    2.3406929   -8.9837184  
C    0.8239920   -0.0604686   -8.7893617  
H    1.1252918   -3.0303200   -8.0855587  
H    2.5163430   -2.6453936  -12.0375799  
H    2.1613824    0.1444868  -12.4807750  
H    0.9982793    3.0495775  -10.8420724  
H    0.1308817    2.2041831   -8.0831226  
H    2.1628975   -4.3227271  -10.2120222  
C    1.9957414   -2.1407950   -5.0258942  
C    1.9855628   -1.7332340   -6.3163859  
C    0.8551751   -0.8225482   -6.4132068  
C    0.2799738   -0.7963197   -5.0512087  
N    0.9444052   -1.5670716   -4.2336130  
C   -0.8712826    0.0001710   -4.7267111  
C   -1.4226083    0.7372644   -5.7177045  
O   -2.4987599    1.5259552   -5.5567518  
C   -0.8649829    0.7322382   -7.1023305  
O   -1.4179254    1.4273749   -7.9545398  
C    0.3165529   -0.0930927   -7.4101075  
H    2.6616911   -2.0156333   -7.1051684  
H   -2.6523123    1.9181962   -6.4352288  
H    2.6823202   -2.8229904   -4.5502975  
C    1.0965514    0.0001359   -0.8010305  
C    0.0000000    0.0000000    0.0000000  
C   -1.1546563    0.0001470   -0.8669513  
C   -0.6372014    0.0003519   -2.2486282  
N    0.7342871    0.0007337   -2.1395014  
C   -1.4147739    0.0001352   -3.3608717  
C   -2.8576049   -0.0001048   -3.1854462  
O   -3.6427779   -0.0002494   -4.1244907  
C   -3.4275840   -0.0000725   -1.7311666  
O   -4.6406831    0.0000333   -1.5710060  
C   -2.4891867   -0.0001091   -0.6116744  
H   -2.8919122   -0.0002918    0.3920866  
H    2.1388272    0.0000663   -0.5261648  
H    1.3735872   -0.0006099   -2.9130262  
C    0.0000000    0.0000000    1.4700000  
C    1.0662921    0.0000102    2.3034270  
C    0.4961870   -0.0000064    3.6418889  
C   -0.9663858    0.0000850    3.4240247  
N   -1.2632773    0.0000084    2.1528658  
C   -1.8985362    0.0000517    4.5177257  
C   -1.3925775   -0.0004564    5.7720543  
O   -2.1456383   -0.0005410    6.8851312  
C    0.0786232   -0.0009323    6.0245000  
O    0.4683759   -0.0012588    7.1921102  
C    1.0143166   -0.0008442    4.8859032  
H    2.1107198   -0.0000632    2.0421868  
H   -2.9622183    0.0003270    4.3293377  
H   -1.5042274   -0.0009692    7.6184419  
H    2.0724152   -0.0013148    5.1109744  
