64

C    1.1056720   -0.9868438   -9.4857692  
C    1.4916744   -0.5709977  -10.7389816  
C    1.2413253    0.8315711  -10.8077291  
C    0.6981052    1.2192374   -9.5561095  
N    0.6274377    0.0907196   -8.7776038  
C    0.3310887    2.5368811   -9.2664504  
C    0.5160978    3.4804208  -10.2582575  
O    0.1750066    4.7819139  -10.0285082  
C    1.0563336    3.1130496  -11.5136455  
O    1.1784951    4.1665714  -12.3959796  
C    1.4183749    1.8133021  -11.8001918  
H    1.9020624   -1.2012544  -11.5092755  
H   -0.0835898    2.8387627   -8.3145512  
H    0.3821470    5.2655737  -10.8387127  
H    1.5505655    3.8331306  -13.2181627  
H    1.8294918    1.5618879  -12.7708895  
H    1.1323194   -1.9670991   -9.0415301  
C    2.0510680   -2.1230737   -5.2235531  
C    1.1049647   -1.6611196   -4.3381413  
C    0.2551153   -0.7735538   -5.0624222  
C    0.7354331   -0.7333645   -6.3964410  
N    1.8277567   -1.5625121   -6.4593732  
C    0.1362323    0.0430191   -7.3929224  
C   -0.9681445    0.7922492   -7.0362952  
O   -1.5919782    1.5679116   -7.9702089  
C   -1.4620705    0.7656521   -5.7103442  
O   -2.5682024    1.5662137   -5.5130672  
C   -0.8712826    0.0001710   -4.7267111  
H    1.0365101   -1.9298485   -3.2979049  
H    2.3720273   -1.7438347   -7.2833107  
H   -2.3277822    2.0009093   -7.5181345  
H   -2.8379857    1.4907870   -4.5926695  
H    2.8683639   -2.8069633   -5.0709720  
C    1.0965514    0.0001359   -0.8010305  
C    0.0000000    0.0000000    0.0000000  
C   -1.1546563    0.0001470   -0.8669513  
C   -0.6372014    0.0003519   -2.2486282  
N    0.7342871    0.0007337   -2.1395014  
C   -1.4147739    0.0001352   -3.3608717  
C   -2.8576049   -0.0001048   -3.1854462  
O   -3.6427779   -0.0002494   -4.1244907  
C   -3.4275840   -0.0000725   -1.7311666  
O   -4.6406831    0.0000333   -1.5710060  
C   -2.4891867   -0.0001091   -0.6116744  
H   -2.8919122   -0.0002918    0.3920866  
H    2.1388272    0.0000663   -0.5261648  
H    1.3735872   -0.0006099   -2.9130262  
C    0.8576279    0.7185626    2.2703808  
C    0.0000000    0.0000000    1.4700000  
C   -0.8668858   -0.7285659    2.3373528  
C   -0.4876752   -0.4117774    3.6669281  
N    0.5635254    0.4678311    3.5902241  
C   -1.1297612   -0.9515493    4.7854808  
C   -2.1738724   -1.8268314    4.5576857  
O   -2.8357962   -2.3827064    5.6140350  
C   -2.5667212   -2.1555554    3.2384331  
O   -3.6226318   -3.0413663    3.1773122  
C   -1.9335634   -1.6236449    2.1344818  
H    1.0363952    0.8769718    4.3757045  
H   -0.8454472   -0.7142436    5.8013813  
H   -3.5178062   -2.9546422    5.2385129  
H   -3.8247440   -3.2102924    2.2519915  
H   -2.2566033   -1.8942483    1.1360343  
H    1.6567807    1.3889844    2.0042067  
