64

C    6.6913553   -2.1297430   -1.7950925  
C    7.2163774   -2.9806529   -0.8502267  
C    8.6292942   -2.9983279   -1.0450467  
C    8.9104434   -2.1314686   -2.1319855  
N    7.7114641   -1.6221990   -2.5652395  
C   10.2072978   -1.9048742   -2.6027431  
C   11.2391595   -2.5651671   -1.9644224  
O   12.5249490   -2.3798224   -2.3832365  
C   10.9787131   -3.4343770   -0.8783937  
O   12.1114993   -4.0174262   -0.3490605  
C    9.6995588   -3.6586006   -0.4136216  
H    6.6504891   -3.5228722   -0.1121465  
H    7.5968213   -0.9687616   -3.3188028  
H   10.4282008   -1.2455258   -3.4307912  
H   13.0798767   -2.9254885   -1.8108997  
H   11.8477945   -4.5886503    0.3787908  
H    9.5309335   -4.3300969    0.4201263  
C    4.1863599   -2.1478775   -1.3903801  
C    5.2964345   -1.7420570   -2.0496411  
C    4.8117012   -0.8307217   -3.0748245  
C    3.3454829   -0.8022509   -2.8851474  
N    2.9730511   -1.5723544   -1.8991330  
C    2.4861704   -0.0045255   -3.7159919  
C    3.0653208    0.7316065   -4.6917114  
O    2.3851032    1.5212588   -5.5401181  
C    4.5422564    0.7243199   -4.9079753  
O    5.0006623    1.4186838   -5.8151370  
C    5.4023454   -0.1022442   -4.0425487  
H    3.0670367    1.9124161   -6.1155441  
H    6.4672339   -0.0798688   -4.2316050  
H    4.1206064   -2.8299028   -0.5576194  
C    0.0000000    0.0000000    0.0000000  
C    1.0521669   -0.0011848   -0.8862341  
C    0.4917221   -0.0011931   -2.1979130  
C   -0.9187427    0.0003100   -2.0478683  
N   -1.1833170   -0.0009472   -0.7007915  
C   -1.7951698    0.0010259   -3.1372090  
C   -1.2375835    0.0005161   -4.4010425  
O   -2.0474208    0.0015256   -5.4997580  
C    0.1673584   -0.0013557   -4.5711962  
O    0.5673529   -0.0020659   -5.8915551  
C    1.0325773   -0.0023359   -3.4969890  
H    2.0953059   -0.0030542   -0.6200560  
H   -2.0989777    0.0102265   -0.2891825  
H   -2.8710930    0.0020274   -3.0295514  
H   -1.4634881    0.0006427   -6.2693593  
H    1.5290715   -0.0033076   -5.9180042  
C    3.3041272   -0.0001177    3.0120429  
C    2.5845372    0.0004780    1.8395852  
C    1.2040006    0.0000008    2.1983588  
C    1.1422373   -0.0006037    3.6154372  
N    2.4348639   -0.0026109    4.0777464  
C   -0.0655181   -0.0008797    4.3197917  
C   -1.2321768   -0.0002324    3.5801400  
O   -2.4392816   -0.0001146    4.2172520  
C   -1.1911209    0.0000007    2.1655264  
O   -2.4371527    0.0002320    1.5732860  
C    0.0000000    0.0000000    1.4700000  
H    3.0031534    0.0000661    0.8477417  
H    2.7054629    0.0071099    5.0445261  
H   -0.1193549   -0.0014844    5.3997470  
H   -3.1132988    0.0000648    3.5251786  
H   -2.3200282    0.0004071    0.6183591  
H    4.3686625   -0.0004071    3.1724291  
