62

C    9.8780423    0.0021387   -7.3658332  
C    9.1584521    0.0014825   -6.1933756  
C    7.7779158    0.0019855   -6.5521492  
C    7.7161524    0.0026673   -7.9692273  
N    9.0087789    0.0046937   -8.4315368  
C    6.5083970    0.0029871   -8.6735815  
C    5.3417382    0.0023047   -7.9339306  
O    4.1346334    0.0022270   -8.5710427  
C    5.3827941    0.0019944   -6.5193169  
O    4.1367628    0.0017366   -5.9270766  
C    6.5739152    0.0019520   -5.8237903  
H    9.5770681    0.0018387   -5.2015325  
H    9.2793775   -0.0049756   -9.3983167  
H    6.4545602    0.0036505   -9.7535368  
H    3.4606161    0.0020129   -7.8789690  
H    4.2538871    0.0015091   -4.9721495  
H   10.9425774    0.0024321   -7.5262196  
C    6.5739150    0.0018721   -4.3537904  
C    7.6280837    0.0019470   -3.4977512  
C    7.0842294    0.0017737   -2.1601949  
C    5.6162780    0.0015611   -2.3082170  
N    5.3720693    0.0020316   -3.6621935  
C    4.7390840    0.0009613   -1.2727298  
C    5.2766305    0.0007201    0.0776698  
O    4.5688481    0.0002470    1.0763412  
C    6.8281773    0.0011907    0.2579666  
O    7.2923820    0.0012996    1.3901216  
C    7.6713703    0.0015461   -0.9348778  
H    8.6679908    0.0022879   -3.7719920  
H    8.7446428    0.0016655   -0.8014235  
H    4.4610955    0.0004680   -4.0831112  
C    3.2798077    0.0005856   -1.4499661  
C    2.5571132    0.0005565   -2.5996564  
C    1.1637425    0.0001547   -2.2210366  
C    1.1336959   -0.0000200   -0.7459475  
N    2.4483509   -0.0001429   -0.3402730  
C    0.0000000    0.0000000    0.0000000  
C   -1.2757370   -0.0000187   -0.6964411  
O   -2.3524597   -0.0000640   -0.1142306  
C   -1.2676502   -0.0000874   -2.2584078  
O   -2.3355774   -0.0004102   -2.8557287  
C    0.0181551    0.0001758   -2.9516297  
H    2.9547342    0.0006074   -3.5989118  
H    0.0150776    0.0003317   -4.0331632  
H    2.7563626    0.0012823    0.6148051  
C    2.5285572    2.1210227    2.9438989  
C    1.9331703    1.6216660    4.0790748  
C    0.8903039    0.7472258    3.6520102  
C    0.8972198    0.7527806    2.2336141  
N    1.9028376    1.5986179    1.8362361  
C    0.0000000    0.0000000    1.4700000  
C   -0.9207814   -0.7726952    2.1506477  
O   -1.8198395   -1.5274828    1.4542253  
C   -0.9436862   -0.7911793    3.5655508  
O   -1.9197945   -1.6098497    4.0950179  
C   -0.0590329   -0.0485852    4.3195194  
H    2.2150357    1.8593692    5.0905303  
H    2.1533708    1.7953814    0.8841339  
H   -2.3621246   -1.9821033    2.1118817  
H   -1.8668290   -1.5649508    5.0545920  
H   -0.1007624   -0.0827977    5.4019087  
H    3.3491200    2.8096064    2.8367138  
