62

C   -3.2941079    0.0012875   -2.9038234  
C   -4.0470176    0.0024419   -1.7524792  
C   -5.4167001    0.0030193   -2.1506872  
C   -5.4378084    0.0018787   -3.5689535  
N   -4.1324585    0.0027951   -3.9940136  
C   -6.6248732    0.0017548   -4.3076459  
C   -7.8122590    0.0024946   -3.6017475  
O   -9.0006013    0.0020606   -4.2732058  
C   -7.8117785    0.0040117   -2.1865389  
O   -9.0742772    0.0050151   -1.6302675  
C   -6.6410880    0.0044080   -1.4571485  
H   -3.6570098    0.0039262   -0.7490426  
H   -3.8342571   -0.0082406   -4.9526250  
H   -6.6477250    0.0010321   -5.3887009  
H   -9.6941844    0.0030131   -3.6007419  
H   -8.9845805    0.0059860   -0.6723754  
H   -6.6721590    0.0057614   -0.3738613  
C    0.0000000    0.0000000    0.0000000  
C    1.0541686   -0.0001722   -0.8560393  
C    0.5103131   -0.0000453   -2.1935957  
C   -0.9576377    0.0002459   -2.0455727  
N   -1.2018463   -0.0001391   -0.6915965  
C   -1.8348318    0.0008318   -3.0810604  
C   -1.2972856    0.0009738   -4.4314602  
O   -2.0050684    0.0014267   -5.4301314  
C    0.2542612    0.0004186   -4.6117571  
O    0.7184659    0.0002259   -5.7439120  
C    1.0974545    0.0000875   -3.4189131  
H    2.0940750   -0.0005483   -0.5817985  
H   -2.1128195    0.0014912   -0.2706785  
C    2.5562205   -0.0001551   -3.6003010  
C    3.5148514   -0.0005086   -2.6449969  
C    4.7727375   -0.0006028   -3.3759021  
C    4.3760670   -0.0003760   -4.8004146  
N    3.0779883   -0.0000323   -4.9381851  
C    5.3463887   -0.0003432   -5.8603965  
C    6.6535636   -0.0001398   -5.5130800  
O    7.6652119   -0.0000935   -6.3977319  
C    7.0856162    0.0000105   -4.0842725  
O    8.2923957    0.0000692   -3.8415734  
C    6.0711791   -0.0000703   -3.0152349  
H    3.3844830   -0.0005937   -1.5763154  
H    5.0281894   -0.0003822   -6.8927045  
H    8.4720643    0.0000899   -5.8517083  
H    6.4250921    0.0001590   -1.9929946  
C    3.3003543   -0.0005276    2.9438989  
C    2.5232812   -0.0003497    4.0790748  
C    1.1623199    0.0001319    3.6520102  
C    1.1711883   -0.0000583    2.2336141  
N    2.4852299    0.0014920    1.8362361  
C    0.0000000    0.0000000    1.4700000  
C   -1.2020384   -0.0000520    2.1506477  
O   -2.3759250   -0.0003494    1.4542253  
C   -1.2314658    0.0005113    3.5655508  
O   -2.5054393    0.0008037    4.0950179  
C   -0.0764518    0.0007272    4.3195194  
H    2.8919952    0.0005619    5.0905303  
H    2.8036267   -0.0088181    0.8841339  
H   -3.0835639   -0.0000348    2.1118817  
H   -2.4360050    0.0011527    5.0545920  
H   -0.1304098    0.0013421    5.4019087  
H    4.3715549   -0.0004895    2.8367138  
