66

C    0.6936368   -0.7066095   -5.1527421  
C    0.3462077   -0.4553043   -6.4598790  
C   -0.7528345    0.4534777   -6.4312305  
C   -1.0341488    0.7235434   -5.0674660  
N   -0.1387074    0.0017015   -4.3179686  
C   -2.0601481    1.5827600   -4.6626691  
C   -2.8157357    2.1804672   -5.6526248  
O   -3.8298703    3.0285541   -5.3130773  
C   -2.5506561    1.9232735   -7.0187878  
O   -3.3906535    2.5937317   -7.8837922  
C   -1.5388174    1.0755377   -7.4188527  
H    0.8251970   -0.8761778   -7.3273052  
H   -2.2797242    1.7926343   -3.6249113  
H   -4.2227237    3.3302833   -6.1424686  
H   -3.1443862    2.3650595   -8.7852722  
H   -1.3595342    0.8977365   -8.4727603  
H    1.4683930   -1.3361781   -4.7498092  
C    3.3041276    0.0001179   -1.5420426  
C    2.5845373   -0.0004778   -0.3695850  
C    1.2040008   -0.0000007   -0.7283588  
C    1.1422377    0.0006038   -2.1454370  
N    2.4348643    0.0026110   -2.6077459  
C   -0.0655176    0.0008796   -2.8497919  
C   -1.2321760    0.0002323   -2.1101404  
O   -2.4392811    0.0001143   -2.7472523  
C   -1.1911205   -0.0000006   -0.6955268  
O   -2.4371526   -0.0002322   -0.1032865  
C    0.0000000    0.0000000    0.0000000  
H    3.0031533   -0.0000657    0.6222587  
H    2.7054636   -0.0071097   -3.5745259  
H   -3.1132988   -0.0000651   -2.0551790  
H   -2.3200280   -0.0004074    0.8516406  
C    5.7158613   -0.0001038   -0.7739099  
C    4.7577225    0.0005133   -1.7610455  
C    5.4466903    0.0033111   -3.0100112  
C    6.8350425    0.0040161   -2.7194868  
N    6.9633990    0.0038486   -1.3526869  
C    7.8161428    0.0063213   -3.7155925  
C    7.3879083    0.0076375   -5.0289054  
O    8.3036933    0.0095481   -6.0410068  
C    6.0070640    0.0073388   -5.3388843  
O    5.7412890    0.0092042   -6.6926586  
C    5.0386311    0.0053382   -4.3567135  
H    7.8332614   -0.0063295   -0.8514716  
H    8.8758780    0.0070139   -3.5007402  
H    7.7997553    0.0105036   -6.8652102  
H    4.7870516    0.0088344   -6.8152742  
H    3.9885445    0.0053408   -4.6246640  
H    5.6080643   -0.0016048    0.2972283  
C    0.0000000    0.0000000    1.4700000  
C    1.0521667    0.0011902    2.3562342  
C    0.4917218    0.0011957    3.6679131  
C   -0.9187428   -0.0003148    3.5178682  
N   -1.1833171    0.0009411    2.1707914  
C   -1.7951701   -0.0010350    4.6072090  
C   -1.2375837   -0.0005224    5.8710424  
O   -2.0474215   -0.0015360    6.9697579  
C    0.1673580    0.0013566    6.0411963  
O    0.5673524    0.0020687    7.3615553  
C    1.0325770    0.0023412    4.9669890  
H    2.0953057    0.0030649    2.0900562  
H   -2.0989778   -0.0102372    1.7591824  
H   -2.8710934   -0.0020419    4.4995513  
H   -1.4634884   -0.0006497    7.7393593  
H    1.5290710    0.0033153    7.3880045  
H    2.1042148    0.0039609    5.1284455  
