62

C    3.7538767   -3.6430862   -5.5056737  
C    4.5100990   -4.4674717   -4.7050587  
C    3.9781241   -4.3685263   -3.3852817  
C    2.8890401   -3.4615773   -3.4424327  
N    2.7815116   -3.0383984   -4.7439604  
C    2.1265480   -3.1237027   -2.3202760  
C    2.4695409   -3.7123394   -1.1185933  
O    1.7580723   -3.4179964    0.0084325  
C    3.5530905   -4.6194057   -1.0413337  
O    3.7693043   -5.1204252    0.2257782  
C    4.3059140   -4.9529814   -2.1479092  
H    5.3434208   -5.0656238   -5.0318352  
H    1.2953755   -2.4330570   -2.3571880  
H    2.1577264   -3.9283892    0.7247011  
H    4.5175370   -5.7241733    0.1905311  
H    5.1302213   -5.6507652   -2.0579410  
H    3.8320741   -3.4374888   -6.5595117  
C    1.7704311   -2.0997828   -5.2515196  
C    1.5928577   -1.6333161   -6.5144339  
C    0.4607450   -0.7379004   -6.4771953  
C   -0.0100427   -0.7207974   -5.0790333  
N    0.8257125   -1.5670937   -4.3875237  
C   -1.0641734    0.0073898   -4.6315339  
C   -1.7831605    0.8289565   -5.5910241  
O   -2.7459477    1.5206786   -5.2862916  
C   -1.3021146    0.8259153   -7.0770899  
O   -1.8998129    1.5134388   -7.8939917  
C   -0.1528633    0.0000288   -7.4390073  
H    2.1870125   -1.8876235   -7.3740392  
H    0.1740146    0.0036602   -8.4699587  
H    0.7607707   -1.7654786   -3.4059568  
C    1.1319248    0.0015675   -0.8009270  
C    0.7969916    0.0034959   -2.1169404  
C   -0.6453336    0.0035703   -2.1842672  
C   -1.1266831    0.0015415   -0.7896027  
N    0.0000000    0.0000000    0.0000000  
C   -2.4346129    0.0013924   -0.4276297  
C   -3.4350110    0.0031352   -1.4820184  
O   -4.6384610    0.0030897   -1.2583919  
C   -2.9478958    0.0050460   -2.9661075  
O   -3.7809377    0.0062160   -3.8623775  
C   -1.5113821    0.0053068   -3.2312125  
H    1.4821240    0.0045436   -2.9459192  
H   -2.7664565    0.0000185    0.6013447  
H    2.1104318    0.0009428   -0.3488058  
C    2.5285572    2.1210227    2.9438989  
C    1.9331703    1.6216660    4.0790748  
C    0.8903039    0.7472258    3.6520102  
C    0.8972198    0.7527806    2.2336141  
N    1.9028376    1.5986179    1.8362361  
C    0.0000000    0.0000000    1.4700000  
C   -0.9207814   -0.7726952    2.1506477  
O   -1.8198395   -1.5274828    1.4542253  
C   -0.9436862   -0.7911793    3.5655508  
O   -1.9197945   -1.6098497    4.0950179  
C   -0.0590329   -0.0485852    4.3195194  
H    2.2150357    1.8593692    5.0905303  
H    2.1533708    1.7953814    0.8841339  
H   -2.3621246   -1.9821033    2.1118817  
H   -1.8668290   -1.5649508    5.0545920  
H   -0.1007624   -0.0827977    5.4019087  
H    3.3491200    2.8096064    2.8367138  
