60

C    7.7710082   -0.0176747    3.1941923  
C    7.4395699   -0.0273368    4.5293033  
C    6.0152171   -0.0163989    4.6047982  
C    5.5279357   -0.0003636    3.2727972  
N    6.6202828    0.0003740    2.4412955  
C    4.1637948    0.0132341    2.9666546  
C    3.2753748    0.0102894    4.0244254  
O    1.9321804    0.0227722    3.7821744  
C    3.7421759   -0.0052487    5.3603414  
O    2.7335373   -0.0058218    6.3016125  
C    5.0877945   -0.0183956    5.6631024  
H    8.1384438   -0.0395278    5.3480956  
H    3.7859890    0.0256311    1.9535846  
H    1.4989524    0.0184380    4.6456331  
H    3.1338720   -0.0167578    7.1763789  
H    5.4154315   -0.0299698    6.6960588  
H    8.7372090   -0.0207840    2.7194238  
C    6.5698748   -0.0006426    0.9721604  
C    7.6069608   -0.0018566    0.1026600  
C    6.9912938   -0.0024303   -1.2154651  
C    5.5370524   -0.0015106   -0.9475766  
N    5.2839248   -0.0003802    0.3330147  
C    4.5679461   -0.0016854   -2.0086701  
C    5.0305954   -0.0023424   -3.2796108  
O    4.2398094   -0.0025846   -4.3662103  
C    6.4922743   -0.0029067   -3.5823566  
O    6.8417596   -0.0036170   -4.7626448  
C    7.4664607   -0.0027577   -2.4765153  
H    8.6597322   -0.0022169    0.3279327  
H    4.8556973   -0.0030409   -5.1210843  
H    8.5162191   -0.0030652   -2.7377369  
C    3.1301149   -0.0010311   -1.7028252  
C    2.5367768   -0.0002767   -0.4864665  
C    1.1089904    0.0001028   -0.7656183  
C    1.0177872   -0.0004148   -2.2415132  
N    2.1993578   -0.0011611   -2.7963820  
C   -0.2459209   -0.0002877   -2.9257118  
C   -1.3675319   -0.0000605   -2.1698524  
O   -2.6129313    0.0000867   -2.6748490  
C   -1.3083584    0.0000910   -0.6783232  
O   -2.3693261    0.0004206   -0.0541692  
C    0.0000000    0.0000000    0.0000000  
H    3.0096017   -0.0001007    0.4807525  
H   -0.2829630   -0.0004687   -4.0053125  
H   -3.1967441    0.0002094   -1.8949034  
C    0.8175213    0.6860729    2.3021913  
C    0.0000000    0.0000000    1.4700000  
C   -0.8887526   -0.7456559    2.3478473  
C   -0.4549825   -0.3816753    3.7138435  
N    0.5448156    0.4573574    3.6934124  
C   -1.0945674   -0.9182058    4.8835240  
C   -2.1210866   -1.7789155    4.6970523  
O   -2.8083856   -2.3554314    5.6976972  
C   -2.5824069   -2.1655116    3.3310774  
O   -3.5227682   -2.9541547    3.2362962  
C   -1.9100805   -1.6015804    2.1470656  
H   -0.7567140   -0.6349833    5.8697035  
H   -3.4728268   -2.9124471    5.2533954  
H   -2.2742832   -1.9066565    1.1752040  
H    1.6189533    1.3585343    2.0405121  
