60

C    3.2095571   -5.4976322   -8.8916516  
C    2.7834996   -4.5356829   -8.0053124  
C    2.6995790   -3.3098597   -8.7298230  
C    3.0895546   -3.5879532  -10.0649297  
N    3.3944760   -4.9249753  -10.1282684  
C    3.1255853   -2.6084028  -11.0619105  
C    2.7610102   -1.3247971  -10.7046730  
O    2.7778835   -0.3299599  -11.6390325  
C    2.3693036   -1.0275491   -9.3776360  
O    2.0358528    0.2964746   -9.1798602  
C    2.3337833   -1.9933445   -8.3935105  
H    2.5616608   -4.6973514   -6.9643305  
H    3.6928219   -5.4137557  -10.9529272  
H    3.4220155   -2.8138823  -12.0812772  
H    2.4931430    0.4745983  -11.1864039  
H    1.7834018    0.4122195   -8.2587324  
H    3.3975409   -6.5466265   -8.7392318  
C    2.4782020   -2.1081877   -5.8783644  
C    1.9212515   -1.6438940   -7.0265418  
C    0.8545983   -0.7486149   -6.6450159  
C    0.8356633   -0.7292244   -5.1698703  
N    1.8439055   -1.5742005   -4.7669395  
C   -0.0307352   -0.0004646   -4.4215603  
C   -1.0100801    0.8193483   -5.1153371  
O   -1.8333382    1.5114172   -4.5308821  
C   -1.0083720    0.8138723   -6.6773144  
O   -1.8284254    1.4999049   -7.2724040  
C   -0.0251097   -0.0124250   -7.3732162  
H   -0.0304434   -0.0104840   -8.4547392  
H    3.2985195   -2.7956863   -5.7506359  
H    2.0835082   -1.7709325   -3.8125110  
C    3.2573670   -0.0002920   -1.5109380  
C    2.5379468   -0.0001709   -0.3591961  
C    1.1435043    0.0000332   -0.7338500  
C    1.1092609   -0.0000082   -2.2088477  
N    2.4227562    0.0001909   -2.6182613  
C   -0.0265532   -0.0002522   -2.9515663  
C   -1.3003035   -0.0002639   -2.2514981  
O   -2.3786784   -0.0004131   -2.8306429  
C   -1.2877725    0.0000312   -0.6895608  
O   -2.3539958    0.0003307   -0.0892036  
C    0.0000000    0.0000000    0.0000000  
H    2.9384091   -0.0000369    0.6389239  
H    4.3270394   -0.0004765   -1.6439446  
H    2.7280494   -0.0013406   -3.5742113  
C    0.8175213    0.6860729    2.3021913  
C    0.0000000    0.0000000    1.4700000  
C   -0.8887526   -0.7456559    2.3478473  
C   -0.4549825   -0.3816753    3.7138435  
N    0.5448156    0.4573574    3.6934124  
C   -1.0945674   -0.9182058    4.8835240  
C   -2.1210866   -1.7789155    4.6970523  
O   -2.8083856   -2.3554314    5.6976972  
C   -2.5824069   -2.1655116    3.3310774  
O   -3.5227682   -2.9541547    3.2362962  
C   -1.9100805   -1.6015804    2.1470656  
H   -0.7567140   -0.6349833    5.8697035  
H   -3.4728268   -2.9124471    5.2533954  
H   -2.2742832   -1.9066565    1.1752040  
H    1.6189533    1.3585343    2.0405121  
