60

C    3.7486430   -3.7048598   -5.2525368  
C    4.4617008   -4.5092812   -4.3940955  
C    3.8770945   -4.3602032   -3.1015742  
C    2.8018668   -3.4446554   -3.2341802  
N    2.7528554   -3.0647961   -4.5524827  
C    1.9978484   -3.0611507   -2.1565592  
C    2.2842965   -3.6121521   -0.9226537  
O    1.5305503   -3.2725072    0.1634037  
C    3.3531662   -4.5270782   -0.7701931  
O    3.5112773   -4.9870060    0.5208572  
C    4.1469347   -4.9056600   -1.8328002  
H    5.3007648   -5.1266414   -4.6658162  
H    1.1769574   -2.3637140   -2.2510162  
H    1.8944738   -3.7623584    0.9123172  
H    4.2532773   -5.5992005    0.5369076  
H    4.9587023   -5.6083604   -1.6854082  
H    3.8724816   -3.5359374   -6.3085136  
C    1.7744462   -2.1336756   -5.1326812  
C    1.6746901   -1.7240756   -6.4187042  
C    0.5405880   -0.8130115   -6.4352721  
C    0.0614873   -0.7888181   -5.0365368  
N    0.7809199   -1.5609927   -4.2683232  
C   -1.0641734    0.0073898   -4.6315339  
C   -1.6828412    0.7461574   -5.5806429  
O   -2.7449529    1.5348090   -5.3440238  
C   -1.2228405    0.7432055   -7.0006961  
O   -1.8334839    1.4397974   -7.8113104  
C   -0.0658199   -0.0818749   -7.3911696  
H    2.2942502   -2.0053647   -7.2530297  
H   -2.9590931    1.9284671   -6.2090843  
H    0.2361347   -0.0563396   -8.4296300  
C    1.1319248    0.0015675   -0.8009270  
C    0.7969916    0.0034959   -2.1169404  
C   -0.6453336    0.0035703   -2.1842672  
C   -1.1266831    0.0015415   -0.7896027  
N    0.0000000    0.0000000    0.0000000  
C   -2.4346129    0.0013924   -0.4276297  
C   -3.4350110    0.0031352   -1.4820184  
O   -4.6384610    0.0030897   -1.2583919  
C   -2.9478958    0.0050460   -2.9661075  
O   -3.7809377    0.0062160   -3.8623775  
C   -1.5113821    0.0053068   -3.2312125  
H    1.4821240    0.0045436   -2.9459192  
H   -2.7664565    0.0000185    0.6013447  
H    2.1104318    0.0009428   -0.3488058  
C    2.5528530    2.1414826    2.8079335  
C    2.0663498    1.7338582    4.0032312  
C    0.9804344    0.8229586    3.6752840  
C    0.9495562    0.7966882    2.1971295  
N    1.8690446    1.5676019    1.6831036  
C    0.0000000    0.0000000    1.4700000  
C   -0.8785127   -0.7372425    2.1869543  
O   -1.8187535   -1.5261249    1.6395491  
C   -0.8723269   -0.7321790    3.6796354  
O   -1.7010379   -1.4274584    4.2670412  
C    0.1115397    0.0933559    4.4024240  
H    2.4028853    2.0163452    4.9860947  
H   -2.2861435   -1.9184361    2.3990168  
H    0.0832434    0.0693689    5.4835595  
H    3.3664920    2.8238276    2.6198634  
