62

C    4.0689658   -3.5908410   -5.6081172  
C    3.2447015   -2.9396840   -6.4964023  
C    3.6492041   -3.3345400   -7.8060079  
C    4.7338693   -4.2355965   -7.6526334  
N    4.9641653   -4.3675718   -6.3057246  
C    5.3848169   -4.8274793   -8.7392490  
C    4.9323647   -4.5040898  -10.0037178  
O    5.5318257   -5.0537748  -11.0998511  
C    3.8517811   -3.6068370  -10.1771900  
O    3.5193192   -3.3858337  -11.4977839  
C    3.2093104   -3.0223468   -9.1056818  
H    5.6679453   -4.9518092   -5.8917901  
H    6.2121757   -5.5148922   -8.6290510  
H    5.0690755   -4.6997743  -11.8704426  
H    2.7813708   -2.7692237  -11.5265532  
H    2.3845790   -2.3386731   -9.2696574  
H    4.0900643   -3.5615678   -4.5321728  
C    2.1601074   -2.0149550   -6.1366351  
C    1.7671251   -1.6323651   -4.8993926  
C    0.6609148   -0.7146343   -5.1242671  
C    0.5173097   -0.6572546   -6.5948688  
N    1.3933529   -1.4175035   -7.1936662  
C   -0.4836753    0.1546046   -7.2304781  
C   -1.3041631    0.8760356   -6.4331879  
O   -2.2822030    1.6762454   -6.8905103  
C   -1.1845240    0.8389688   -4.9457495  
O   -1.9650988    1.5214299   -4.2822957  
C   -0.1496415   -0.0015615   -4.3176961  
H    2.1772049   -1.9355528   -3.9512431  
H   -0.5658887    0.1776593   -8.3073340  
H   -2.6900306    2.0519822   -6.0894787  
C    3.3003543    0.0005276   -1.4738987  
C    2.5232814    0.0003497   -2.6090747  
C    1.1623200   -0.0001320   -2.1820103  
C    1.1711883    0.0000582   -0.7636140  
N    2.4852300   -0.0014919   -0.3662360  
C    0.0000000    0.0000000    0.0000000  
C   -1.2020384    0.0000519   -0.6806477  
O   -2.3759249    0.0003493    0.0157743  
C   -1.2314656   -0.0005115   -2.0955510  
O   -2.5054392   -0.0008039   -2.6250180  
C   -0.0764516   -0.0007274   -2.8495195  
H    2.8919955   -0.0005620   -3.6205304  
H    2.8036267    0.0088183    0.5858662  
H   -3.0835638    0.0000347   -0.6418818  
H   -2.4360047   -0.0011529   -3.5845921  
H    4.3715549    0.0004895   -1.3667136  
C    2.5528530    2.1414826    2.8079335  
C    2.0663498    1.7338582    4.0032312  
C    0.9804344    0.8229586    3.6752840  
C    0.9495562    0.7966882    2.1971295  
N    1.8690446    1.5676019    1.6831036  
C    0.0000000    0.0000000    1.4700000  
C   -0.8785127   -0.7372425    2.1869543  
O   -1.8187535   -1.5261249    1.6395491  
C   -0.8723269   -0.7321790    3.6796354  
O   -1.7010379   -1.4274584    4.2670412  
C    0.1115397    0.0933559    4.4024240  
H    2.4028853    2.0163452    4.9860947  
H   -2.2861435   -1.9184361    2.3990168  
H    0.0832434    0.0693689    5.4835595  
H    3.3664920    2.8238276    2.6198634  
