60

C   -3.3187311    0.0147082   -8.3998563  
C   -4.3862191    0.0146700   -7.5321373  
C   -5.5698355    0.0166086   -8.3281583  
C   -5.1584733    0.0174888   -9.6856216  
N   -3.7856822    0.0182476   -9.6934148  
C   -6.0645435    0.0191020  -10.7504329  
C   -7.4103998    0.0195330  -10.4392228  
O   -8.3381416    0.0207415  -11.4403762  
C   -7.8404804    0.0190454   -9.0909475  
O   -9.2123693    0.0199956   -8.9451234  
C   -6.9471795    0.0177274   -8.0399787  
H   -4.3199670    0.0145062   -6.4576126  
H   -3.2099847    0.0083962  -10.5158839  
H   -5.7574301    0.0199236  -11.7871984  
H   -9.2034280    0.0211452  -11.0107897  
H   -9.4183371    0.0195576   -8.0053465  
H   -7.3063386    0.0175647   -7.0174906  
C   -1.0641738    0.0073911   -4.6315339  
C    0.2004555    0.0078179   -5.1262946  
C    0.0892946    0.0101556   -6.5659030  
C   -1.3541083    0.0110915   -6.8714806  
N   -1.9986532    0.0089309   -5.6559784  
C   -1.8747039    0.0136543   -8.1247479  
C   -0.9518136    0.0153961   -9.2476043  
O   -1.3222287    0.0176752  -10.4142606  
C    0.5810414    0.0141933   -8.9473387  
O    1.3676713    0.0153340   -9.8846081  
C    1.0213764    0.0116822   -7.5545178  
H    1.1076404    0.0064482   -4.5486899  
H    2.0843764    0.0110681   -7.3551324  
H   -2.9945001    0.0104952   -5.5321487  
C    1.1319245    0.0015656   -0.8009271  
C    0.7969914    0.0034943   -2.1169404  
C   -0.6453340    0.0035712   -2.1842672  
C   -1.1266833    0.0015434   -0.7896027  
N    0.0000000    0.0000000    0.0000000  
C   -2.4346131    0.0013965   -0.4276296  
C   -3.4350110    0.0031409   -1.4820182  
O   -4.6384610    0.0030975   -1.2583916  
C   -2.9478961    0.0050507   -2.9661073  
O   -3.7809383    0.0062220   -3.8623773  
C   -1.5113824    0.0053091   -3.2312124  
H    1.4821237    0.0045409   -2.9459193  
H   -2.7664564    0.0000233    0.6013449  
H    2.1104315    0.0009392   -0.3488061  
C    2.3971438    2.0127888    3.1728260  
C    1.9431056    1.6308205    1.9564670  
C    0.8496017    0.7127664    2.2356185  
C    0.7794028    0.6545384    3.7115134  
N    1.6840587    1.4146091    4.2663826  
C   -0.1885723   -0.1578550    4.3957118  
C   -1.0476298   -0.8789867    3.6398520  
O   -2.0015663   -1.6796266    4.1448486  
C   -1.0022026   -0.8410666    2.1483229  
O   -1.8147390   -1.5232959    1.5241687  
C    0.0000000    0.0000000    1.4700000  
H    2.3054237    1.9346118    0.9892483  
H   -0.2170646   -0.1815267    5.4753125  
H   -2.4487139   -2.0549881    3.3649027  
H    3.2048689    2.6911772    3.3971983  
