62

C    4.3172221   -2.1275323   -1.4345756  
C    5.3517574   -1.6299265   -2.1925942  
C    4.7753719   -0.7549433   -3.1604702  
C    3.3738289   -0.7583777   -2.9423148  
N    3.1294665   -1.6035295   -1.8884538  
C    2.4861703   -0.0045376   -3.7159919  
C    3.0231730    0.7670563   -4.7281424  
O    2.2016855    1.5228026   -5.5136479  
C    4.4188992    0.7834238   -4.9615918  
O    4.7982327    1.6012136   -6.0059425  
C    5.2951623    0.0397835   -4.1989070  
H    6.3935691   -1.8691157   -2.0644883  
H    2.2250274   -1.7988472   -1.4988094  
H    2.7718764    1.9763908   -6.1480015  
H    5.7549222    1.5548856   -6.0965133  
H    6.3593036    0.0723747   -4.4014375  
H    4.3324737   -2.8158804   -0.6069876  
C    0.0000000    0.0000000    0.0000000  
C    1.0521669   -0.0011899   -0.8862338  
C    0.4917222   -0.0011953   -2.1979129  
C   -0.9187426    0.0003152   -2.0478681  
N   -1.1833169   -0.0009409   -0.7007913  
C   -1.7951697    0.0010354   -3.1372090  
C   -1.2375835    0.0005230   -4.4010425  
O   -2.0474206    0.0015366   -5.4997579  
C    0.1673585   -0.0013561   -4.5711965  
O    0.5673529   -0.0020681   -5.8915554  
C    1.0325774   -0.0023407   -3.4969889  
H    2.0953060   -0.0030646   -0.6200560  
H   -2.0989776    0.0102374   -0.2891826  
H   -1.4634880    0.0006503   -6.2693594  
H    1.5290717   -0.0033145   -5.9180047  
C   -4.5109219    2.0976851   -0.3577878  
C   -3.4201968    1.6341174   -1.0207351  
C   -3.9001658    0.7380417   -2.0461684  
C   -5.3704686    0.7174371   -1.9254400  
N   -5.6768679    1.5619059   -0.8833834  
C   -6.1968213   -0.0117209   -2.7173835  
C   -5.5981450   -0.8310582   -3.7579641  
O   -6.2573150   -1.5235226   -4.5223519  
C   -4.0429874   -0.8246845   -3.9037359  
O   -3.5275543   -1.5107805   -4.7760096  
C   -3.2578649    0.0024042   -2.9908508  
H   -2.3962449    1.8904797   -0.8147869  
H   -7.2728523   -0.0125715   -2.6121841  
H   -4.5610537    2.7854750    0.4706576  
H   -6.6046971    1.7601945   -0.5564862  
C    1.1319247   -0.0015655    2.2709268  
C    0.7969915   -0.0034943    3.5869401  
C   -0.6453339   -0.0035710    3.6542670  
C   -1.1266833   -0.0015433    2.2596025  
N    0.0000000    0.0000000    1.4700000  
C   -2.4346130   -0.0013964    1.8976294  
C   -3.4350110   -0.0031408    2.9520183  
O   -4.6384611   -0.0030974    2.7283916  
C   -2.9478959   -0.0050506    4.4361073  
O   -3.7809380   -0.0062218    5.3323774  
C   -1.5113823   -0.0053090    4.7012123  
H    1.4821238   -0.0045407    4.4159191  
H   -2.7664565   -0.0000232    0.8686553  
H   -1.1823530   -0.0068408    5.7314848  
H    2.1104316   -0.0009391    1.8188057  
