64

C    6.3424109   -3.7440348   -2.1093802  
C    6.6986467   -4.5418296   -1.0467956  
C    5.6940735   -4.3774913   -0.0475836  
C    4.7422221   -3.4598922   -0.5613128  
N    5.1672123   -3.0935420   -1.8142247  
C    3.6104525   -3.0626555    0.1570806  
C    3.4362414   -3.6017791    1.4169116  
O    2.3481742   -3.2484748    2.1614237  
C    4.3751013   -4.5185305    1.9469355  
O    4.0612376   -4.9655793    3.2138138  
C    5.4919897   -4.9106561    1.2388930  
H    7.5753542   -5.1646800   -0.9974432  
H    2.8813350   -2.3635827   -0.2287772  
H    2.4190626   -3.7317226    2.9949178  
H    4.7450316   -5.5799716    3.4976298  
H    6.1937416   -5.6144150    1.6710347  
H    6.8343843   -3.5864529   -3.0538842  
C    4.4649524   -2.1653174   -2.7120718  
C    4.8312415   -1.7687298   -3.9530914  
C    3.7831095   -0.8542228   -4.3792322  
C    2.8385955   -0.8140034   -3.2421927  
N    3.2330551   -1.5805080   -2.2619573  
C    1.6478437   -0.0100096   -3.2702997  
C    1.4116055    0.7208916   -4.3835425  
O    0.3400162    1.5153812   -4.5464032  
C    2.3459801    0.7017537   -5.5474754  
O    2.0677672    1.3918891   -6.5280520  
C    3.5606921   -0.1310621   -5.4944008  
H    5.7048522   -2.0606422   -4.5104682  
H    0.4497506    1.9007550   -5.4344338  
H    4.2119799   -0.1172537   -6.3580338  
C    1.1188642    0.0008224   -0.8003808  
C    0.0000000    0.0000000    0.0000000  
C   -1.1323861    0.0008899   -0.8673529  
C   -0.6382661    0.0019681   -2.1969282  
N    0.7324017    0.0038483   -2.1202240  
C   -1.4770912    0.0027320   -3.3154810  
C   -2.8395474    0.0020946   -3.0876860  
O   -3.7039199    0.0024426   -4.1440353  
C   -3.3517867    0.0013927   -1.7684331  
O   -4.7300496    0.0012363   -1.7073125  
C   -2.5248543    0.0009121   -0.6644818  
H   -1.1067568    0.0036992   -4.3313814  
H   -4.5940031    0.0021828   -3.7685133  
H   -4.9934602    0.0007260   -0.7819919  
H   -2.9462579    0.0005600    0.3339656  
H    2.1619896    0.0009357   -0.5342065  
C    0.8676693    0.7151171    2.2619005  
C    0.5875920    0.4624972    3.5848544  
C   -0.5048400   -0.4542819    3.6114698  
C   -0.8517165   -0.7276451    2.2635546  
N    0.0000000    0.0000000    1.4700000  
C   -1.8902865   -1.5946756    1.9108239  
C   -2.5912627   -2.1969500    2.9375057  
O   -3.6148162   -3.0527051    2.6493466  
C   -2.2603868   -1.9365747    4.2886322  
O   -3.0513550   -2.6123276    5.1947621  
C   -1.2361111   -1.0811317    4.6373480  
H    1.1060808    0.8876438    4.4271209  
H   -2.1597133   -1.8070987    0.8854031  
H   -3.9636755   -3.3565188    3.4974381  
H   -2.7621927   -2.3810384    6.0827341  
H   -1.0058879   -0.9010589    5.6809233  
H    1.6167816    1.3499334    1.8205408  
