60

C    2.1878555   -4.5869688   -6.5728681  
C    1.4264482   -3.4787790   -6.2819367  
C    1.8907757   -2.4226787   -7.1207770  
C    2.9454699   -2.9502667   -7.9089366  
N    3.1011877   -4.2660616   -7.5496963  
C    3.6396501   -2.1866387   -8.8522147  
C    3.2620446   -0.8664437   -9.0028055  
O    3.9062668   -0.0758912   -9.9100098  
C    2.2124035   -0.3217198   -8.2254088  
O    1.9552794    1.0072658   -8.4919198  
C    1.5273205   -1.0743991   -7.2944628  
H    0.6345907   -3.4364550   -5.5538133  
H    3.7688947   -4.9012852   -7.9479883  
H    4.4445050   -2.5827773   -9.4559414  
H    3.4929326    0.7955377   -9.8549503  
H    1.2338024    1.2970483   -7.9252618  
H    2.1526471   -5.5805179   -6.1598549  
C    0.2055739   -0.7043961   -5.1603477  
C   -0.8712826    0.0001710   -4.7267111  
C   -1.3726447    0.7423359   -5.8592582  
C   -0.4933186    0.4099880   -6.9964127  
N    0.4429027   -0.4710987   -6.5064483  
C   -0.6357679    0.9095500   -8.2501475  
C   -1.7278971    1.8365864   -8.4958969  
O   -1.9397498    2.3410839   -9.5908402  
C   -2.6713156    2.2028686   -7.3061054  
O   -3.5940525    2.9825347   -7.5008830  
C   -2.4172088    1.5997595   -6.0001417  
H    0.0202134    0.6527119   -9.0702891  
H   -3.0751241    1.8584032   -5.1816215  
H    0.8458871   -1.3742666   -4.6097462  
C    1.0965514    0.0001359   -0.8010305  
C    0.0000000    0.0000000    0.0000000  
C   -1.1546563    0.0001470   -0.8669513  
C   -0.6372014    0.0003519   -2.2486282  
N    0.7342871    0.0007337   -2.1395014  
C   -1.4147739    0.0001352   -3.3608717  
C   -2.8576049   -0.0001048   -3.1854462  
O   -3.6427779   -0.0002494   -4.1244907  
C   -3.4275840   -0.0000725   -1.7311666  
O   -4.6406831    0.0000333   -1.5710060  
C   -2.4891867   -0.0001091   -0.6116744  
H   -2.8919122   -0.0002918    0.3920866  
H    2.1388272    0.0000663   -0.5261648  
H    1.3735872   -0.0006099   -2.9130262  
C    0.8681109    0.7263879    2.2709268  
C    0.6127770    0.5096195    3.5869401  
C   -0.4920590   -0.4175482    3.6542670  
C   -0.8620974   -0.7254003    2.2596025  
N    0.0000000    0.0000000    1.4700000  
C   -1.8641242   -1.5660088    1.8976294  
C   -2.6293522   -2.2103885    2.9520183  
O   -3.5512764   -2.9839180    2.7283916  
C   -2.2549728   -1.8987399    4.4361073  
O   -2.8923672   -2.4351063    5.3323774  
C   -1.1543735   -0.9755647    4.7012123  
H    1.1382914    0.9492124    4.4159191  
H   -2.1192137   -1.7782617    0.8686553  
H   -0.9013378   -0.7652422    5.7314848  
H    1.6172880    1.3558399    1.8188057  
