62

C    9.6993501   -4.2398437   -5.8011625  
C   10.0515210   -4.9035098   -4.6487779  
C    9.1097627   -4.5256455   -3.6463267  
C    8.1986341   -3.6220246   -4.2506780  
N    8.5865559   -3.4689934   -5.5586210  
C    7.1323633   -3.0445464   -3.5547074  
C    6.9829741   -3.3857146   -2.2244948  
O    5.9585356   -2.8511458   -1.4980127  
C    7.8819999   -4.2852333   -1.6036604  
O    7.6000229   -4.5241765   -0.2744732  
C    8.9342864   -4.8551010   -2.2895687  
H   10.8853494   -5.5762683   -4.5433232  
H    8.1219853   -2.8943850   -6.2383122  
H    6.0366209   -3.2155786   -0.6067463  
H    8.2534876   -5.1411550    0.0689282  
H    9.6067426   -5.5406538   -1.7872775  
H   10.1547460   -4.2542484   -6.7765426  
C    6.1837013   -2.1071891   -4.1730114  
C    6.1473616   -1.6429257   -5.4486345  
C    5.0179313   -0.7478961   -5.5388763  
C    4.3948019   -0.7286184   -4.2016665  
N    5.1487785   -1.5734153   -3.4201764  
C    3.2973506   -0.0000934   -3.8752374  
C    2.6891812    0.8195676   -4.9100422  
O    1.6983687    1.5114227   -4.7152914  
C    3.3322628    0.8142074   -6.3334964  
O    2.8288269    1.5001143   -7.2128968  
C    4.5147638   -0.0118348   -6.5641432  
H    6.8333436   -1.8984495   -6.2365113  
H    4.9540947   -0.0098150   -7.5524287  
H    4.9752877   -1.7701683   -2.4515502  
C    3.3321174    0.0004714   -1.3379332  
C    2.6974186    0.0000115   -2.5332308  
C    1.2800441   -0.0002119   -2.2052838  
C    1.2395035    0.0000643   -0.7271293  
N    2.4394063    0.0005458   -0.2131034  
C    0.0000000    0.0000000    0.0000000  
C   -1.1468701    0.0000634   -0.7169542  
O   -2.3742201    0.0000072   -0.1695492  
C   -1.1388767    0.0001606   -2.2096354  
O   -2.2206229    0.0000903   -2.7970413  
C    0.1454526    0.0001815   -2.9324239  
H   -2.9844344    0.0001023   -0.9290168  
H    0.1083580    0.0003680   -4.0135594  
H    4.3940040    0.0007617   -1.1498630  
C    2.5311839    2.1237619    3.0120429  
C    1.9795631    1.6616747    1.8395852  
C    0.9223175    0.7739173    2.1983588  
C    0.8753926    0.7337535    3.6154372  
N    1.8668922    1.5631002    4.0777464  
C   -0.0496243   -0.0427881    4.3197917  
C   -0.9437528   -0.7922060    3.5801400  
O   -1.8685244   -1.5680278    4.2172520  
C   -0.9124520   -0.7656372    2.1655264  
O   -1.8671164   -1.5663939    1.5732860  
C    0.0000000    0.0000000    1.4700000  
H    2.3005065    1.9304404    0.8477417  
H    2.0679347    1.7444845    5.0445261  
H   -0.0904770   -0.0778569    5.3997470  
H   -2.3849669   -2.0011402    3.5251786  
H   -1.7775064   -1.4909735    0.6183591  
H    3.3468514    2.8078103    3.1724291  
