60

C   -6.4044606    2.3800856   -0.7991114  
C   -6.3882432    1.0768170   -1.2392193  
C   -7.5557257    0.4461026   -0.7159756  
C   -8.2519587    1.4222718    0.0418356  
N   -7.5246574    2.5845030   -0.0279297  
C   -9.4529729    1.1505109    0.7040317  
C   -9.9605411   -0.1299318    0.5990628  
O  -11.1303585   -0.4493813    1.2255542  
C   -9.2802920   -1.1177504   -0.1521307  
O   -9.9130910   -2.3436548   -0.1602829  
C   -8.0952799   -0.8504319   -0.8054404  
H   -7.7776767    3.4543261    0.4049334  
H   -9.9884137    1.8900589    1.2833190  
H  -11.3017455   -1.3790158    1.0263793  
H   -9.3889594   -2.9529717   -0.6890768  
H   -7.5968958   -1.6274737   -1.3731525  
H   -5.7048595    3.1796123   -0.9731077  
C   -3.9877630    0.7060338   -1.9730979  
C   -3.2941076    0.0012878   -2.9038237  
C   -4.2616232   -0.7404938   -3.6774573  
C   -5.5852975   -0.4077259   -3.1171523  
N   -5.3499622    0.4732135   -2.0868840  
C   -6.7614333   -0.9068530   -3.5746254  
C   -6.7208864   -1.8338309   -4.6933759  
O   -7.7257842   -2.3379512   -5.1774670  
C   -5.3299836   -2.2005534   -5.3022346  
O   -5.2832941   -2.9801748   -6.2441853  
C   -4.1317821   -1.5978946   -4.7234702  
H   -7.7216480   -0.6497113   -3.1494485  
H   -3.1726430   -1.8568415   -5.1509312  
H   -3.6184115    1.3757280   -1.2135067  
C    0.0000000    0.0000000    0.0000000  
C    1.0541688   -0.0001723   -0.8560392  
C    0.5103136   -0.0000455   -2.1935956  
C   -0.9576373    0.0002461   -2.0455730  
N   -1.2018460   -0.0001389   -0.6915968  
C   -1.8348314    0.0008319   -3.0810607  
C   -1.2972851    0.0009739   -4.4314603  
O   -2.0050676    0.0014268   -5.4301316  
C    0.2542619    0.0004184   -4.6117572  
O    0.7184666    0.0002257   -5.7439122  
C    1.0974551    0.0000873   -3.4189129  
H    2.0940752   -0.0005484   -0.5817983  
H    2.1707276   -0.0000912   -3.5523673  
H   -2.1128194    0.0014915   -0.2706789  
C    1.1319247   -0.0015655    2.2709268  
C    0.7969915   -0.0034943    3.5869401  
C   -0.6453339   -0.0035710    3.6542670  
C   -1.1266833   -0.0015433    2.2596025  
N    0.0000000    0.0000000    1.4700000  
C   -2.4346130   -0.0013964    1.8976294  
C   -3.4350110   -0.0031408    2.9520183  
O   -4.6384611   -0.0030974    2.7283916  
C   -2.9478959   -0.0050506    4.4361073  
O   -3.7809380   -0.0062218    5.3323774  
C   -1.5113823   -0.0053090    4.7012123  
H    1.4821238   -0.0045407    4.4159191  
H   -2.7664565   -0.0000232    0.8686553  
H   -1.1823530   -0.0068408    5.7314848  
H    2.1104316   -0.0009391    1.8188057  
