62

C   -4.3666084    2.1232470    1.6309507  
C   -4.7871201    1.6624461    0.4048597  
C   -5.8787959    0.7763786    0.6451272  
C   -6.0808725    0.7358727    2.0484981  
N   -5.1446660    1.5633970    2.6171276  
C   -7.0788222   -0.0393066    2.6468142  
C   -7.8877041   -0.7869849    1.8132289  
O   -8.8780359   -1.5614249    2.3447355  
C   -7.7014504   -0.7600483    0.4105883  
O   -8.5867500   -1.5590061   -0.2831360  
C   -6.7169757    0.0042454   -0.1803357  
H   -4.3589219    1.9309616   -0.5456872  
H   -5.0505331    1.7441516    3.6002075  
H   -7.2378924   -0.0746276    3.7157627  
H   -9.3162025   -1.9934537    1.6000031  
H   -8.3928582   -1.4834541   -1.2224448  
H   -3.5723122    2.8058614    1.8801286  
C   -3.2578655    0.0024039   -2.9908504  
C   -3.9809871    0.0031291   -1.8468773  
C   -5.3695593    0.0043918   -2.2808874  
C   -5.2983972    0.0043646   -3.7578841  
N   -4.0631144    0.0031212   -4.1798622  
C   -6.4794714    0.0054037   -4.5765100  
C   -7.6771925    0.0060344   -3.9481800  
O   -8.8597160    0.0070297   -4.5866766  
C   -7.7819057    0.0057089   -2.4591546  
O   -8.9049089    0.0064474   -1.9550871  
C   -6.5558061    0.0046828   -1.6414735  
H   -3.6170577    0.0027522   -0.8336493  
H   -6.3979234    0.0055647   -5.6536639  
H   -9.5255220    0.0072479   -3.8754418  
C    0.0000000    0.0000000    0.0000000  
C    1.0521667   -0.0011902   -0.8862342  
C    0.4917216   -0.0011957   -2.1979129  
C   -0.9187429    0.0003148   -2.0478680  
N   -1.1833171   -0.0009412   -0.7007912  
C   -1.7951702    0.0010350   -3.1372088  
C   -1.2375841    0.0005225   -4.4010424  
O   -2.0474217    0.0015360   -5.4997576  
C    0.1673577   -0.0013567   -4.5711964  
O    0.5673522   -0.0020688   -5.8915554  
C    1.0325769   -0.0023413   -3.4969890  
H    2.0953057   -0.0030649   -0.6200562  
H   -2.0989779    0.0102372   -0.2891821  
H   -1.4634887    0.0006498   -6.2693588  
H    1.5290708   -0.0033153   -5.9180049  
H    2.1042148   -0.0039610   -3.6584453  
C    3.2798086   -0.0005857    2.9199648  
C    2.5571146   -0.0005566    4.0696553  
C    1.1637436   -0.0001548    3.6910360  
C    1.1336965    0.0000200    2.2159470  
N    2.4483514    0.0001428    1.8102719  
C    0.0000000    0.0000000    1.4700000  
C   -1.2757367    0.0000186    2.1664417  
O   -2.3524596    0.0000640    1.5842315  
C   -1.2676493    0.0000873    3.7284083  
O   -2.3355761    0.0004100    4.3257297  
C    0.0181563   -0.0001760    4.4216297  
H    2.9547357   -0.0006076    5.0689105  
H    0.0150794   -0.0003319    5.5031631  
H    4.3498549   -0.0008612    2.7900019  
H    2.7563627   -0.0012824    0.8551938  
