64

C    5.0640809   -0.9835985   -8.7382694  
C    4.5993248    0.0912751   -8.0163859  
C    4.6910571    1.2339099   -8.8652509  
C    5.2231365    0.7910387  -10.1032667  
N    5.4400247   -0.5599157   -9.9914685  
C    5.4502592    1.6529327  -11.1804577  
C    5.1342152    2.9861362  -11.0047818  
O    5.3356798    3.8710770  -12.0242448  
C    4.6027511    3.4472382   -9.7768787  
O    4.3400699    4.8014923   -9.7584889  
C    4.3786801    2.5975711   -8.7136830  
H    5.8035614   -1.1513164  -10.7167729  
H    5.8556756    1.3216663  -12.1265567  
H    5.0536016    4.7347150  -11.6958776  
H    3.9841264    5.0305620   -8.8945240  
H    3.9706942    2.9797653   -7.7852685  
H    5.1584834   -2.0186995   -8.4578894  
C    6.0229652   -2.1225939   -4.4623866  
C    5.0768601   -1.6606647   -3.5769639  
C    4.2270067   -0.7730859   -4.3012242  
C    4.7073242   -0.7328636   -5.6352421  
N    5.7996513   -1.5620047   -5.6981937  
C    4.1081198    0.0435404   -6.6317055  
C    3.0037397    0.7927577   -6.2750608  
O    2.3799025    1.5684387   -7.2089565  
C    2.5098139    0.7661276   -4.9491105  
O    1.4036786    1.5666796   -4.7518147  
C    3.1006054    0.0006263   -3.9654951  
H    5.0084068   -1.9294177   -2.5367340  
H    6.3439227   -1.7433061   -6.5221355  
H    1.6440966    2.0014228   -6.7568720  
H    1.1338958    1.4912304   -3.8314187  
H    6.8402641   -2.8064836   -4.3098214  
C    3.2798083    0.0005857   -1.4499652  
C    2.5571142    0.0005565   -2.5996556  
C    1.1637432    0.0001548   -2.2210361  
C    1.1336964   -0.0000200   -0.7459473  
N    2.4483512   -0.0001428   -0.3402723  
C    0.0000000    0.0000000    0.0000000  
C   -1.2757368   -0.0000186   -0.6964415  
O   -2.3524598   -0.0000639   -0.1142311  
C   -1.2676497   -0.0000872   -2.2584083  
O   -2.3355766   -0.0004101   -2.8557295  
C    0.0181558    0.0001758   -2.9516296  
H    0.0150788    0.0003319   -4.0331631  
H    4.3498547    0.0008612   -1.3200026  
H    2.7563626    0.0012823    0.6148059  
C    0.8676693    0.7151171    2.2619005  
C    0.5875920    0.4624972    3.5848544  
C   -0.5048400   -0.4542819    3.6114698  
C   -0.8517165   -0.7276451    2.2635546  
N    0.0000000    0.0000000    1.4700000  
C   -1.8902865   -1.5946756    1.9108239  
C   -2.5912627   -2.1969500    2.9375057  
O   -3.6148162   -3.0527051    2.6493466  
C   -2.2603868   -1.9365747    4.2886322  
O   -3.0513550   -2.6123276    5.1947621  
C   -1.2361111   -1.0811317    4.6373480  
H    1.1060808    0.8876438    4.4271209  
H   -2.1597133   -1.8070987    0.8854031  
H   -3.9636755   -3.3565188    3.4974381  
H   -2.7621927   -2.3810384    6.0827341  
H   -1.0058879   -0.9010589    5.6809233  
H    1.6167816    1.3499334    1.8205408  
