64

C    1.1188635    0.0008230   -0.8003812  
C    0.0000000    0.0000000    0.0000000  
C   -1.1323869    0.0008899   -0.8673520  
C   -0.6382674    0.0019682   -2.1969276  
N    0.7324004    0.0038489   -2.1202243  
C   -1.4770932    0.0027322   -3.3154803  
C   -2.8395494    0.0020944   -3.0876841  
O   -3.7039219    0.0024426   -4.1440332  
C   -3.3517877    0.0013927   -1.7684319  
O   -4.7300505    0.0012356   -1.7073100  
C   -2.5248549    0.0009118   -0.6644807  
H   -1.1067591    0.0036995   -4.3313805  
H   -4.5940051    0.0021826   -3.7685106  
H   -4.9934603    0.0007250   -0.7819896  
H   -2.9462583    0.0005596    0.3339673  
H    2.1619887    0.0009364   -0.5342077  
C    2.8254802   -0.7379435   -3.3478744  
C    3.4453571   -0.5353471   -4.5390008  
C    2.6233053    0.3835452   -5.2904680  
C    1.4654085    0.7019859   -4.4333444  
N    1.6478417   -0.0100087   -3.2703005  
C    0.4564068    1.5390771   -4.7839136  
C    0.5146205    2.1682250   -6.0928519  
O   -0.3455857    2.9374869   -6.5009965  
C    1.7316009    1.8451748   -7.0171905  
O    1.7913120    2.3686840   -8.1215608  
C    2.7573620    0.9271118   -6.5284914  
H    4.3725554   -0.9791205   -4.8552011  
H   -0.3838664    1.7592661   -4.1402000  
H    3.1297774   -1.3579524   -2.5202983  
C    3.8983574    0.6304241   -7.4065613  
C    4.9864171   -0.1857669   -7.2005865  
C    5.7910472   -0.1115180   -8.3760257  
C    5.1380918    0.7730537   -9.2721888  
N    3.9911000    1.2039934   -8.6530628  
C    5.6501519    1.0838592  -10.5355116  
C    6.8432521    0.4911286  -10.9006958  
O    7.3881003    0.7599908  -12.1229348  
C    7.5095263   -0.3944449  -10.0205510  
O    8.6863737   -0.9034174  -10.5297873  
C    7.0048108   -0.7017289   -8.7742103  
H    5.1762065   -0.7644353   -6.3128274  
H    3.3284524    1.8495194   -9.0431592  
H    5.1572718    1.7571393  -11.2232358  
H    8.2074322    0.2507866  -12.1746237  
H    9.0725990   -1.4914150   -9.8735156  
H    7.5375086   -1.3837474   -8.1218587  
C    0.8576279    0.7185626    2.2703808  
C    0.0000000    0.0000000    1.4700000  
C   -0.8668858   -0.7285659    2.3373528  
C   -0.4876752   -0.4117774    3.6669281  
N    0.5635254    0.4678311    3.5902241  
C   -1.1297612   -0.9515493    4.7854808  
C   -2.1738724   -1.8268314    4.5576857  
O   -2.8357962   -2.3827064    5.6140350  
C   -2.5667212   -2.1555554    3.2384331  
O   -3.6226318   -3.0413663    3.1773122  
C   -1.9335634   -1.6236449    2.1344818  
H    1.0363952    0.8769718    4.3757045  
H   -0.8454472   -0.7142436    5.8013813  
H   -3.5178062   -2.9546422    5.2385129  
H   -3.8247440   -3.2102924    2.2519915  
H   -2.2566033   -1.8942483    1.1360343  
H    1.6567807    1.3889844    2.0042067  
