64

C    5.9977213   -1.9530282   -4.8696488  
C    7.0601817   -2.7851577   -4.6028041  
C    7.9211765   -2.7385391   -5.7390763  
C    7.3274020   -1.8536220   -6.6751743  
N    6.1599271   -1.3959011   -6.1165036  
C    7.9045621   -1.5665499   -7.9158446  
C    9.1031182   -2.1838103   -8.2168913  
O    9.7103249   -1.9387451   -9.4144958  
C    9.7109424   -3.0701459   -7.2961433  
O   10.9016157   -3.6050924   -7.7427679  
C    9.1419894   -3.3540230   -6.0721213  
H    7.1971743   -3.3564408   -3.7006612  
H    5.5281136   -0.7438293   -6.5449837  
H    7.4569893   -0.8931428   -8.6337615  
H   10.5221044   -2.4624190   -9.4212574  
H   11.2456738   -4.1917885   -7.0623156  
H    9.6308640   -4.0372636   -5.3875310  
C    4.5568121   -2.1244626   -2.7957928  
C    4.8215153   -1.6265710   -4.0505851  
C    3.7464019   -0.7514634   -4.3866171  
C    2.8481254   -0.7551197   -3.2888868  
N    3.3693347   -1.6005174   -2.3411202  
C    1.6707636   -0.0012343   -3.2725974  
C    1.3953391    0.7706343   -4.3845946  
O    0.2593677    1.5264369   -4.4212711  
C    2.2790783    0.7872261   -5.4898314  
O    1.8647385    1.6052773   -6.5205879  
C    3.4406177    0.0435412   -5.5067009  
H    2.9557220   -1.7960291   -1.4474307  
H    0.2607531    1.9802266   -5.2741122  
H    2.5168292    1.5590887   -7.2264549  
H    4.0980299    0.0763084   -6.3676389  
H    5.1203942   -2.8129784   -2.1897556  
C    1.0965514    0.0001358   -0.8010306  
C    0.0000000    0.0000000    0.0000000  
C   -1.1546565    0.0001470   -0.8669508  
C   -0.6372019    0.0003520   -2.2486278  
N    0.7342867    0.0007338   -2.1395012  
C   -1.4147744    0.0001354   -3.3608712  
C   -2.8576052   -0.0001047   -3.1854454  
O   -3.6427785   -0.0002490   -4.1244896  
C   -3.4275841   -0.0000727   -1.7311660  
O   -4.6406832    0.0000333   -1.5710049  
C   -2.4891868   -0.0001090   -0.6116739  
H   -1.0150456    0.0001617   -4.3654239  
H   -2.8919122   -0.0002919    0.3920871  
H    2.1388270    0.0000663   -0.5261650  
C    2.5311839    2.1237619    3.0120429  
C    1.9795631    1.6616747    1.8395852  
C    0.9223175    0.7739173    2.1983588  
C    0.8753926    0.7337535    3.6154372  
N    1.8668922    1.5631002    4.0777464  
C   -0.0496243   -0.0427881    4.3197917  
C   -0.9437528   -0.7922060    3.5801400  
O   -1.8685244   -1.5680278    4.2172520  
C   -0.9124520   -0.7656372    2.1655264  
O   -1.8671164   -1.5663939    1.5732860  
C    0.0000000    0.0000000    1.4700000  
H    2.3005065    1.9304404    0.8477417  
H    2.0679347    1.7444845    5.0445261  
H   -0.0904770   -0.0778569    5.3997470  
H   -2.3849669   -2.0011402    3.5251786  
H   -1.7775064   -1.4909735    0.6183591  
H    3.3468514    2.8078103    3.1724291  
