62

C    1.0343283   -0.0598044   -8.7440205  
C    2.1248517   -0.7158457   -9.2663583  
C    2.2285391   -0.3270083  -10.6348075  
C    1.1651811    0.5755796  -10.8927444  
N    0.4583587    0.7142167   -9.7240710  
C    0.9584074    1.1626982  -12.1446738  
C    1.8413477    0.8328827  -13.1545333  
O    1.6858684    1.3777202  -14.3963021  
C    2.9082690   -0.0659954  -12.9168072  
O    3.7003267   -0.2936081  -14.0232344  
C    3.1127005   -0.6457887  -11.6820712  
H    2.7660157   -1.3923871   -8.7276622  
H   -0.3466389    1.3009629   -9.5988188  
H    0.1497876    1.8512464  -12.3477455  
H    2.3976129    1.0196667  -14.9426385  
H    4.3961166   -0.9108956  -13.7773968  
H    3.9385606   -1.3308547  -11.5300249  
C    2.0485057   -2.1404841   -4.9352597  
C    2.0920575   -1.7327544   -6.2250030  
C    0.9665701   -0.8221932   -6.3687264  
C    0.3351124   -0.7962138   -5.0318758  
N    0.9649966   -1.5669927   -4.1874018  
C   -0.8287665    0.0000939   -4.7555305  
C   -1.3384137    0.7372507   -5.7685430  
O   -2.4204377    1.5257894   -5.6524722  
C   -0.7235766    0.7324748   -7.1287316  
O   -1.2406167    1.4276566   -8.0031531  
C    0.4698625   -0.0926717   -7.3871127  
H    2.8005017   -2.0149674   -6.9849629  
H   -2.5373015    1.9181276   -6.5365349  
H    2.7147576   -2.8226586   -4.4315535  
C    1.0672569   -0.0000698   -0.8321910  
C    0.0000000    0.0000000    0.0000000  
C   -1.1601223   -0.0000736   -0.8778472  
C   -0.5938729   -0.0000768   -2.2438435  
N    0.7113367   -0.0001553   -2.2234123  
C   -1.4286985   -0.0001877   -3.4135239  
C   -2.7683113   -0.0006798   -3.2270524  
O   -3.6653902   -0.0008302   -4.2276970  
C   -3.3702024   -0.0010610   -1.8610774  
O   -4.5974910   -0.0013779   -1.7662963  
C   -2.4926825   -0.0008943   -0.6770658  
H   -4.5324245   -0.0012258   -3.7833954  
H   -2.9677772   -0.0012974    0.2947961  
H    2.1134391   -0.0000547   -0.5705119  
C    0.8576279    0.7185626    2.2703808  
C    0.0000000    0.0000000    1.4700000  
C   -0.8668858   -0.7285659    2.3373528  
C   -0.4876752   -0.4117774    3.6669281  
N    0.5635254    0.4678311    3.5902241  
C   -1.1297612   -0.9515493    4.7854808  
C   -2.1738724   -1.8268314    4.5576857  
O   -2.8357962   -2.3827064    5.6140350  
C   -2.5667212   -2.1555554    3.2384331  
O   -3.6226318   -3.0413663    3.1773122  
C   -1.9335634   -1.6236449    2.1344818  
H    1.0363952    0.8769718    4.3757045  
H   -0.8454472   -0.7142436    5.8013813  
H   -3.5178062   -2.9546422    5.2385129  
H   -3.8247440   -3.2102924    2.2519915  
H   -2.2566033   -1.8942483    1.1360343  
H    1.6567807    1.3889844    2.0042067  
