60

C    6.7636938   -0.0009527    0.9023169  
C    5.4671763   -0.0013101    0.4424133  
C    5.5308674   -0.0015360   -0.9825579  
C    6.9040849   -0.0015865   -1.3378040  
N    7.6252196    0.0007239   -0.1696528  
C    7.3417435   -0.0020994   -2.6656760  
C    6.3755446   -0.0028771   -3.6529133  
O    6.7475665   -0.0037537   -4.9661586  
C    5.0004299   -0.0024646   -3.3184348  
O    4.1619027   -0.0029228   -4.4139783  
C    4.5679461   -0.0016852   -2.0086700  
H    4.5841351   -0.0002918    1.0582295  
H    8.6271383   -0.0093205   -0.1061169  
H    8.3868646   -0.0019967   -2.9430282  
H    5.9304031   -0.0038905   -5.4814346  
H    3.2522420   -0.0026268   -4.1007370  
H    7.1420553   -0.0003154    1.9101865  
C    3.1301152   -0.0010311   -1.7028251  
C    2.5367770   -0.0002766   -0.4864665  
C    1.1089905    0.0001028   -0.7656183  
C    1.0177873   -0.0004148   -2.2415130  
N    2.1993580   -0.0011610   -2.7963820  
C   -0.2459208   -0.0002877   -2.9257119  
C   -1.3675318   -0.0000605   -2.1698523  
O   -2.6129310    0.0000866   -2.6748492  
C   -1.3083584    0.0000911   -0.6783232  
O   -2.3693259    0.0004206   -0.0541692  
C    0.0000000    0.0000000    0.0000000  
H    3.0096019   -0.0001007    0.4807529  
H   -3.1967440    0.0002093   -1.8949035  
C    2.2088388   -2.1426203   -5.8191635  
C    1.6816921   -1.7351239   -6.9971461  
C    0.6077912   -0.8240078   -6.6323121  
C    0.6276219   -0.7974852   -5.1539730  
N    1.5640856   -1.5684496   -4.6716460  
C   -0.2963281   -0.0005339   -4.3948471  
C   -1.1988036    0.7367192   -5.0813821  
O   -2.1196078    1.5258332   -4.5021938  
C   -1.2438073    0.7314048   -6.5733970  
O   -2.0920741    1.4267091   -7.1321600  
C   -0.2854223   -0.0943976   -7.3293553  
H    1.9842863   -2.0178255   -7.9909228  
H   -2.6127094    1.9180867   -5.2452553  
H   -0.3507714   -0.0705874   -8.4088886  
H    3.0283507   -2.8250548   -5.6589869  
C    2.5528530    2.1414826    2.8079335  
C    2.0663498    1.7338582    4.0032312  
C    0.9804344    0.8229586    3.6752840  
C    0.9495562    0.7966882    2.1971295  
N    1.8690446    1.5676019    1.6831036  
C    0.0000000    0.0000000    1.4700000  
C   -0.8785127   -0.7372425    2.1869543  
O   -1.8187535   -1.5261249    1.6395491  
C   -0.8723269   -0.7321790    3.6796354  
O   -1.7010379   -1.4274584    4.2670412  
C    0.1115397    0.0933559    4.4024240  
H    2.4028853    2.0163452    4.9860947  
H   -2.2861435   -1.9184361    2.3990168  
H    0.0832434    0.0693689    5.4835595  
H    3.3664920    2.8238276    2.6198634  
