60

C    4.3307342   -2.1193161   -1.2711413  
C    5.3837979   -1.6206416   -2.0024729  
C    4.8313690   -0.7469989   -2.9854123  
C    3.4246653   -0.7523142   -2.8035248  
N    3.1543583   -1.5972493   -1.7558431  
C    2.5562222   -0.0001542   -3.6002998  
C    3.1180978    0.7716627   -4.5986849  
O    2.3161062    1.5258167   -5.4055768  
C    4.5193625    0.7898944   -4.7960189  
O    4.9243886    1.6076651   -5.8306918  
C    5.3766838    0.0479121   -4.0105326  
H    6.4222902   -1.8582772   -1.8473667  
H    2.2404344   -1.7936472   -1.3895758  
H    2.9018499    1.9798776   -6.0252520  
H    5.8831622    1.5626521   -5.8964976  
H    6.4456543    0.0819115   -4.1855311  
H    4.3255769   -2.8071988   -0.4430416  
C    0.0000000    0.0000000    0.0000000  
C    1.0541691   -0.0001719   -0.8560389  
C    0.5103143   -0.0000448   -2.1935953  
C   -0.9576364    0.0002464   -2.0455731  
N   -1.2018458   -0.0001389   -0.6915972  
C   -1.8348303    0.0008322   -3.0810611  
C   -1.2972837    0.0009745   -4.4314603  
O   -2.0050658    0.0014276   -5.4301322  
C    0.2542633    0.0004194   -4.6117570  
O    0.7184681    0.0002269   -5.7439118  
C    1.0974560    0.0000881   -3.4189126  
H    2.0940754   -0.0005481   -0.5817976  
H   -2.1128195    0.0014913   -0.2706792  
C   -3.2941065    0.0012879   -2.9038247  
C   -4.0168008    0.0014141   -1.7541341  
C   -5.4101719    0.0018625   -2.1327540  
C   -5.4402184    0.0019588   -3.6078430  
N   -4.1255635    0.0019964   -4.0135178  
C   -6.5739142    0.0019530   -4.3537902  
C   -7.8496515    0.0020709   -3.6573491  
O   -8.9263744    0.0021366   -4.2395593  
C   -7.8415646    0.0022238   -2.0953824  
O   -8.9094911    0.0026305   -1.4980612  
C   -6.5557591    0.0019362   -1.4021605  
H   -3.6191797    0.0013981   -0.7548790  
H   -6.5739148    0.0018944   -5.4349514  
H   -6.5588365    0.0018391   -0.3206271  
H   -3.8175518    0.0005045   -4.9685958  
C    3.3321173   -0.0004715    2.8079335  
C    2.6974184   -0.0000116    4.0032312  
C    1.2800439    0.0002118    3.6752840  
C    1.2395035   -0.0000644    2.1971295  
N    2.4394063   -0.0005460    1.6831036  
C    0.0000000    0.0000000    1.4700000  
C   -1.1468701   -0.0000635    2.1869543  
O   -2.3742202   -0.0000073    1.6395491  
C   -1.1388768   -0.0001607    3.6796354  
O   -2.2206231   -0.0000905    4.2670412  
C    0.1454524   -0.0001816    4.4024240  
H    3.1367986    0.0000651    4.9860947  
H   -2.9844344   -0.0001026    2.3990168  
H    0.1083576   -0.0003682    5.4835595  
H    4.3940039   -0.0007619    2.6198634  
