64

C   -4.2130203    0.7246183   -7.7813956  
C   -5.4487418    0.4762543   -8.3325531  
C   -5.2472773   -0.4309944   -9.4146399  
C   -3.8565762   -0.7031992   -9.4761337  
N   -3.2577311    0.0159511   -8.4717308  
C   -3.2952695   -1.5616899  -10.4262487  
C   -4.1535405   -2.1564587  -11.3305708  
O   -3.6585221   -3.0037152  -12.2793206  
C   -5.5440510   -1.8970981  -11.2855088  
O   -6.2656621   -2.5647292  -12.2534391  
C   -6.0984534   -1.0500765  -10.3486433  
H   -6.3805814    0.8980550   -7.9967660  
H   -2.2361462   -1.7731839  -10.4784897  
H   -4.4154333   -3.3033293  -12.7994956  
H   -7.1944513   -2.3347301  -12.1531577  
H   -7.1671707   -0.8705673  -10.3388041  
H   -3.9373066    1.3523164   -6.9513739  
C   -1.0641738    0.0073911   -4.6315339  
C    0.2077340    0.0068358   -5.1556689  
C    0.0728972    0.0090183   -6.5756740  
C   -1.3163591    0.0111477   -6.8618346  
N   -1.9782054    0.0081399   -5.6591012  
C   -1.8198413    0.0139274   -8.1661684  
C   -0.9041964    0.0148759   -9.2004660  
O   -1.3413930    0.0179230  -10.4934709  
C    0.4859166    0.0124095   -8.9351415  
O    1.2686357    0.0133318  -10.0712288  
C    0.9833257    0.0093938   -7.6486345  
H    1.1204512    0.0039692   -4.5847641  
H   -2.9756844    0.0192750   -5.5455505  
H   -0.5510075    0.0177823  -11.0489489  
H    2.1928159    0.0115560   -9.8038493  
H    2.0532874    0.0073712   -7.4764235  
C    1.1319245    0.0015656   -0.8009271  
C    0.7969914    0.0034943   -2.1169404  
C   -0.6453340    0.0035712   -2.1842672  
C   -1.1266833    0.0015434   -0.7896027  
N    0.0000000    0.0000000    0.0000000  
C   -2.4346131    0.0013965   -0.4276296  
C   -3.4350110    0.0031409   -1.4820182  
O   -4.6384610    0.0030975   -1.2583916  
C   -2.9478961    0.0050507   -2.9661073  
O   -3.7809383    0.0062220   -3.8623773  
C   -1.5113824    0.0053091   -3.2312124  
H    1.4821237    0.0045409   -2.9459193  
H   -2.7664564    0.0000233    0.6013449  
H    2.1104315    0.0009392   -0.3488061  
C    2.5311839    2.1237619    3.0120429  
C    1.9795631    1.6616747    1.8395852  
C    0.9223175    0.7739173    2.1983588  
C    0.8753926    0.7337535    3.6154372  
N    1.8668922    1.5631002    4.0777464  
C   -0.0496243   -0.0427881    4.3197917  
C   -0.9437528   -0.7922060    3.5801400  
O   -1.8685244   -1.5680278    4.2172520  
C   -0.9124520   -0.7656372    2.1655264  
O   -1.8671164   -1.5663939    1.5732860  
C    0.0000000    0.0000000    1.4700000  
H    2.3005065    1.9304404    0.8477417  
H    2.0679347    1.7444845    5.0445261  
H   -0.0904770   -0.0778569    5.3997470  
H   -2.3849669   -2.0011402    3.5251786  
H   -1.7775064   -1.4909735    0.6183591  
H    3.3468514    2.8078103    3.1724291  
