64

C    9.0482050    0.0145947   -3.7439552  
C    9.7398925    0.0182379   -4.9330815  
C   11.1284254    0.0345949   -4.6070298  
C   11.2236005    0.0400714   -3.1918136  
N    9.9422974    0.0295811   -2.6990983  
C   12.4475672    0.0553997   -2.5161955  
C   13.5963866    0.0650743   -3.2832019  
O   14.8181195    0.0798019   -2.6747914  
C   13.5219654    0.0601984   -4.6964445  
O   14.7536049    0.0715786   -5.3179579  
C   12.3148335    0.0453517   -5.3636309  
H    9.2980078    0.0112116   -5.9147555  
H    9.6947074    0.0198291   -1.7261723  
H   12.5268630    0.0597899   -1.4378194  
H   15.4755810    0.0847993   -3.3825939  
H   14.6139886    0.0673101   -6.2698470  
H   12.2892603    0.0421325   -6.4470577  
C    6.6264025    0.0033838   -4.4617166  
C    5.3881259    0.0033501   -3.8624359  
C    5.6076656    0.0015731   -2.4530391  
C    7.0115531    0.0008610   -2.2504938  
N    7.6002636    0.0000424   -3.4906695  
C    7.5921595   -0.0005660   -0.9786122  
C    6.7400256   -0.0009802    0.1086071  
O    7.2537887   -0.0020103    1.3731473  
C    5.3365289   -0.0006588   -0.0730883  
O    4.6231717   -0.0015682    1.1077865  
C    4.7630507    0.0004755   -1.3275395  
H    4.4428897    0.0033634   -4.3777239  
H    8.6613888   -0.0012590   -0.8175189  
H    6.4980460   -0.0024348    1.9749099  
H    3.6846510   -0.0012502    0.8961676  
H    6.8919807    0.0040812   -5.5049934  
C    3.3003548    0.0005276   -1.4738982  
C    2.5232817    0.0003497   -2.6090743  
C    1.1623204   -0.0001319   -2.1820101  
C    1.1711886    0.0000583   -0.7636140  
N    2.4852302   -0.0014919   -0.3662356  
C    0.0000000    0.0000000    0.0000000  
C   -1.2020379    0.0000520   -0.6806479  
O   -2.3759249    0.0003495    0.0157742  
C   -1.2314652   -0.0005112   -2.0955511  
O   -2.5054384   -0.0008036   -2.6250184  
C   -0.0764510   -0.0007271   -2.8495195  
H    2.8919962   -0.0005619   -3.6205297  
H    2.8036267    0.0088181    0.5858667  
H   -3.0835636    0.0000348   -0.6418823  
H   -2.4360038   -0.0011526   -3.5845925  
H   -0.1304090   -0.0013420   -3.9319089  
C    2.3971438    2.0127888    3.1728260  
C    1.9431056    1.6308205    1.9564670  
C    0.8496017    0.7127664    2.2356185  
C    0.7794028    0.6545384    3.7115134  
N    1.6840587    1.4146091    4.2663826  
C   -0.1885723   -0.1578550    4.3957118  
C   -1.0476298   -0.8789867    3.6398520  
O   -2.0015663   -1.6796266    4.1448486  
C   -1.0022026   -0.8410666    2.1483229  
O   -1.8147390   -1.5232959    1.5241687  
C    0.0000000    0.0000000    1.4700000  
H    2.3054237    1.9346118    0.9892483  
H   -0.2170646   -0.1815267    5.4753125  
H   -2.4487139   -2.0549881    3.3649027  
H    3.2048689    2.6911772    3.3971983  
