64

C    5.8838805   -1.7974174   -5.0580262  
C    6.9710483   -2.6191136   -4.8700136  
C    7.7735791   -2.5232879   -6.0453268  
C    7.1203227   -1.6204898   -6.9229015  
N    5.9751735   -1.1999000   -6.2933349  
C    7.6304894   -1.2860003   -8.1809301  
C    8.8219715   -1.8733506   -8.5598316  
O    9.3649374   -1.5816434   -9.7776611  
C    9.4885160   -2.7768599   -7.6983176  
O   10.6636058   -3.2776468   -8.2195873  
C    8.9856678   -3.1075107   -6.4572133  
H    7.1616034   -3.2151965   -3.9940181  
H    5.3128029   -0.5459116   -6.6695602  
H    7.1373686   -0.5987441   -8.8545124  
H   10.1833733   -2.0909985   -9.8407910  
H   11.0501459   -3.8788630   -7.5755920  
H    9.5185255   -3.8028772   -5.8192430  
C    4.5551378   -2.0647521   -2.9129526  
C    3.4069297   -1.6070138   -2.3506641  
C    2.8049834   -0.7012746   -3.3004706  
C    3.7030479   -0.6686468   -4.4706014  
N    4.7450052   -1.5160901   -4.1721822  
C    3.4850378    0.0719021   -5.5867390  
C    2.2859710    0.8916867   -5.6389643  
O    2.0005484    1.5939524   -6.6000356  
C    1.3208825    0.8726932   -4.4109379  
O    0.3083946    1.5590471   -4.4433028  
C    1.6628945    0.0339172   -3.2649299  
H    3.0252945   -1.8733122   -1.3811003  
H    4.1564398    0.0814611   -6.4341099  
H    5.2786931   -2.7565742   -2.5132781  
C    1.1243410    0.0100105   -0.7919003  
C    0.7474072    0.0234665   -2.1148542  
C   -0.6787384    0.0234379   -2.1414698  
C   -1.1201748    0.0098411   -0.7935547  
N    0.0000000    0.0000000    0.0000000  
C   -2.4730818    0.0063307   -0.4408240  
C   -3.3971962    0.0170429   -1.4675058  
O   -4.7313520    0.0145490   -1.1793468  
C   -2.9763654    0.0303020   -2.8186325  
O   -4.0166484    0.0394464   -3.7247625  
C   -1.6418567    0.0334992   -3.1673480  
H   -2.8160166   -0.0041569    0.5845966  
H   -5.1938823    0.0230023   -2.0274386  
H   -3.6464680    0.0481700   -4.6127343  
H   -1.3497475    0.0435647   -4.2109234  
H    2.1062466    0.0053162   -0.3505405  
C    2.5311839    2.1237619    3.0120429  
C    1.9795631    1.6616747    1.8395852  
C    0.9223175    0.7739173    2.1983588  
C    0.8753926    0.7337535    3.6154372  
N    1.8668922    1.5631002    4.0777464  
C   -0.0496243   -0.0427881    4.3197917  
C   -0.9437528   -0.7922060    3.5801400  
O   -1.8685244   -1.5680278    4.2172520  
C   -0.9124520   -0.7656372    2.1655264  
O   -1.8671164   -1.5663939    1.5732860  
C    0.0000000    0.0000000    1.4700000  
H    2.3005065    1.9304404    0.8477417  
H    2.0679347    1.7444845    5.0445261  
H   -0.0904770   -0.0778569    5.3997470  
H   -2.3849669   -2.0011402    3.5251786  
H   -1.7775064   -1.4909735    0.6183591  
H    3.3468514    2.8078103    3.1724291  
