62

C    0.8852651   -0.7074224   -5.2161081  
C    0.5993479   -0.4569338   -6.5382184  
C   -0.5006908    0.4507935   -6.5615734  
C   -0.8459774    0.7210872   -5.2126308  
N    0.0139746    0.0003883   -4.4216235  
C   -1.8906661    1.5794580   -4.8568025  
C   -2.5995120    2.1760697   -5.8813861  
O   -3.6292747    3.0232984   -5.5901738  
C   -2.2703418    1.9186314   -7.2334922  
O   -3.0694396    2.5879581   -8.1372551  
C   -1.2400308    1.0717294   -7.5852626  
H    1.1189326   -0.8776614   -7.3820272  
H   -2.1589204    1.7895004   -3.8305844  
H   -3.9830433    3.3243423   -6.4372189  
H   -2.7809036    2.3591936   -9.0260844  
H   -1.0112977    0.8937151   -8.6295177  
H    1.6408477   -1.3360923   -4.7769872  
C    3.2798087    0.0005858   -1.4499643  
C    2.5571149    0.0005569   -2.5996548  
C    1.1637440    0.0001551   -2.2210358  
C    1.1336966   -0.0000198   -0.7459468  
N    2.4483512   -0.0001426   -0.3402714  
C    0.0000000    0.0000000    0.0000000  
C   -1.2757369   -0.0000185   -0.6964416  
O   -2.3524599   -0.0000639   -0.1142315  
C   -1.2676492   -0.0000870   -2.2584080  
O   -2.3355760   -0.0004099   -2.8557298  
C    0.0181565    0.0001762   -2.9516296  
H    2.9547360    0.0006079   -3.5989102  
H    2.7563627    0.0012824    0.6148067  
C    6.6001527    0.0019438   -4.3712983  
C    7.6333565    0.0021454   -3.4630268  
C    7.0453170    0.0020507   -2.1634845  
C    5.6383377    0.0015007   -2.3433035  
N    5.4022911    0.0034004   -3.6956701  
C    4.7390849    0.0009618   -1.2727274  
C    5.2698381    0.0006713    0.0026071  
O    4.4369620   -0.0002070    1.0839629  
C    6.6708717    0.0015864    0.2024139  
O    7.0428737    0.0015770    1.5309311  
C    7.5585986    0.0023916   -0.8532687  
H    8.6818886    0.0034422   -3.7071001  
H    4.4955262   -0.0070440   -4.1265415  
H    5.0045010    0.0000329    1.8657325  
H    8.0038197    0.0021953    1.5776988  
H    8.6265865    0.0032648   -0.6692011  
H    6.6229035    0.0023221   -5.4476078  
C    0.8681109    0.7263879    2.2709268  
C    0.6127770    0.5096195    3.5869401  
C   -0.4920590   -0.4175482    3.6542670  
C   -0.8620974   -0.7254003    2.2596025  
N    0.0000000    0.0000000    1.4700000  
C   -1.8641242   -1.5660088    1.8976294  
C   -2.6293522   -2.2103885    2.9520183  
O   -3.5512764   -2.9839180    2.7283916  
C   -2.2549728   -1.8987399    4.4361073  
O   -2.8923672   -2.4351063    5.3323774  
C   -1.1543735   -0.9755647    4.7012123  
H    1.1382914    0.9492124    4.4159191  
H   -2.1192137   -1.7782617    0.8686553  
H   -0.9013378   -0.7652422    5.7314848  
H    1.6172880    1.3558399    1.8188057  
