64

C    0.5547251   -0.7220035   -9.6068749  
C    0.0585240    0.5411041   -9.3814616  
C    0.5751919    1.3814057  -10.4117759  
C    1.3869911    0.5686043  -11.2437986  
N    1.3542638   -0.7022566  -10.7256679  
C    2.0585696    1.0666584  -12.3643848  
C    1.9076526    2.4096327  -12.6504312  
O    2.5409391    2.9479261  -13.7331139  
C    1.1022516    3.2368850  -11.8320182  
O    1.0526780    4.5512868  -12.2482320  
C    0.4396489    2.7462778  -10.7262210  
H    1.8288172   -1.4985780  -11.1112234  
H    2.6788971    0.4524387  -13.0024516  
H    2.3049539    3.8845693  -13.7496824  
H    0.4886177    5.0411947  -11.6420723  
H   -0.1700620    3.4041772  -10.1180269  
H    0.4027221   -1.6351349   -9.0572891  
C    0.0796644   -0.6812980   -5.1990241  
C   -0.9736297    0.0040464   -4.6965763  
C   -1.5081916    0.7505043   -5.8250903  
C   -0.6327092    0.3877371   -6.9602179  
N    0.2998665   -0.4513330   -6.5993111  
C   -0.8331622    0.9253257   -8.2777544  
C   -1.8617114    1.7858882   -8.4534059  
O   -2.1648973    2.3633119   -9.6284377  
C   -2.7630768    2.1712712   -7.3277143  
O   -3.6792550    2.9598475   -7.5600632  
C   -2.5367630    1.6062685   -5.9855229  
H   -2.9414838    2.9199431   -9.4381002  
H   -3.2118810    1.9104827   -5.1969164  
H    0.7431974   -1.3540086   -4.6792574  
C    1.1188642    0.0008222   -0.8003808  
C    0.0000000    0.0000000    0.0000000  
C   -1.1323862    0.0008899   -0.8673528  
C   -0.6382663    0.0019679   -2.1969280  
N    0.7324016    0.0038481   -2.1202242  
C   -1.4770914    0.0027318   -3.3154808  
C   -2.8395473    0.0020945   -3.0876857  
O   -3.7039201    0.0024425   -4.1440349  
C   -3.3517868    0.0013931   -1.7684331  
O   -4.7300497    0.0012366   -1.7073121  
C   -2.5248543    0.0009123   -0.6644817  
H    1.3576314   -0.0056167   -2.9057046  
H   -4.5940032    0.0021826   -3.7685128  
H   -4.9934602    0.0007259   -0.7819913  
H   -2.9462577    0.0005603    0.3339659  
H    2.1619895    0.0009355   -0.5342068  
C    2.5311839    2.1237619    3.0120429  
C    1.9795631    1.6616747    1.8395852  
C    0.9223175    0.7739173    2.1983588  
C    0.8753926    0.7337535    3.6154372  
N    1.8668922    1.5631002    4.0777464  
C   -0.0496243   -0.0427881    4.3197917  
C   -0.9437528   -0.7922060    3.5801400  
O   -1.8685244   -1.5680278    4.2172520  
C   -0.9124520   -0.7656372    2.1655264  
O   -1.8671164   -1.5663939    1.5732860  
C    0.0000000    0.0000000    1.4700000  
H    2.3005065    1.9304404    0.8477417  
H    2.0679347    1.7444845    5.0445261  
H   -0.0904770   -0.0778569    5.3997470  
H   -2.3849669   -2.0011402    3.5251786  
H   -1.7775064   -1.4909735    0.6183591  
H    3.3468514    2.8078103    3.1724291  
