60

C    4.4691981    0.0122486   -6.6960052  
C    5.6542524   -0.6646392   -6.8690278  
C    6.1559279   -0.3039026   -8.1546374  
C    5.2267173    0.6038168   -8.7243209  
N    4.2137267    0.7724069   -7.8132532  
C    5.4005191    1.1681322   -9.9916529  
C    6.5331353    0.8098133  -10.6966105  
O    6.7524421    1.3315546  -11.9386668  
C    7.4716702   -0.0946307  -10.1452936  
O    8.5468435   -0.3517839  -10.9706512  
C    7.3007190   -0.6519385   -8.8952092  
H    6.1014897   -1.3366858   -6.1567601  
H    3.4159383    1.3693827   -7.9362755  
H    4.6959511    1.8604454  -10.4315265  
H    7.5864752    0.9558268  -12.2492850  
H    9.1321212   -0.9709028  -10.5237220  
H    8.0366257   -1.3419459   -8.4992176  
C    4.5546440   -2.0975051   -2.8456837  
C    3.3966020   -1.6333854   -2.3093944  
C    2.8128208   -0.7373021   -3.2794821  
C    3.7322613   -0.7172949   -4.4331802  
N    4.7679905   -1.5620816   -4.1068517  
C    3.5352975    0.0116909   -5.5607837  
C    2.3379418    0.8314597   -5.6435733  
O    2.0707010    1.5238120   -6.6169857  
C    1.3504336    0.8257213   -4.4333668  
O    0.3391714    1.5121845   -4.4914818  
C    1.6707636   -0.0012343   -3.2725974  
H    2.9970334   -1.8893867   -1.3442924  
H    5.2702680   -2.7854719   -2.4255961  
H    5.5563149   -1.7607946   -4.6951585  
C    1.0965514    0.0001358   -0.8010306  
C    0.0000000    0.0000000    0.0000000  
C   -1.1546565    0.0001470   -0.8669508  
C   -0.6372019    0.0003520   -2.2486278  
N    0.7342867    0.0007338   -2.1395012  
C   -1.4147744    0.0001354   -3.3608712  
C   -2.8576052   -0.0001047   -3.1854454  
O   -3.6427785   -0.0002490   -4.1244896  
C   -3.4275841   -0.0000727   -1.7311660  
O   -4.6406832    0.0000333   -1.5710049  
C   -2.4891868   -0.0001090   -0.6116739  
H   -1.0150456    0.0001617   -4.3654239  
H   -2.8919122   -0.0002919    0.3920871  
H    2.1388270    0.0000663   -0.5261650  
C    0.8400945    0.7047457    2.2710304  
C    0.0000000    0.0000000    1.4700000  
C   -0.8844236   -0.7423113    2.3369512  
C   -0.4878984   -0.4098547    3.7186280  
N    0.5629682    0.4714286    3.6095011  
C   -1.0836927   -0.9095027    4.8308716  
C   -2.1891196   -1.8367527    4.6554461  
O   -2.7906899   -2.3413415    5.5944904  
C   -2.6257283   -2.2031529    3.2011665  
O   -3.5549479   -2.9829990    3.0410059  
C   -1.9068976   -1.5999348    2.0816745  
H   -0.7774656   -0.6525820    5.8354244  
H   -2.2155208   -1.8586617    1.0779135  
H    1.6384792    1.3747609    1.9961646  
H    1.0518368    0.8833920    4.3830260  
