64

C    6.5945443   -3.3363406   -4.7915941  
C    7.7136103   -3.3190595   -5.5915085  
C    7.8705238   -1.9806573   -6.0591179  
C    6.8087185   -1.2195718   -5.5066270  
N    6.0516306   -2.0736819   -4.7437834  
C    6.6482717    0.1468218   -5.7556541  
C    7.5767963    0.7560661   -6.5771416  
O    7.4676517    2.0883357   -6.8531082  
C    8.6429726    0.0135189   -7.1381304  
O    9.4836067    0.7630973   -7.9348804  
C    8.8017208   -1.3345499   -6.8931084  
H    8.3391751   -4.1670588   -5.8118672  
H    5.8411005    0.7324948   -5.3377262  
H    8.2058938    2.3077451   -7.4363086  
H   10.1754323    0.1867924   -8.2737812  
H    9.6282308   -1.8770484   -7.3370164  
H    6.1398689   -4.1497513   -4.2525285  
C    4.4925592   -2.1138022   -2.7420818  
C    4.8565035   -1.6946788   -3.9763669  
C    3.8030380   -0.7794117   -4.3874587  
C    2.8583245   -0.7634595   -3.2499849  
N    3.2572738   -1.5436999   -2.2824862  
C    1.6628945    0.0339172   -3.2649299  
C    1.4223698    0.7816763   -4.3659923  
O    0.3461535    1.5724674   -4.5158195  
C    2.3568199    0.7871865   -5.5300082  
O    2.0745621    1.4917540   -6.4990986  
C    3.5763790   -0.0392794   -5.4905725  
H    0.4536187    1.9730612   -5.3973686  
H    4.2275605   -0.0074316   -6.3538100  
H    5.0117291   -2.8025036   -2.0946821  
C    1.1243410    0.0100105   -0.7919003  
C    0.7474072    0.0234665   -2.1148542  
C   -0.6787384    0.0234379   -2.1414698  
C   -1.1201748    0.0098411   -0.7935547  
N    0.0000000    0.0000000    0.0000000  
C   -2.4730818    0.0063307   -0.4408240  
C   -3.3971962    0.0170429   -1.4675058  
O   -4.7313520    0.0145490   -1.1793468  
C   -2.9763654    0.0303020   -2.8186325  
O   -4.0166484    0.0394464   -3.7247625  
C   -1.6418567    0.0334992   -3.1673480  
H   -2.8160166   -0.0041569    0.5845966  
H   -5.1938823    0.0230023   -2.0274386  
H   -3.6464680    0.0481700   -4.6127343  
H   -1.3497475    0.0435647   -4.2109234  
H    2.1062466    0.0053162   -0.3505405  
C    2.5311839    2.1237619    3.0120429  
C    1.9795631    1.6616747    1.8395852  
C    0.9223175    0.7739173    2.1983588  
C    0.8753926    0.7337535    3.6154372  
N    1.8668922    1.5631002    4.0777464  
C   -0.0496243   -0.0427881    4.3197917  
C   -0.9437528   -0.7922060    3.5801400  
O   -1.8685244   -1.5680278    4.2172520  
C   -0.9124520   -0.7656372    2.1655264  
O   -1.8671164   -1.5663939    1.5732860  
C    0.0000000    0.0000000    1.4700000  
H    2.3005065    1.9304404    0.8477417  
H    2.0679347    1.7444845    5.0445261  
H   -0.0904770   -0.0778569    5.3997470  
H   -2.3849669   -2.0011402    3.5251786  
H   -1.7775064   -1.4909735    0.6183591  
H    3.3468514    2.8078103    3.1724291  
