64

C   -0.6492143   -0.3783797   -9.4961596  
C   -0.4608176   -0.2309631  -10.8508720  
C   -0.6900133    1.1434363  -11.1559872  
C   -1.0172639    1.7913509   -9.9373645  
N   -0.9853267    0.8381722   -8.9499195  
C   -1.3058310    3.1572410   -9.8607967  
C   -1.2629678    3.8823323  -11.0357794  
O   -1.5358966    5.2195710  -11.0180045  
C   -0.9388490    3.2537411  -12.2615998  
O   -0.9381749    4.1108552  -13.3426630  
C   -0.6543235    1.9062449  -12.3379237  
H   -0.1924142   -1.0175175  -11.5351849  
H   -1.5560918    3.6569888   -8.9351492  
H   -1.4515259    5.5276045  -11.9297402  
H   -0.7097971    3.6072404  -14.1299500  
H   -0.4095547    1.4525401  -13.2911907  
H   -0.5718257   -1.2553454   -8.8765623  
C    0.9349909   -0.7146101   -5.2228691  
C    0.6097336   -0.4617410   -6.5353978  
C   -0.4828947    0.4551244   -6.5243816  
C   -0.7833239    0.7282808   -5.1653176  
N    0.0950446    0.0004351   -4.4015596  
C   -1.8091177    1.5953279   -4.7770335  
C   -2.5448391    2.1978320   -5.7789723  
O   -3.5578401    3.0536139   -5.4557390  
C   -2.2605101    1.9376654   -7.1406946  
O   -3.0820305    2.6136334   -8.0190537  
C   -1.2488636    1.0822060   -7.5244738  
H    1.0990012   -0.8867809   -7.3950206  
H   -2.0432063    1.8075943   -3.7429410  
H   -3.9355520    3.3576003   -6.2913170  
H   -2.8235063    2.3824765   -8.9164583  
H    1.6987462   -1.3495585   -4.8075647  
C    3.3321173    0.0004713   -1.3379338  
C    2.6974181    0.0000116   -2.5332314  
C    1.2800438   -0.0002119   -2.2052841  
C    1.2395034    0.0000643   -0.7271299  
N    2.4394062    0.0005460   -0.2131038  
C    0.0000000    0.0000000    0.0000000  
C   -1.1468702    0.0000634   -0.7169543  
O   -2.3742203    0.0000074   -0.1695487  
C   -1.1388770    0.0001607   -2.2096355  
O   -2.2206234    0.0000905   -2.7970411  
C    0.1454522    0.0001815   -2.9324241  
H    3.1367984   -0.0000653   -3.5160950  
H   -2.9844346    0.0001026   -0.9290167  
H    4.3940038    0.0007618   -1.1498640  
C    0.8676693    0.7151171    2.2619005  
C    0.5875920    0.4624972    3.5848544  
C   -0.5048400   -0.4542819    3.6114698  
C   -0.8517165   -0.7276451    2.2635546  
N    0.0000000    0.0000000    1.4700000  
C   -1.8902865   -1.5946756    1.9108239  
C   -2.5912627   -2.1969500    2.9375057  
O   -3.6148162   -3.0527051    2.6493466  
C   -2.2603868   -1.9365747    4.2886322  
O   -3.0513550   -2.6123276    5.1947621  
C   -1.2361111   -1.0811317    4.6373480  
H    1.1060808    0.8876438    4.4271209  
H   -2.1597133   -1.8070987    0.8854031  
H   -3.9636755   -3.3565188    3.4974381  
H   -2.7621927   -2.3810384    6.0827341  
H   -1.0058879   -0.9010589    5.6809233  
H    1.6167816    1.3499334    1.8205408  
