60

C    7.6969705   -5.3233185   -1.7346475  
C    6.6904756   -4.4013609   -1.9062066  
C    7.3157805   -3.1444814   -2.1588854  
C    8.7169165   -3.3632848   -2.1294006  
N    8.9138110   -4.6964215   -1.8674904  
C    9.6466755   -2.3404240   -2.3393852  
C    9.1529992   -1.0736636   -2.5838843  
O   10.0167196   -0.0382982   -2.7960614  
C    7.7583878   -0.8353643   -2.6168856  
O    7.4249275    0.4788351   -2.8718911  
C    6.8405820   -1.8439131   -2.4095503  
H    5.6353863   -4.6089519   -1.8543896  
H    9.8076195   -5.1483134   -1.7976387  
H   10.7158233   -2.5006406   -2.3180650  
H    9.4720230    0.7455831   -2.9447254  
H    6.4657791    0.5537357   -2.8771238  
H    7.6431453   -6.3782046   -1.5266163  
C    4.4498807   -2.0927813   -1.5965445  
C    3.2085348   -1.6305559   -1.8956811  
C    3.3524544   -0.7335190   -3.0179322  
C    4.7897029   -0.7108881   -3.3504915  
N    5.3998261   -1.5552206   -2.4517471  
C    5.3348521    0.0196507   -4.3558920  
C    4.4468029    0.8384416   -5.1642766  
O    4.8411378    1.5320447   -6.0925629  
C    2.9210858    0.8299296   -4.8297318  
O    2.1637301    1.5155489   -5.5032295  
C    2.4521483    0.0014840   -3.7217481  
H    2.2961916   -1.8884108   -1.3879858  
H    6.3918374    0.0219794   -4.5832375  
H    4.7506790   -2.7807341   -0.8231549  
C    0.0000000    0.0000000    0.0000000  
C    1.0662923   -0.0000101   -0.8334270  
C    0.4961873    0.0000065   -2.1718887  
C   -0.9663854   -0.0000848   -1.9540250  
N   -1.2632773   -0.0000083   -0.6828660  
C   -1.8985359   -0.0000514   -3.0477261  
C   -1.3925770    0.0004566   -4.3020547  
O   -2.1456378    0.0005414   -5.4151314  
C    0.0786240    0.0009326   -4.5545000  
O    0.4683767    0.0012591   -5.7221100  
C    1.0143171    0.0008444   -3.4159031  
H    2.1107200    0.0000633   -0.5721865  
H   -2.9622181   -0.0003268   -2.8593381  
H   -1.5042265    0.0009697   -6.1484419  
C    1.1319247   -0.0015655    2.2709268  
C    0.7969915   -0.0034943    3.5869401  
C   -0.6453339   -0.0035710    3.6542670  
C   -1.1266833   -0.0015433    2.2596025  
N    0.0000000    0.0000000    1.4700000  
C   -2.4346130   -0.0013964    1.8976294  
C   -3.4350110   -0.0031408    2.9520183  
O   -4.6384611   -0.0030974    2.7283916  
C   -2.9478959   -0.0050506    4.4361073  
O   -3.7809380   -0.0062218    5.3323774  
C   -1.5113823   -0.0053090    4.7012123  
H    1.4821238   -0.0045407    4.4159191  
H   -2.7664565   -0.0000232    0.8686553  
H   -1.1823530   -0.0068408    5.7314848  
H    2.1104316   -0.0009391    1.8188057  
