64

C    1.2760939   -2.3713338   -7.8043434  
C    0.8465255   -1.0681501   -7.7061050  
C    1.1577898   -0.4326674   -8.9446021  
C    1.7813636   -1.4059736   -9.7666469  
N    1.8391637   -2.5711643   -9.0430393  
C    2.2233165   -1.1293020  -11.0639203  
C    2.0320207    0.1531991  -11.5401285  
O    2.4443134    0.4774313  -12.8002495  
C    1.4121731    1.1382199  -10.7349336  
O    1.2942432    2.3666966  -11.3516039  
C    0.9761719    0.8660563   -9.4549508  
H    2.2204537   -3.4399397   -9.3714121  
H    2.6994296   -1.8666486  -11.6954580  
H    2.2188629    1.4077539  -12.9303891  
H    0.8657735    2.9738601  -10.7405634  
H    0.5049952    1.6410476   -8.8617744  
H    1.2266764   -3.1737117   -7.0883082  
C    0.5332462   -0.7193579   -5.2240418  
C   -0.2963293   -0.0005341   -4.3948471  
C   -1.1923437    0.7280151   -5.2320894  
C   -0.8589933    0.4109475   -6.5738313  
N    0.1940940   -0.4688039   -6.5330672  
C   -1.5389808    0.9506272   -7.6698017  
C   -2.5745421    1.8261022   -7.4064881  
O   -3.2722204    2.3818984   -8.4396146  
C   -2.9218749    2.1551056   -6.0745971  
O   -3.9749427    3.0410833   -5.9774569  
C   -2.2513097    1.6232859   -4.9929146  
H   -1.2897040    0.7131092   -8.6948127  
H   -3.9408710    2.9539986   -8.0410249  
H   -4.1451821    3.2101943   -5.0457795  
H   -2.5398838    1.8941046   -3.9840238  
H    1.3409609   -1.3898538   -4.9853120  
C    3.1301146   -0.0010313   -1.7028256  
C    2.5367765   -0.0002766   -0.4864669  
C    1.1089901    0.0001027   -0.7656184  
C    1.0177865   -0.0004150   -2.2415133  
N    2.1993571   -0.0011612   -2.7963824  
C   -0.2459219   -0.0002879   -2.9257116  
C   -1.3675326   -0.0000606   -2.1698520  
O   -2.6129318    0.0000865   -2.6748483  
C   -1.3083588    0.0000910   -0.6783229  
O   -2.3693264    0.0004206   -0.0541685  
C    0.0000000    0.0000000    0.0000000  
H    3.0096016   -0.0001007    0.4807518  
H   -3.1967444    0.0002093   -1.8949026  
H    4.1849275   -0.0015114   -1.9271979  
C    0.8576279    0.7185626    2.2703808  
C    0.0000000    0.0000000    1.4700000  
C   -0.8668858   -0.7285659    2.3373528  
C   -0.4876752   -0.4117774    3.6669281  
N    0.5635254    0.4678311    3.5902241  
C   -1.1297612   -0.9515493    4.7854808  
C   -2.1738724   -1.8268314    4.5576857  
O   -2.8357962   -2.3827064    5.6140350  
C   -2.5667212   -2.1555554    3.2384331  
O   -3.6226318   -3.0413663    3.1773122  
C   -1.9335634   -1.6236449    2.1344818  
H    1.0363952    0.8769718    4.3757045  
H   -0.8454472   -0.7142436    5.8013813  
H   -3.5178062   -2.9546422    5.2385129  
H   -3.8247440   -3.2102924    2.2519915  
H   -2.2566033   -1.8942483    1.1360343  
H    1.6567807    1.3889844    2.0042067  
