64

C    3.3949112   -0.7233449   -7.5032913  
C    2.4523280   -0.0038047   -8.2006198  
C    3.1476973    0.7230581   -9.2119220  
C    4.5237087    0.4042711   -9.0819458  
N    4.6391296   -0.4748376   -8.0338699  
C    5.5068535    0.9420174   -9.9180348  
C    5.0933544    1.8172911  -10.9034755  
O    6.0117421    2.3712331  -11.7477066  
C    3.7250168    2.1479917  -11.0487536  
O    3.4732424    3.0335224  -12.0762695  
C    2.7546076    1.6180806  -10.2241178  
H    5.4971966   -0.8850695   -7.7122924  
H    6.5572487    0.7031824   -9.8240672  
H    5.5187404    2.9435271  -12.3499464  
H    2.5268239    3.2038615  -12.1059341  
H    1.7143421    1.8901708  -10.3593697  
H    3.2782955   -1.3930529   -6.6685156  
C    0.0950448    0.0004350   -4.4015596  
C    1.1162031   -0.0007473   -5.3233521  
C    0.5111093   -0.0004492   -6.6150419  
C   -0.8933806    0.0012300   -6.4167190  
N   -1.1116071   -0.0002219   -5.0613621  
C   -1.8066466    0.0022592   -7.4753655  
C   -1.2927262    0.0018877   -8.7575764  
O   -2.1397628    0.0032026   -9.8278749  
C    0.1055546   -0.0001557   -8.9758059  
O    0.4600374   -0.0006953  -10.3091058  
C    1.0070998   -0.0014451   -7.9319006  
H    2.1678558   -0.0028119   -5.0931014  
H   -2.0126134    0.0110116   -4.6185948  
H   -2.8782451    0.0033958   -7.3308769  
H   -1.5825640    0.0023689  -10.6170477  
H    1.4202833   -0.0020698  -10.3685178  
C    3.3321173    0.0004714   -1.3379336  
C    2.6974184    0.0000115   -2.5332313  
C    1.2800437   -0.0002119   -2.2052840  
C    1.2395034    0.0000643   -0.7271298  
N    2.4394063    0.0005459   -0.2131037  
C    0.0000000    0.0000000    0.0000000  
C   -1.1468702    0.0000634   -0.7169544  
O   -2.3742202    0.0000072   -0.1695489  
C   -1.1388770    0.0001606   -2.2096356  
O   -2.2206231    0.0000903   -2.7970412  
C    0.1454523    0.0001814   -2.9324241  
H    3.1367986   -0.0000653   -3.5160949  
H   -2.9844345    0.0001025   -0.9290168  
H    4.3940040    0.0007618   -1.1498638  
C    2.5311839    2.1237619    3.0120429  
C    1.9795631    1.6616747    1.8395852  
C    0.9223175    0.7739173    2.1983588  
C    0.8753926    0.7337535    3.6154372  
N    1.8668922    1.5631002    4.0777464  
C   -0.0496243   -0.0427881    4.3197917  
C   -0.9437528   -0.7922060    3.5801400  
O   -1.8685244   -1.5680278    4.2172520  
C   -0.9124520   -0.7656372    2.1655264  
O   -1.8671164   -1.5663939    1.5732860  
C    0.0000000    0.0000000    1.4700000  
H    2.3005065    1.9304404    0.8477417  
H    2.0679347    1.7444845    5.0445261  
H   -0.0904770   -0.0778569    5.3997470  
H   -2.3849669   -2.0011402    3.5251786  
H   -1.7775064   -1.4909735    0.6183591  
H    3.3468514    2.8078103    3.1724291  
