60

C   -6.6781274    0.0000524   -5.5992978  
C   -5.6259603   -0.0002107   -6.4855327  
C   -6.1864051    0.0002250   -7.7972108  
C   -7.5968707    0.0010369   -7.6471658  
N   -7.8614436   -0.0010414   -6.3000895  
C   -8.4732978    0.0019430   -8.7365067  
C   -7.9157115    0.0023380  -10.0003398  
O   -8.7255496    0.0035715  -11.0990548  
C   -6.5107692    0.0011656  -10.1704941  
O   -6.1107747    0.0013214  -11.4908534  
C   -5.6455497   -0.0000018   -9.0962878  
H   -4.5828205   -0.0017665   -6.2193554  
H   -8.7771095    0.0095187   -5.8884751  
H   -9.5492215    0.0024205   -8.6288485  
H   -8.1416162    0.0033454  -11.8686562  
H   -5.1490555    0.0005115  -11.5173033  
H   -4.5739113   -0.0010658   -9.2577446  
C   -3.3460096   -0.0004265   -2.7913646  
C   -3.9807085   -0.0008721   -1.5960671  
C   -5.3980828   -0.0010999   -1.9240143  
C   -5.4386233   -0.0006190   -3.4021688  
N   -4.2387205   -0.0003037   -3.9161945  
C   -6.6781272   -0.0007182   -4.1292983  
C   -7.8249972   -0.0016616   -3.4123443  
O   -9.0523465   -0.0018579   -3.9597493  
C   -7.8170032   -0.0025378   -1.9196634  
O   -8.8987494   -0.0032509   -1.3322576  
C   -6.5326743   -0.0023731   -1.1968748  
H   -3.5413283   -0.0011176   -0.6132039  
H   -9.6625606   -0.0026195   -3.2002818  
H   -6.5697686   -0.0031427   -0.1157395  
C    0.0000000    0.0000000    0.0000000  
C    1.0662919   -0.0000103   -0.8334269  
C    0.4961869    0.0000064   -2.1718889  
C   -0.9663859   -0.0000850   -1.9540246  
N   -1.2632774   -0.0000084   -0.6828657  
C   -1.8985363   -0.0000518   -3.0477257  
C   -1.3925778    0.0004564   -4.3020545  
O   -2.1456384    0.0005409   -5.4151311  
C    0.0786230    0.0009323   -4.5544998  
O    0.4683758    0.0012588   -5.7221098  
C    1.0143164    0.0008442   -3.4159030  
H    2.1107195    0.0000633   -0.5721867  
H   -1.5042275    0.0009691   -6.1484418  
H    2.0724152    0.0013148   -3.6409744  
C    3.3321173   -0.0004715    2.8079335  
C    2.6974184   -0.0000116    4.0032312  
C    1.2800439    0.0002118    3.6752840  
C    1.2395035   -0.0000644    2.1971295  
N    2.4394063   -0.0005460    1.6831036  
C    0.0000000    0.0000000    1.4700000  
C   -1.1468701   -0.0000635    2.1869543  
O   -2.3742202   -0.0000073    1.6395491  
C   -1.1388768   -0.0001607    3.6796354  
O   -2.2206231   -0.0000905    4.2670412  
C    0.1454524   -0.0001816    4.4024240  
H    3.1367986    0.0000651    4.9860947  
H   -2.9844344   -0.0001026    2.3990168  
H    0.1083576   -0.0003682    5.4835595  
H    4.3940039   -0.0007619    2.6198634  
