60

C   -4.1054802    2.1152155    1.8335436  
C   -4.7396948    1.6153668    2.9472714  
C   -5.7677453    0.7417834    2.4840612  
C   -5.7121927    0.7483436    1.0667406  
N   -4.6931133    1.5939308    0.7046956  
C   -6.5830804   -0.0034181    0.2722612  
C   -7.5270502   -0.7761096    0.9203716  
O   -8.4020806   -1.5299248    0.1929796  
C   -7.5984689   -0.7955878    2.3336438  
O   -8.5925715   -1.6141174    2.8287313  
C   -6.7398148   -0.0539992    3.1180448  
H   -4.4925584    1.8522014    3.9679709  
H   -4.4099800    1.7912385   -0.2381119  
H   -8.9668278   -1.9847261    0.8313229  
H   -8.5725191   -1.5699292    3.7895895  
H   -6.8186525   -0.0889597    4.1983408  
H   -3.2813774    2.8034403    1.7550611  
C   -3.3460096   -0.0004265   -2.7913646  
C   -3.9807084   -0.0008719   -1.5960668  
C   -5.3980827   -0.0010995   -1.9240138  
C   -5.4386236   -0.0006186   -3.4021678  
N   -4.2387207   -0.0003035   -3.9161945  
C   -6.6781270   -0.0007177   -4.1292973  
C   -7.8249971   -0.0016611   -3.4123433  
O   -9.0523473   -0.0018575   -3.9597482  
C   -7.8170030   -0.0025372   -1.9196622  
O   -8.8987492   -0.0032501   -1.3322566  
C   -6.5326742   -0.0023725   -1.1968739  
H   -3.5413277   -0.0011173   -0.6132035  
H   -6.6781274   -0.0001516   -5.2095336  
H   -9.6625614   -0.0026186   -3.2002807  
C    0.0000000    0.0000000    0.0000000  
C    1.0662919   -0.0000103   -0.8334269  
C    0.4961869    0.0000064   -2.1718889  
C   -0.9663859   -0.0000850   -1.9540246  
N   -1.2632774   -0.0000084   -0.6828657  
C   -1.8985363   -0.0000518   -3.0477257  
C   -1.3925778    0.0004564   -4.3020545  
O   -2.1456384    0.0005409   -5.4151311  
C    0.0786230    0.0009323   -4.5544998  
O    0.4683758    0.0012588   -5.7221098  
C    1.0143164    0.0008442   -3.4159030  
H    2.1107195    0.0000633   -0.5721867  
H   -1.5042275    0.0009691   -6.1484418  
H    2.0724152    0.0013148   -3.6409744  
C    3.2798086   -0.0005857    2.9199648  
C    2.5571146   -0.0005566    4.0696553  
C    1.1637436   -0.0001548    3.6910360  
C    1.1336965    0.0000200    2.2159470  
N    2.4483514    0.0001428    1.8102719  
C    0.0000000    0.0000000    1.4700000  
C   -1.2757367    0.0000186    2.1664417  
O   -2.3524596    0.0000640    1.5842315  
C   -1.2676493    0.0000873    3.7284083  
O   -2.3355761    0.0004100    4.3257297  
C    0.0181563   -0.0001760    4.4216297  
H    2.9547357   -0.0006076    5.0689105  
H    0.0150794   -0.0003319    5.5031631  
H    4.3498549   -0.0008612    2.7900019  
H    2.7563627   -0.0012824    0.8551938  
