62

C    8.4710686   -0.7138573    0.5580174  
C    9.7504925   -0.4656523    0.9984006  
C   10.3404532    0.4445276    0.0720537  
C    9.3651246    0.7186015   -0.9206914  
N    8.2427098   -0.0022995   -0.5964898  
C    9.6019538    1.5801406   -1.9960755  
C   10.8459330    2.1760918   -2.0704811  
O   11.1303188    3.0263109   -3.0996868  
C   11.8323190    1.9149031   -1.0898485  
O   13.0196814    2.5840428   -1.3037826  
C   11.5994665    1.0648744   -0.0288316  
H   10.2032864   -0.8894356    1.8783889  
H    8.8628528    1.7930711   -2.7560702  
H   12.0384046    3.3262805   -2.9630711  
H   13.6307149    2.3526487   -0.5975968  
H   12.3744785    0.8840218    0.7067819  
H    7.7038301   -1.3432727    0.9753176  
C    5.7131792   -0.0007490   -0.7960728  
C    4.7577216    0.0005129   -1.7610467  
C    5.4429743    0.0025913   -3.0319755  
C    6.8863232    0.0024064   -2.7261407  
N    6.9827412    0.0007416   -1.3537011  
C    7.8703089    0.0036324   -3.6607387  
C    7.4818862    0.0054677   -5.0613313  
O    8.2934728    0.0067304   -5.9776411  
C    5.9589196    0.0059474   -5.4082873  
O    5.6198160    0.0077946   -6.5839855  
C    4.9917250    0.0042297   -4.3135796  
H    8.9232032    0.0033408   -3.4151314  
H    3.9391674    0.0043692   -4.5622684  
H    5.5966614   -0.0024255    0.2755196  
C    3.3041270    0.0001177   -1.5420435  
C    2.5845370   -0.0004780   -0.3695856  
C    1.2040004   -0.0000007   -0.7283590  
C    1.1422370    0.0006038   -2.1454373  
N    2.4348634    0.0026110   -2.6077469  
C   -0.0655187    0.0008799   -2.8497918  
C   -1.2321769    0.0002326   -2.1101398  
O   -2.4392822    0.0001149   -2.7472517  
C   -1.1911211   -0.0000007   -0.6955263  
O   -2.4371526   -0.0002319   -0.1032858  
C    0.0000000    0.0000000    0.0000000  
H    3.0031534   -0.0000661    0.6222578  
H    2.7054623   -0.0071098   -3.5745266  
H   -0.1193555    0.0014846   -3.9297472  
H   -3.1132992   -0.0000646   -2.0551783  
H   -2.3200279   -0.0004070    0.8516411  
C    0.0000000    0.0000000    1.4700000  
C    1.0541688    0.0001722    2.3260392  
C    0.5103138    0.0000454    3.6635956  
C   -0.9576371   -0.0002459    3.5155732  
N   -1.2018458    0.0001392    2.1615969  
C   -1.8348311   -0.0008317    4.5510609  
C   -1.2972847   -0.0009736    5.9014604  
O   -2.0050672   -0.0014265    6.9001319  
C    0.2542623   -0.0004184    6.0817573  
O    0.7184670   -0.0002256    7.2139121  
C    1.0974552   -0.0000873    4.8889129  
H    2.0940752    0.0005483    2.0517982  
H   -2.9081052   -0.0011668    4.4207061  
H    2.1707277    0.0000911    5.0223670  
H   -2.1128194   -0.0014912    1.7406791  
