62

C    7.0425128   -1.9458981   -6.5715758  
C    8.1383854   -2.7770315   -6.5989307  
C    8.6646847   -2.7286317   -7.9237953  
C    7.8417385   -1.8437047   -8.6664851  
N    6.8654154   -1.3876917   -7.8159191  
C    8.0664206   -1.5550938  -10.0159336  
C    9.1416255   -2.1707968  -10.6266873  
O    9.4067993   -1.9241904  -11.9426969  
C    9.9740137   -3.0571155   -9.9025420  
O   11.0026787   -3.5904088  -10.6514016  
C    9.7527929   -3.3425107   -8.5713255  
H    8.5117894   -3.3488109   -5.7666860  
H    6.1415559   -0.7360180   -8.0594961  
H    7.4428112   -0.8816702  -10.5876108  
H   10.1877640   -2.4469514  -12.1664845  
H   11.5164512   -4.1772101  -10.0881027  
H   10.4073145   -4.0256972   -8.0428027  
C    6.2078071   -2.1204373   -4.1884496  
C    6.1274188   -1.6213462   -5.4678683  
C    5.0008410   -0.7471989   -5.5037681  
C    4.4282842   -0.7526502   -4.2060484  
N    5.1843807   -1.5981477   -3.4326984  
C    3.2973506   -0.0000934   -3.8752374  
C    2.7343299    0.7722679   -4.8725555  
O    1.6291395    1.5268265   -4.6038363  
C    3.2908611    0.7906439   -6.1736138  
O    2.6156196    1.6089740   -7.0555033  
C    4.4063832    0.0482703   -6.5007499  
H    5.0245806   -1.7947655   -2.4612116  
H    1.4023571    1.9812319   -5.4256334  
H    3.0556037    1.5640229   -7.9099027  
H    4.8100200    0.0823926   -7.5059317  
H    6.9133539   -2.8087592   -3.7555793  
C    3.3321174    0.0004714   -1.3379332  
C    2.6974186    0.0000115   -2.5332308  
C    1.2800441   -0.0002119   -2.2052838  
C    1.2395035    0.0000643   -0.7271293  
N    2.4394063    0.0005458   -0.2131034  
C    0.0000000    0.0000000    0.0000000  
C   -1.1468701    0.0000634   -0.7169542  
O   -2.3742201    0.0000072   -0.1695492  
C   -1.1388767    0.0001606   -2.2096354  
O   -2.2206229    0.0000903   -2.7970413  
C    0.1454526    0.0001815   -2.9324239  
H   -2.9844344    0.0001023   -0.9290168  
H    0.1083580    0.0003680   -4.0135594  
H    4.3940040    0.0007617   -1.1498630  
C    0.0000000    0.0000000    1.4700000  
C    1.0541688    0.0001722    2.3260392  
C    0.5103138    0.0000454    3.6635956  
C   -0.9576371   -0.0002459    3.5155732  
N   -1.2018458    0.0001392    2.1615969  
C   -1.8348311   -0.0008317    4.5510609  
C   -1.2972847   -0.0009736    5.9014604  
O   -2.0050672   -0.0014265    6.9001319  
C    0.2542623   -0.0004184    6.0817573  
O    0.7184670   -0.0002256    7.2139121  
C    1.0974552   -0.0000873    4.8889129  
H    2.0940752    0.0005483    2.0517982  
H   -2.9081052   -0.0011668    4.4207061  
H    2.1707277    0.0000911    5.0223670  
H   -2.1128194   -0.0014912    1.7406791  
