62

C    0.0000000    0.0000000    0.0000000  
C    1.0521666   -0.0011919   -0.8862347  
C    0.4917214   -0.0011970   -2.1979137  
C   -0.9187430    0.0003150   -2.0478685  
N   -1.1833169   -0.0009400   -0.7007914  
C   -1.7951704    0.0010362   -3.1372093  
C   -1.2375839    0.0005226   -4.4010426  
O   -2.0474219    0.0015368   -5.4997582  
C    0.1673578   -0.0013584   -4.5711968  
O    0.5673517   -0.0020713   -5.8915553  
C    1.0325771   -0.0023435   -3.4969896  
H    2.0953056   -0.0030677   -0.6200564  
H   -2.0989775    0.0102397   -0.2891824  
H   -1.4634892    0.0006500   -6.2693593  
H    1.5290702   -0.0033188   -5.9180049  
H    2.1042143   -0.0039648   -3.6584464  
C   -3.9705525    0.7070975   -2.0745739  
C   -3.2578656    0.0024070   -2.9908506  
C   -4.2093235   -0.7382521   -3.7851983  
C   -5.5443152   -0.4048853   -3.2527939  
N   -5.3302022    0.4752933   -2.2172597  
C   -6.7108617   -0.9029277   -3.7353163  
C   -6.6473155   -1.8292862   -4.8535100  
O   -7.6421039   -2.3324251   -5.3590286  
C   -5.2441074   -2.1966257   -5.4330563  
O   -5.1780557   -2.9757341   -6.3742720  
C   -4.0579927   -1.5951374   -4.8287417  
H   -3.0902117   -1.8545058   -5.2359909  
H   -3.6168779    1.3760943   -1.3069498  
H   -6.0507890    0.8875112   -1.6534528  
C   -8.6278480    2.8251621   -2.2217278  
C   -7.7132603    1.9718657   -2.7384416  
C   -8.3858811    0.6826196   -2.7823213  
C   -9.7355706    0.9477307   -2.2395151  
N   -9.8832979    2.2019608   -1.9092535  
C  -10.7226656   -0.0891788   -2.1148216  
C  -10.3772584   -1.3342534   -2.5145929  
O  -11.1983477   -2.3964739   -2.4550920  
C   -9.0231606   -1.6334265   -3.0669301  
O   -8.7777891   -2.7895658   -3.4109587  
C   -8.0281028   -0.5527294   -3.1847368  
H   -6.7065452    2.1903525   -3.0512744  
H  -11.7011008    0.1328807   -1.7144901  
H  -10.6722112   -3.1366309   -2.8079399  
H   -8.5168539    3.8802482   -2.0282152  
C    3.3041272   -0.0001177    3.0120429  
C    2.5845372    0.0004780    1.8395852  
C    1.2040006    0.0000008    2.1983588  
C    1.1422373   -0.0006037    3.6154372  
N    2.4348639   -0.0026109    4.0777464  
C   -0.0655181   -0.0008797    4.3197917  
C   -1.2321768   -0.0002324    3.5801400  
O   -2.4392816   -0.0001146    4.2172520  
C   -1.1911209    0.0000007    2.1655264  
O   -2.4371527    0.0002320    1.5732860  
C    0.0000000    0.0000000    1.4700000  
H    3.0031534    0.0000661    0.8477417  
H    2.7054629    0.0071099    5.0445261  
H   -0.1193549   -0.0014844    5.3997470  
H   -3.1132988    0.0000648    3.5251786  
H   -2.3200282    0.0004071    0.6183591  
H    4.3686625   -0.0004071    3.1724291  
