60

C    5.1318314   -2.9917781   -7.0627382  
C    4.2430138   -2.0055439   -6.7024431  
C    4.6837227   -0.8001883   -7.3249328  
C    5.8560079   -1.1152217   -8.0587087  
N    6.1012266   -2.4535917   -7.8763593  
C    6.5626249   -0.1636199   -8.8002853  
C    6.0768082    1.1294998   -8.8013806  
O    6.7278338    2.0981205   -9.5091600  
C    4.9089385    1.4634579   -8.0751790  
O    4.5529471    2.7925605   -8.1756753  
C    4.2114880    0.5252499   -7.3431569  
H    3.3834431   -2.1382948   -6.0680075  
H    6.8624017   -2.9650879   -8.2849710  
H    7.4568157   -0.3973053   -9.3615463  
H    6.2295311    2.9149845   -9.3761496  
H    3.7551580    2.9338148   -7.6568469  
H    5.1517990   -4.0362245   -6.8025612  
C    2.8304417   -0.6884965   -3.3925843  
C    1.6707636   -0.0012343   -3.2725974  
C    1.5456304    0.7433279   -4.5161684  
C    2.7498706    0.3774787   -5.2924055  
N    3.5067377   -0.4616185   -4.6389091  
C    3.0025208    0.9125020   -6.6019869  
C    2.0932672    1.7735555   -7.1130437  
O    2.2014900    2.3487950   -8.3227659  
C    0.8678254    2.1620227   -6.3543962  
O    0.0833290    2.9508793   -6.8811712  
C    0.6312574    1.5996150   -5.0128827  
H    1.4067976    2.9064667   -8.4041229  
H   -0.2683269    1.9060259   -4.4960740  
H    3.2808702   -1.3606812   -2.6796642  
C    1.0965514    0.0001358   -0.8010306  
C    0.0000000    0.0000000    0.0000000  
C   -1.1546565    0.0001470   -0.8669508  
C   -0.6372019    0.0003520   -2.2486278  
N    0.7342867    0.0007338   -2.1395012  
C   -1.4147744    0.0001354   -3.3608712  
C   -2.8576052   -0.0001047   -3.1854454  
O   -3.6427785   -0.0002490   -4.1244896  
C   -3.4275841   -0.0000727   -1.7311660  
O   -4.6406832    0.0000333   -1.5710049  
C   -2.4891868   -0.0001090   -0.6116739  
H   -1.0150456    0.0001617   -4.3654239  
H   -2.8919122   -0.0002919    0.3920871  
H    2.1388270    0.0000663   -0.5261650  
C    2.5128556    2.1077716    2.9199648  
C    1.9592212    1.6432552    4.0696553  
C    0.8915788    0.7479214    3.6910360  
C    0.8684491    0.7287414    2.2159470  
N    1.8754542    1.5738793    1.8102719  
C    0.0000000    0.0000000    1.4700000  
C   -0.9772830   -0.8200135    2.1664417  
O   -1.8021297   -1.5120829    1.5842315  
C   -0.9711318   -0.8147624    3.7284083  
O   -1.7894187   -1.5009653    4.3257297  
C    0.0140216    0.0115358    4.4216297  
H    2.2638494    1.8988021    5.0689105  
H    0.0117648    0.0094386    5.5031631  
H    3.3327358    2.7953732    2.7900019  
H    2.1123206    1.7707734    0.8551938  
