66

C    4.3849900   -2.1304618   -1.4422214  
C    3.1441139   -1.6666549   -1.8131356  
C    3.3426739   -0.7794831   -2.9122717  
C    4.7370041   -0.7414325   -3.1698023  
N    5.3406533   -1.5714197   -2.2580206  
C    5.2968250    0.0340154   -4.1896406  
C    4.4333178    0.7844919   -4.9637976  
O    4.9266820    1.5593197   -5.9733754  
C    3.0391174    0.7600316   -4.7220873  
O    2.3124332    1.5616242   -5.5780799  
C    2.4861704   -0.0045255   -3.7159919  
H    2.2107612   -1.9339278   -1.3479351  
H    6.3586912    0.0674737   -4.3909403  
H    4.1660274    1.9934379   -6.3810643  
H    1.3814038    1.4876304   -5.3471832  
H    4.6641030   -2.8147095   -0.6593677  
C    7.6726223   -5.3044636   -1.4731884  
C    6.6577031   -4.3975280   -1.6728704  
C    7.2711257   -3.1321656   -1.9119752  
C    8.6740390   -3.3305536   -1.8456079  
N    8.8833131   -4.6602124   -1.5757403  
C    9.5940545   -2.2946882   -2.0336068  
C    9.0886357   -1.0356746   -2.2936357  
O    9.9425189    0.0117311   -2.4855700  
C    7.6920537   -0.8177048   -2.3633916  
O    7.3463686    0.4910495   -2.6298643  
C    6.7838482   -1.8390910   -2.1777620  
H    5.6047353   -4.6203168   -1.6480340  
H    9.7814445   -5.0989554   -1.4816915  
H   10.6644907   -2.4393293   -1.9841573  
H    9.3905946    0.7873512   -2.6500613  
H    6.3866982    0.5520098   -2.6601858  
H    7.6286667   -6.3596398   -1.2643075  
C    0.0000000    0.0000000    0.0000000  
C    1.0521669   -0.0011848   -0.8862341  
C    0.4917221   -0.0011931   -2.1979130  
C   -0.9187427    0.0003100   -2.0478683  
N   -1.1833170   -0.0009472   -0.7007915  
C   -1.7951698    0.0010259   -3.1372090  
C   -1.2375835    0.0005161   -4.4010425  
O   -2.0474208    0.0015256   -5.4997580  
C    0.1673584   -0.0013557   -4.5711962  
O    0.5673529   -0.0020659   -5.8915551  
C    1.0325773   -0.0023359   -3.4969890  
H    2.0953059   -0.0030542   -0.6200560  
H   -2.0989777    0.0102265   -0.2891825  
H   -2.8710930    0.0020274   -3.0295514  
H   -1.4634881    0.0006427   -6.2693593  
H    1.5290715   -0.0033076   -5.9180042  
C    3.3003543   -0.0005276    2.9438989  
C    2.5232812   -0.0003497    4.0790748  
C    1.1623199    0.0001319    3.6520102  
C    1.1711883   -0.0000583    2.2336141  
N    2.4852299    0.0014920    1.8362361  
C    0.0000000    0.0000000    1.4700000  
C   -1.2020384   -0.0000520    2.1506477  
O   -2.3759250   -0.0003494    1.4542253  
C   -1.2314658    0.0005113    3.5655508  
O   -2.5054393    0.0008037    4.0950179  
C   -0.0764518    0.0007272    4.3195194  
H    2.8919952    0.0005619    5.0905303  
H    2.8036267   -0.0088181    0.8841339  
H   -3.0835639   -0.0000348    2.1118817  
H   -2.4360050    0.0011527    5.0545920  
H   -0.1304098    0.0013421    5.4019087  
H    4.3715549   -0.0004895    2.8367138  
