62

C    7.5090901   -0.9769542   -4.7481386  
C    6.6512658    0.0983966   -4.7331416  
C    7.4086879    1.2407503   -5.1280338  
C    8.7334246    0.7972243   -5.3735571  
N    8.7601993   -0.5538344   -5.1316042  
C    9.7557564    1.6586935   -5.7828234  
C    9.4348548    2.9921382   -5.9475238  
O   10.3949445    3.8766854   -6.3460452  
C    8.1188787    3.4538921   -5.7071001  
O    7.9584180    4.8083127   -5.9148024  
C    7.1098876    2.6046442   -5.3030673  
H    9.5649081   -1.1456507   -5.2324867  
H   10.7674636    1.3269272   -5.9714503  
H    9.9656902    4.7405841   -6.3978487  
H    7.0424306    5.0378308   -5.7307067  
H    6.1114852    2.9873352   -5.1263828  
H    7.3278213   -2.0120393   -4.5142594  
C    4.4206220   -2.1198138   -1.5561253  
C    5.4069067   -1.6197474   -2.3744427  
C    4.7719050   -0.7451150   -3.3052442  
C    3.3859892   -0.7512895   -3.0033736  
N    3.2068301   -1.5976640   -1.9374612  
C    2.4521483    0.0014840   -3.7217481  
C    2.9260544    0.7748090   -4.7636496  
O    2.0575520    1.5296191   -5.4978009  
C    4.3052229    0.7939172   -5.0804267  
O    4.6197291    1.6131716   -6.1449695  
C    5.2270108    0.0513305   -4.3723324  
H    6.4549560   -1.8571123   -2.3092927  
H    2.3277576   -1.7949326   -1.4944060  
H    2.5878303    1.9847230   -6.1648475  
H    5.5693400    1.5686713   -6.2928301  
H    4.4867485   -2.8087414   -0.7315251  
C    0.0000000    0.0000000    0.0000000  
C    1.0662923   -0.0000101   -0.8334270  
C    0.4961873    0.0000065   -2.1718887  
C   -0.9663854   -0.0000848   -1.9540250  
N   -1.2632773   -0.0000083   -0.6828660  
C   -1.8985359   -0.0000514   -3.0477261  
C   -1.3925770    0.0004566   -4.3020547  
O   -2.1456378    0.0005414   -5.4151314  
C    0.0786240    0.0009326   -4.5545000  
O    0.4683767    0.0012591   -5.7221100  
C    1.0143171    0.0008444   -3.4159031  
H    2.1107200    0.0000633   -0.5721865  
H   -2.9622181   -0.0003268   -2.8593381  
H   -1.5042265    0.0009697   -6.1484419  
C    3.2798086   -0.0005857    2.9199648  
C    2.5571146   -0.0005566    4.0696553  
C    1.1637436   -0.0001548    3.6910360  
C    1.1336965    0.0000200    2.2159470  
N    2.4483514    0.0001428    1.8102719  
C    0.0000000    0.0000000    1.4700000  
C   -1.2757367    0.0000186    2.1664417  
O   -2.3524596    0.0000640    1.5842315  
C   -1.2676493    0.0000873    3.7284083  
O   -2.3355761    0.0004100    4.3257297  
C    0.0181563   -0.0001760    4.4216297  
H    2.9547357   -0.0006076    5.0689105  
H    0.0150794   -0.0003319    5.5031631  
H    4.3498549   -0.0008612    2.7900019  
H    2.7563627   -0.0012824    0.8551938  
