62

C    6.7300211   -1.9449942   -6.8158527  
C    7.8237422   -2.7761950   -6.8889776  
C    8.2943824   -2.7276186   -8.2346142  
C    7.4412677   -1.8425193   -8.9422293  
N    6.5012676   -1.3865778   -8.0516484  
C    7.6095456   -1.5537080  -10.2998228  
C    8.6583228   -2.1693841  -10.9549449  
O    8.8684475   -1.9225853  -12.2808224  
C    9.5200984   -3.0558729  -10.2662520  
O   10.5166275   -3.5891142  -11.0574079  
C    9.3545194   -3.3414657   -8.9270183  
H    8.2314592   -3.3481316   -6.0731046  
H    5.7679342   -0.7348179   -8.2647495  
H    6.9627053   -0.8801524  -10.8449130  
H    9.6393713   -2.4453619  -12.5370393  
H   11.0533834   -4.1760390  -10.5160984  
H   10.0304461   -4.0247793   -8.4263347  
C    5.9953299   -2.1198585   -4.4000425  
C    5.8617355   -1.6205583   -5.6749221  
C    4.7347034   -0.7463313   -5.6637107  
C    4.2167179   -0.7519520   -4.3432613  
N    5.0043213   -1.5976224   -3.6022209  
C    3.1006054    0.0006263   -3.9654951  
C    2.4965723    0.7731835   -4.9383657  
O    1.4035935    1.5277716   -4.6237098  
C    2.9984079    0.7917303   -6.2614811  
O    2.2870646    1.6102453   -7.1143401  
C    4.0992762    0.0493357   -6.6349317  
H    4.8851265   -1.7943845   -2.6249500  
H    1.1427975    1.9823228   -5.4352722  
H    2.6910616    1.5654015   -7.9863380  
H    4.4606802    0.0835918   -7.6560542  
H    6.7182514   -2.8082957   -3.9970552  
C    3.2798083    0.0005857   -1.4499652  
C    2.5571142    0.0005565   -2.5996556  
C    1.1637432    0.0001548   -2.2210361  
C    1.1336964   -0.0000200   -0.7459473  
N    2.4483512   -0.0001428   -0.3402723  
C    0.0000000    0.0000000    0.0000000  
C   -1.2757368   -0.0000186   -0.6964415  
O   -2.3524598   -0.0000639   -0.1142311  
C   -1.2676497   -0.0000872   -2.2584083  
O   -2.3355766   -0.0004101   -2.8557295  
C    0.0181558    0.0001758   -2.9516296  
H    0.0150788    0.0003319   -4.0331631  
H    4.3498547    0.0008612   -1.3200026  
H    2.7563626    0.0012823    0.6148059  
C    2.4951002    2.0940188    2.9809380  
C    1.9440701    1.6314916    1.8291961  
C    0.8759964    0.7350050    2.2038498  
C    0.8497377    0.7130254    3.6788474  
N    1.8560616    1.5571714    4.0882609  
C   -0.0205033   -0.0168748    4.4215661  
C   -0.9962600   -0.8356168    3.7214979  
O   -1.8224391   -1.5286685    4.3006425  
C   -0.9864710   -0.8277881    2.1595606  
O   -1.8030528   -1.5133726    1.5592035  
C    0.0000000    0.0000000    1.4700000  
H    2.2509283    1.8888011    0.8310761  
H   -0.0229599   -0.0187323    5.5027230  
H    3.3143982    2.7817323    3.1139444  
H    2.0889452    1.7545833    5.0442112  
