62

C    1.1188644    0.0008223   -0.8003803  
C    0.0000000    0.0000000    0.0000000  
C   -1.1323862    0.0008893   -0.8673523  
C   -0.6382660    0.0019672   -2.1969273  
N    0.7324021    0.0038479   -2.1202235  
C   -1.4770909    0.0027307   -3.3154806  
C   -2.8395470    0.0020930   -3.0876856  
O   -3.7039197    0.0024407   -4.1440349  
C   -3.3517868    0.0013916   -1.7684327  
O   -4.7300492    0.0012349   -1.7073122  
C   -2.5248543    0.0009113   -0.6644818  
H    1.3576318   -0.0056168   -2.9057036  
H   -4.5940030    0.0021806   -3.7685128  
H   -4.9934598    0.0007245   -0.7819916  
H   -2.9462580    0.0005595    0.3339654  
H    2.1619891    0.0009359   -0.5342062  
C    0.0907992   -0.6992468   -5.1618154  
C   -0.9736291    0.0040453   -4.6965759  
C   -1.5084789    0.7463551   -5.8136016  
C   -0.6623479    0.4154823   -6.9760883  
N    0.2885840   -0.4649761   -6.5141239  
C   -0.8417398    0.9156018   -8.2248490  
C   -1.9414410    1.8417246   -8.4381329  
O   -2.1855848    2.3466250   -9.5261451  
C   -2.8501357    2.2064412   -7.2211440  
O   -3.7788919    2.9853284   -7.3884995  
C   -2.5575137    1.6028530   -5.9234903  
H   -0.2096928    0.6598484   -9.0639057  
H   -3.1915433    1.8604114   -5.0859976  
H    0.7475162   -1.3688067   -4.6304947  
C    1.9711027   -4.5203500   -6.5942012  
C    2.8953227   -4.3608336   -7.5762644  
C    2.8028364   -2.9908725   -8.0229068  
C    1.7413853   -2.3608126   -7.2147382  
N    1.2773711   -3.3411789   -6.3682976  
C    1.3501488   -1.0667976   -7.3337521  
C    2.0189838   -0.2394474   -8.3240482  
O    1.7385365    0.9378330   -8.5075179  
C    3.1458645   -0.8859914   -9.1911853  
O    3.7158871   -0.1993590  -10.0283658  
C    3.4794361   -2.2909880   -8.9708064  
H    3.5652608   -5.1166546   -7.9457629  
H    4.2609749   -2.7310458   -9.5751823  
H    1.7382767   -5.4001812   -6.0166382  
H    0.5485698   -3.2183803   -5.6894630  
C    2.5311839    2.1237619    3.0120429  
C    1.9795631    1.6616747    1.8395852  
C    0.9223175    0.7739173    2.1983588  
C    0.8753926    0.7337535    3.6154372  
N    1.8668922    1.5631002    4.0777464  
C   -0.0496243   -0.0427881    4.3197917  
C   -0.9437528   -0.7922060    3.5801400  
O   -1.8685244   -1.5680278    4.2172520  
C   -0.9124520   -0.7656372    2.1655264  
O   -1.8671164   -1.5663939    1.5732860  
C    0.0000000    0.0000000    1.4700000  
H    2.3005065    1.9304404    0.8477417  
H    2.0679347    1.7444845    5.0445261  
H   -0.0904770   -0.0778569    5.3997470  
H   -2.3849669   -2.0011402    3.5251786  
H   -1.7775064   -1.4909735    0.6183591  
H    3.3468514    2.8078103    3.1724291  
