62

C    2.7868383   -1.8272641   -7.5465845  
C    3.8938328   -2.6336506   -7.6760883  
C    4.3309899   -2.5264531   -9.0296025  
C    3.4447080   -1.6328126   -9.6836953  
N    2.5180353   -1.2283933   -8.7550735  
C    3.5748641   -1.2910663  -11.0331619  
C    4.6189128   -1.8616068  -11.7350343  
O    4.7924440   -1.5621829  -13.0553542  
C    5.5134214   -2.7557698  -11.1000985  
O    6.5004331   -3.2399698  -11.9335863  
C    5.3854619   -3.0935730   -9.7689184  
H    4.3316719   -3.2270955   -6.8917960  
H    1.7677331   -0.5837197   -8.9266061  
H    2.9026254   -0.6107227  -11.5375725  
H    5.5666222   -2.0600017  -13.3487647  
H    7.0609292   -3.8357738  -11.4271620  
H    6.0858877   -3.7814651   -9.3099127  
C    2.1120182   -2.1227299   -5.1304393  
C    1.1297843   -1.6610075   -4.2851613  
C    0.3107400   -0.7734498   -5.0441130  
C    0.8462221   -0.7330265   -6.3569534  
N    1.9403246   -1.5620328   -6.3744203  
C    0.2889652    0.0434153   -7.3774395  
C   -0.8294080    0.7924644   -7.0670447  
O   -1.4138836    1.5681737   -8.0260435  
C   -1.3781521    0.7656326   -5.7628299  
O   -2.4916453    1.5660337   -5.6117140  
C   -0.8287665    0.0000939   -4.7555305  
H    1.0180782   -1.9298816   -3.2487147  
H    0.6924066    0.0786806   -8.3800327  
H   -2.1679404    2.0010223   -7.6049668  
H   -2.7995358    1.4904529   -4.7033667  
H    2.9223336   -2.8065407   -4.9440215  
C    1.0672569   -0.0000698   -0.8321910  
C    0.0000000    0.0000000    0.0000000  
C   -1.1601223   -0.0000736   -0.8778472  
C   -0.5938729   -0.0000768   -2.2438435  
N    0.7113367   -0.0001553   -2.2234123  
C   -1.4286985   -0.0001877   -3.4135239  
C   -2.7683113   -0.0006798   -3.2270524  
O   -3.6653902   -0.0008302   -4.2276970  
C   -3.3702024   -0.0010610   -1.8610774  
O   -4.5974910   -0.0013779   -1.7662963  
C   -2.4926825   -0.0008943   -0.6770658  
H   -4.5324245   -0.0012258   -3.7833954  
H   -2.9677772   -0.0012974    0.2947961  
H    2.1134391   -0.0000547   -0.5705119  
C    0.0000000    0.0000000    1.4700000  
C    1.0662921    0.0000102    2.3034270  
C    0.4961870   -0.0000064    3.6418889  
C   -0.9663858    0.0000850    3.4240247  
N   -1.2632773    0.0000084    2.1528658  
C   -1.8985362    0.0000517    4.5177257  
C   -1.3925775   -0.0004564    5.7720543  
O   -2.1456383   -0.0005410    6.8851312  
C    0.0786232   -0.0009323    6.0245000  
O    0.4683759   -0.0012588    7.1921102  
C    1.0143166   -0.0008442    4.8859032  
H    2.1107198   -0.0000632    2.0421868  
H   -2.9622183    0.0003270    4.3293377  
H   -1.5042274   -0.0009692    7.6184419  
H    2.0724152   -0.0013148    5.1109744  
