60

C   -0.4438104   -0.5407690   -9.5416683  
C   -0.1829772   -0.4331968  -10.8880929  
C   -0.3964852    0.9309925  -11.2458662  
C   -0.7892610    1.6140303  -10.0664114  
N   -0.8097243    0.6906689   -9.0507341  
C   -1.0825652    2.9809070  -10.0461567  
C   -0.9771554    3.6708910  -11.2382097  
O   -1.2516616    5.0074195  -11.2749436  
C   -0.5871346    3.0069462  -12.4255923  
O   -0.5290016    3.8315830  -13.5301002  
C   -0.2978934    1.6584532  -12.4463679  
H    0.1224208   -1.2390876  -11.5332799  
H   -1.3826016    3.5073272   -9.1505779  
H   -1.1186373    5.2884441  -12.1895996  
H   -0.2582516    3.3053548  -14.2886399  
H   -0.0018912    1.1772228  -13.3711808  
H   -0.3991727   -1.3987660   -8.8929715  
C    0.8798787   -0.7257942   -5.2251217  
C    0.6207793   -0.5088630   -6.5403725  
C   -0.4843405    0.4181987   -6.6044216  
C   -0.8504418    0.7258113   -5.2086658  
N    0.0139741    0.0003876   -4.4216236  
C   -1.8515224    1.5662625   -4.8437224  
C   -2.6198144    2.2107140   -5.8958365  
O   -3.5411793    2.9841147   -5.6694767  
C   -2.2496259    1.8993181   -7.3810300  
O   -2.8896237    2.4357468   -8.2754058  
C   -1.1496889    0.9762966   -7.6493981  
H    1.1439790   -0.9482815   -7.3709062  
H   -2.1037058    1.7783407   -3.8139959  
H    1.6304050   -1.3552328   -4.7752251  
C    3.2798085    0.0005853   -1.4499648  
C    2.5571144    0.0005562   -2.5996554  
C    1.1637436    0.0001546   -2.2210360  
C    1.1336965   -0.0000201   -0.7459470  
N    2.4483513   -0.0001430   -0.3402717  
C    0.0000000    0.0000000    0.0000000  
C   -1.2757367   -0.0000188   -0.6964414  
O   -2.3524597   -0.0000640   -0.1142313  
C   -1.2676494   -0.0000875   -2.2584081  
O   -2.3355762   -0.0004102   -2.8557294  
C    0.0181562    0.0001757   -2.9516296  
H    2.9547357    0.0006072   -3.5989105  
H    4.3498550    0.0008609   -1.3200021  
H    2.7563627    0.0012824    0.6148063  
C    0.8681109    0.7263879    2.2709268  
C    0.6127770    0.5096195    3.5869401  
C   -0.4920590   -0.4175482    3.6542670  
C   -0.8620974   -0.7254003    2.2596025  
N    0.0000000    0.0000000    1.4700000  
C   -1.8641242   -1.5660088    1.8976294  
C   -2.6293522   -2.2103885    2.9520183  
O   -3.5512764   -2.9839180    2.7283916  
C   -2.2549728   -1.8987399    4.4361073  
O   -2.8923672   -2.4351063    5.3323774  
C   -1.1543735   -0.9755647    4.7012123  
H    1.1382914    0.9492124    4.4159191  
H   -2.1192137   -1.7782617    0.8686553  
H   -0.9013378   -0.7652422    5.7314848  
H    1.6172880    1.3558399    1.8188057  
