62

C    0.8277615    0.0958841   -8.7444689  
C    1.9137635   -0.5519991   -9.2860543  
C    1.9992715   -0.1507539  -10.6521773  
C    0.9299939    0.7506470  -10.8889234  
N    0.2372830    0.8766744   -9.7104144  
C    0.7058922    1.3481352  -12.1329400  
C    1.5772703    1.0301016  -13.1565286  
O    1.4047170    1.5853862  -14.3913961  
C    2.6498485    0.1326007  -12.9400011  
O    3.4288367   -0.0826740  -14.0581161  
C    2.8713724   -0.4574181  -11.7130827  
H    2.5636581   -1.2312046   -8.7613545  
H   -0.5679227    1.4596945   -9.5700148  
H   -0.1073213    2.0358418  -12.3198785  
H    2.1107460    1.2344690  -14.9496481  
H    4.1295381   -0.6998645  -13.8263896  
H    3.7011817   -1.1411362  -11.5773469  
C    2.0818088   -2.1200042   -5.0693006  
C    2.0013921   -1.6205811   -6.3485880  
C    0.8747655   -0.7464876   -6.3842578  
C    0.3022093   -0.7523126   -5.0865395  
N    1.0583530   -1.5979706   -4.3134120  
C   -0.8287665    0.0000939   -4.7555305  
C   -1.3918308    0.7726859   -5.7526456  
O   -2.4970634    1.5271119   -5.4837281  
C   -0.8353007    0.7914354   -7.0536990  
O   -1.5105880    1.6099591   -7.9353731  
C    0.2802628    0.0492104   -7.3810304  
H    2.6715815   -1.8580189   -7.1569591  
H    0.8985641   -1.7948531   -3.3419769  
H   -2.7238717    1.9817207   -6.3054050  
H   -1.0706024    1.5652580   -8.7897837  
H    2.7873939   -2.8083998   -4.6366120  
C    1.0672569   -0.0000698   -0.8321910  
C    0.0000000    0.0000000    0.0000000  
C   -1.1601223   -0.0000736   -0.8778472  
C   -0.5938729   -0.0000768   -2.2438435  
N    0.7113367   -0.0001553   -2.2234123  
C   -1.4286985   -0.0001877   -3.4135239  
C   -2.7683113   -0.0006798   -3.2270524  
O   -3.6653902   -0.0008302   -4.2276970  
C   -3.3702024   -0.0010610   -1.8610774  
O   -4.5974910   -0.0013779   -1.7662963  
C   -2.4926825   -0.0008943   -0.6770658  
H   -4.5324245   -0.0012258   -3.7833954  
H   -2.9677772   -0.0012974    0.2947961  
H    2.1134391   -0.0000547   -0.5705119  
C    2.4951002    2.0940188    2.9809380  
C    1.9440701    1.6314916    1.8291961  
C    0.8759964    0.7350050    2.2038498  
C    0.8497377    0.7130254    3.6788474  
N    1.8560616    1.5571714    4.0882609  
C   -0.0205033   -0.0168748    4.4215661  
C   -0.9962600   -0.8356168    3.7214979  
O   -1.8224391   -1.5286685    4.3006425  
C   -0.9864710   -0.8277881    2.1595606  
O   -1.8030528   -1.5133726    1.5592035  
C    0.0000000    0.0000000    1.4700000  
H    2.2509283    1.8888011    0.8310761  
H   -0.0229599   -0.0187323    5.5027230  
H    3.3143982    2.7817323    3.1139444  
H    2.0889452    1.7545833    5.0442112  
