60

C   10.0369868   -2.1274446    3.4160687  
C   11.2633215   -1.6300640    3.0403263  
C   11.0373335   -0.7548674    1.9368953  
C    9.6419659   -0.7579454    1.6822041  
N    9.0645601   -1.6030992    2.5970463  
C    9.0581380   -0.0038221    0.6598386  
C    9.8981932    0.7676939   -0.1194233  
O    9.3807461    1.5237066   -1.1312076  
C   11.2930968    0.7837073    0.1189133  
O   11.9948405    1.6014628   -0.7425825  
C   11.8697787    0.0397876    1.1271527  
H   12.2050693   -1.8695363    3.5037467  
H    8.0822547   -1.7982024    2.6676963  
H   10.1278812    1.9771843   -1.5428053  
H   12.9281241    1.5548878   -0.5136389  
H   12.9413660    0.0721104    1.2856923  
H    9.7791844   -2.8158488    4.2025768  
C    6.6174608   -0.0017047    1.3537077  
C    5.3857492   -0.0012517    0.7819025  
C    5.5854749   -0.0008504   -0.6481131  
C    7.0449748   -0.0011379   -0.8640996  
N    7.6133361   -0.0012550    0.3888389  
C    7.6418659   -0.0012962   -2.0828801  
C    6.7899755   -0.0009491   -3.2605124  
O    7.2316300   -0.0009954   -4.4021087  
C    5.2415215   -0.0003890   -3.0553446  
O    4.5141875    0.0002132   -4.0393395  
C    4.7161325   -0.0005435   -1.6923264  
H    4.4446710   -0.0010219    1.3024657  
H    8.7143807   -0.0016369   -2.2193398  
H    6.8814411   -0.0021126    2.3987935  
C    3.2573665   -0.0002920   -1.5109385  
C    2.5379463   -0.0001709   -0.3591964  
C    1.1435038    0.0000331   -0.7338500  
C    1.1092599   -0.0000083   -2.2088477  
N    2.4227553    0.0001909   -2.6182613  
C   -0.0265539   -0.0002524   -2.9515660  
C   -1.3003040   -0.0002640   -2.2514977  
O   -2.3786790   -0.0004133   -2.8306421  
C   -1.2877727    0.0000311   -0.6895603  
O   -2.3539959    0.0003306   -0.0892030  
C    0.0000000    0.0000000    0.0000000  
H    2.9384091   -0.0000367    0.6389234  
H   -0.0296303   -0.0004086   -4.0327229  
H    2.7280482   -0.0013407   -3.5742119  
C    0.8681109    0.7263879    2.2709268  
C    0.6127770    0.5096195    3.5869401  
C   -0.4920590   -0.4175482    3.6542670  
C   -0.8620974   -0.7254003    2.2596025  
N    0.0000000    0.0000000    1.4700000  
C   -1.8641242   -1.5660088    1.8976294  
C   -2.6293522   -2.2103885    2.9520183  
O   -3.5512764   -2.9839180    2.7283916  
C   -2.2549728   -1.8987399    4.4361073  
O   -2.8923672   -2.4351063    5.3323774  
C   -1.1543735   -0.9755647    4.7012123  
H    1.1382914    0.9492124    4.4159191  
H   -2.1192137   -1.7782617    0.8686553  
H   -0.9013378   -0.7652422    5.7314848  
H    1.6172880    1.3558399    1.8188057  
