60

C   -1.0937630    0.5315567   -9.1259044  
C   -0.0950872   -0.3191552   -9.5399132  
C   -0.1258057   -0.3345333  -10.9658939  
C   -1.1727045    0.5334584  -11.3690304  
N   -1.7409960    1.0411646  -10.2271478  
C   -1.4907830    0.7623489  -12.7111276  
C   -0.7381182    0.1032307  -13.6636182  
O   -1.0058931    0.2908209  -14.9888049  
C    0.3102610   -0.7670791  -13.2811541  
O    0.9663300   -1.3487285  -14.3463317  
C    0.6244345   -0.9935679  -11.9573258  
H    0.5726165   -0.8627194   -8.8936141  
H   -2.5024466    1.6949113  -10.1990567  
H   -2.2875543    1.4225705  -13.0249202  
H   -0.3736771   -0.2543610  -15.4749578  
H    1.6586805   -1.9208268  -14.0014271  
H    1.4328864   -1.6658608  -11.6948261  
C    0.4920764   -0.6868679   -5.2544642  
C   -0.2963293   -0.0005341   -4.3948471  
C   -1.2145549    0.7451072   -5.2418306  
C   -0.8279331    0.3808331   -6.6218351  
N    0.1718577   -0.4583450   -6.6355552  
C   -1.5071744    0.9172630   -7.7689881  
C   -2.5265725    1.7781565   -7.5475746  
O   -3.2476979    2.3546071   -8.5241627  
C   -2.9407256    2.1650500   -6.1666507  
O   -3.8771709    2.9538488   -6.0398149  
C   -2.2282746    1.6012170   -5.0062924  
H   -3.8964333    2.9117963   -8.0574334  
H   -2.5588936    1.9065101   -4.0225660  
H    1.3019142   -1.3594050   -5.0203046  
C    3.1301146   -0.0010313   -1.7028256  
C    2.5367765   -0.0002766   -0.4864669  
C    1.1089901    0.0001027   -0.7656184  
C    1.0177865   -0.0004150   -2.2415133  
N    2.1993571   -0.0011612   -2.7963824  
C   -0.2459219   -0.0002879   -2.9257116  
C   -1.3675326   -0.0000606   -2.1698520  
O   -2.6129318    0.0000865   -2.6748483  
C   -1.3083588    0.0000910   -0.6783229  
O   -2.3693264    0.0004206   -0.0541685  
C    0.0000000    0.0000000    0.0000000  
H    3.0096016   -0.0001007    0.4807518  
H   -3.1967444    0.0002093   -1.8949026  
H    4.1849275   -0.0015114   -1.9271979  
C    2.4951002    2.0940188    2.9809380  
C    1.9440701    1.6314916    1.8291961  
C    0.8759964    0.7350050    2.2038498  
C    0.8497377    0.7130254    3.6788474  
N    1.8560616    1.5571714    4.0882609  
C   -0.0205033   -0.0168748    4.4215661  
C   -0.9962600   -0.8356168    3.7214979  
O   -1.8224391   -1.5286685    4.3006425  
C   -0.9864710   -0.8277881    2.1595606  
O   -1.8030528   -1.5133726    1.5592035  
C    0.0000000    0.0000000    1.4700000  
H    2.2509283    1.8888011    0.8310761  
H   -0.0229599   -0.0187323    5.5027230  
H    3.3143982    2.7817323    3.1139444  
H    2.0889452    1.7545833    5.0442112  
