62

C    4.1552732    0.0040534   -8.0466320  
C    4.5695498    0.0040608   -6.7348231  
C    5.9958771    0.0038715   -6.7486366  
C    6.3989340    0.0040410   -8.1085883  
N    5.2567189    0.0021979   -8.8701385  
C    7.7413014    0.0042291   -8.4995365  
C    8.6941414    0.0045533   -7.4994002  
O   10.0195950    0.0050987   -7.8252633  
C    8.3117728    0.0040152   -6.1368255  
O    9.3773189    0.0040086   -5.2604949  
C    6.9876832    0.0035562   -5.7504159  
H    3.9232261    0.0030816   -5.8738601  
H    5.2282669    0.0124256   -9.8736650  
H    8.0550367    0.0042150   -9.5343183  
H   10.5059756    0.0049476   -6.9905782  
H    9.0324531    0.0036571   -4.3623456  
H    3.1612533    0.0037793   -8.4600124  
C    6.6317369    0.0027576   -4.3241610  
C    5.4016569    0.0020952   -3.7488537  
C    5.6054514    0.0015083   -2.3194121  
C    7.0655604    0.0019149   -2.1075790  
N    7.6303537    0.0022712   -3.3621301  
C    7.6659162    0.0019589   -0.8905025  
C    6.8173807    0.0013544    0.2895491  
O    7.2622814    0.0012815    1.4298840  
C    5.2683488    0.0006644    0.0887880  
O    4.5438178   -0.0001546    1.0748484  
C    4.7390840    0.0009613   -1.2727298  
H    4.4591020    0.0018433   -4.2667371  
H    8.7388158    0.0023904   -0.7570945  
H    8.6161390    0.0041519   -3.5499372  
C    3.2798077    0.0005856   -1.4499661  
C    2.5571132    0.0005565   -2.5996564  
C    1.1637425    0.0001547   -2.2210366  
C    1.1336959   -0.0000200   -0.7459475  
N    2.4483509   -0.0001429   -0.3402730  
C    0.0000000    0.0000000    0.0000000  
C   -1.2757370   -0.0000187   -0.6964411  
O   -2.3524597   -0.0000640   -0.1142306  
C   -1.2676502   -0.0000874   -2.2584078  
O   -2.3355774   -0.0004102   -2.8557287  
C    0.0181551    0.0001758   -2.9516297  
H    2.9547342    0.0006074   -3.5989118  
H    0.0150776    0.0003317   -4.0331632  
H    2.7563626    0.0012823    0.6148051  
C    2.5311839    2.1237619    3.0120429  
C    1.9795631    1.6616747    1.8395852  
C    0.9223175    0.7739173    2.1983588  
C    0.8753926    0.7337535    3.6154372  
N    1.8668922    1.5631002    4.0777464  
C   -0.0496243   -0.0427881    4.3197917  
C   -0.9437528   -0.7922060    3.5801400  
O   -1.8685244   -1.5680278    4.2172520  
C   -0.9124520   -0.7656372    2.1655264  
O   -1.8671164   -1.5663939    1.5732860  
C    0.0000000    0.0000000    1.4700000  
H    2.3005065    1.9304404    0.8477417  
H    2.0679347    1.7444845    5.0445261  
H   -0.0904770   -0.0778569    5.3997470  
H   -2.3849669   -2.0011402    3.5251786  
H   -1.7775064   -1.4909735    0.6183591  
H    3.3468514    2.8078103    3.1724291  
