60

C   10.0217793    2.1229758   -2.7274945  
C   11.2821858    1.6238519   -2.4935770  
C   11.1820168    0.7493808   -1.3711394  
C    9.8247316    0.7546777   -0.9592228  
N    9.1481628    1.6003977   -1.8028034  
C    9.3599991    0.0017983    0.1233597  
C   10.2821802   -0.7707321    0.8022981  
O    9.8821900   -1.5256059    1.8668107  
C   11.6408476   -0.7889578    0.4066889  
O   12.4349125   -1.6074880    1.1830987  
C   12.1000744   -0.0462663   -0.6610407  
H   12.1653931    1.8617265   -3.0613393  
H    8.1644903    1.7969768   -1.7612439  
H   10.6706621   -1.9800827    2.1908926  
H   13.3361261   -1.5624172    0.8493516  
H   13.1465912   -0.0802802   -0.9405487  
H    9.6771145    2.8115029   -3.4798877  
C    5.6938820    0.0016101   -2.2318647  
C    4.7390840    0.0009613   -1.2727298  
C    5.4706527    0.0008610   -0.0152296  
C    6.8949560    0.0014077   -0.4126515  
N    7.0320415    0.0019290   -1.7108028  
C    7.9554493    0.0015310    0.5571111  
C    7.6088229    0.0015156    1.8644688  
O    8.4940071    0.0016138    2.8756501  
C    6.1802431    0.0013411    2.2972750  
O    5.9381808    0.0012125    3.5041826  
C    5.1106706    0.0011730    1.2834017  
H    7.9484094    0.0015982    3.6827902  
H    4.0886168    0.0011646    1.6378545  
H    5.5602487    0.0018873   -3.3019653  
C    3.2798077    0.0005856   -1.4499661  
C    2.5571132    0.0005565   -2.5996564  
C    1.1637425    0.0001547   -2.2210366  
C    1.1336959   -0.0000200   -0.7459475  
N    2.4483509   -0.0001429   -0.3402730  
C    0.0000000    0.0000000    0.0000000  
C   -1.2757370   -0.0000187   -0.6964411  
O   -2.3524597   -0.0000640   -0.1142306  
C   -1.2676502   -0.0000874   -2.2584078  
O   -2.3355774   -0.0004102   -2.8557287  
C    0.0181551    0.0001758   -2.9516297  
H    2.9547342    0.0006074   -3.5989118  
H    0.0150776    0.0003317   -4.0331632  
H    2.7563626    0.0012823    0.6148051  
C    0.0000000    0.0000000    1.4700000  
C    1.0541688    0.0001722    2.3260392  
C    0.5103138    0.0000454    3.6635956  
C   -0.9576371   -0.0002459    3.5155732  
N   -1.2018458    0.0001392    2.1615969  
C   -1.8348311   -0.0008317    4.5510609  
C   -1.2972847   -0.0009736    5.9014604  
O   -2.0050672   -0.0014265    6.9001319  
C    0.2542623   -0.0004184    6.0817573  
O    0.7184670   -0.0002256    7.2139121  
C    1.0974552   -0.0000873    4.8889129  
H    2.0940752    0.0005483    2.0517982  
H   -2.9081052   -0.0011668    4.4207061  
H    2.1707277    0.0000911    5.0223670  
H   -2.1128194   -0.0014912    1.7406791  
