62

C    9.1320815    0.0020685   -2.4059690  
C   10.1677595    0.0008880   -1.5005204  
C   11.3791658    0.0016214   -2.2535761  
C   11.0167590    0.0035520   -3.6249198  
N    9.6451313    0.0018247   -3.6819503  
C   11.9604400    0.0050263   -4.6565464  
C   13.2942675    0.0048502   -4.2972640  
O   14.2573218    0.0065992   -5.2644956  
C   13.6757108    0.0025615   -2.9344316  
O   15.0414863    0.0022633   -2.7394954  
C   12.7452874    0.0008328   -1.9161808  
H   10.0630090   -0.0014545   -0.4290658  
H    9.0992966    0.0131445   -4.5245160  
H   11.6907108    0.0063565   -5.7036599  
H   15.1066429    0.0058341   -4.8041502  
H   15.2136139    0.0006987   -1.7929366  
H   13.0675424   -0.0010862   -0.8814700  
C    6.6801370   -0.0033361    1.2661380  
C    7.7093285   -0.0019932    0.3802270  
C    7.1273475   -0.0004472   -0.9411853  
C    5.6642441   -0.0009742   -0.7511361  
N    5.4589561   -0.0031398    0.6092839  
C    4.7577216    0.0005129   -1.7610467  
C    5.2563291    0.0025579   -3.1263017  
O    4.5202042    0.0039399   -4.1042686  
C    6.8020687    0.0028972   -3.3510092  
O    7.2336222    0.0043058   -4.4960071  
C    7.6791158    0.0014554   -2.1828318  
H    8.7566698   -0.0022586    0.6245395  
H    6.7110426   -0.0046695    2.3436042  
H    4.5604248   -0.0024244    1.0561488  
C    3.3041270    0.0001177   -1.5420435  
C    2.5845370   -0.0004780   -0.3695856  
C    1.2040004   -0.0000007   -0.7283590  
C    1.1422370    0.0006038   -2.1454373  
N    2.4348634    0.0026110   -2.6077469  
C   -0.0655187    0.0008799   -2.8497918  
C   -1.2321769    0.0002326   -2.1101398  
O   -2.4392822    0.0001149   -2.7472517  
C   -1.1911211   -0.0000007   -0.6955263  
O   -2.4371526   -0.0002319   -0.1032858  
C    0.0000000    0.0000000    0.0000000  
H    3.0031534   -0.0000661    0.6222578  
H    2.7054623   -0.0071098   -3.5745266  
H   -0.1193555    0.0014846   -3.9297472  
H   -3.1132992   -0.0000646   -2.0551783  
H   -2.3200279   -0.0004070    0.8516411  
C    0.8400945    0.7047457    2.2710304  
C    0.0000000    0.0000000    1.4700000  
C   -0.8844236   -0.7423113    2.3369512  
C   -0.4878984   -0.4098547    3.7186280  
N    0.5629682    0.4714286    3.6095011  
C   -1.0836927   -0.9095027    4.8308716  
C   -2.1891196   -1.8367527    4.6554461  
O   -2.7906899   -2.3413415    5.5944904  
C   -2.6257283   -2.2031529    3.2011665  
O   -3.5549479   -2.9829990    3.0410059  
C   -1.9068976   -1.5999348    2.0816745  
H   -0.7774656   -0.6525820    5.8354244  
H   -2.2155208   -1.8586617    1.0779135  
H    1.6384792    1.3747609    1.9961646  
H    1.0518368    0.8833920    4.3830260  
