62

C    9.7519886   -0.7103447   -2.4019736  
C   10.9583260   -0.4597428   -3.0138690  
C   10.7019686    0.4486671   -4.0832951  
C    9.3096171    0.7192412   -4.0748287  
N    8.7625633   -0.0019537   -3.0427301  
C    8.7005230    1.5782787   -4.9945285  
C    9.5118249    2.1752810   -5.9398087  
O    8.9690171    3.0231637   -6.8614735  
C   10.9031494    1.9175721   -5.9646588  
O   11.5747004    2.5873514   -6.9665370  
C   11.5046737    1.0700123   -5.0578307  
H   11.9062755   -0.8808344   -2.7256536  
H    7.6398666    1.7885375   -4.9934767  
H    9.6986314    3.3243865   -7.4184233  
H   12.5076075    2.3583642   -6.9131192  
H   12.5727565    0.8918051   -5.1016680  
H    9.5188390   -1.3394628   -1.5600648  
C    6.7636933   -0.0010971    0.9023171  
C    5.4671766   -0.0014230    0.4424135  
C    5.5308677   -0.0015887   -0.9825579  
C    6.9040853   -0.0016365   -1.3378040  
N    7.6252192    0.0006176   -0.1696525  
C    7.3417429   -0.0020967   -2.6656758  
C    6.3755446   -0.0028233   -3.6529133  
O    6.7475672   -0.0036472   -4.9661586  
C    5.0004300   -0.0024126   -3.3184347  
O    4.1619031   -0.0028166   -4.4139788  
C    4.5679461   -0.0016854   -2.0086701  
H    4.5841349   -0.0004230    1.0582292  
H    8.6271391   -0.0094387   -0.1061168  
H    5.9304037   -0.0037547   -5.4814348  
H    3.2522420   -0.0025258   -4.1007373  
H    7.1420547   -0.0005063    1.9101867  
C    3.1301149   -0.0010311   -1.7028252  
C    2.5367768   -0.0002767   -0.4864665  
C    1.1089904    0.0001028   -0.7656183  
C    1.0177872   -0.0004148   -2.2415132  
N    2.1993578   -0.0011611   -2.7963820  
C   -0.2459209   -0.0002877   -2.9257118  
C   -1.3675319   -0.0000605   -2.1698524  
O   -2.6129313    0.0000867   -2.6748490  
C   -1.3083584    0.0000910   -0.6783232  
O   -2.3693261    0.0004206   -0.0541692  
C    0.0000000    0.0000000    0.0000000  
H    3.0096017   -0.0001007    0.4807525  
H   -0.2829630   -0.0004687   -4.0053125  
H   -3.1967441    0.0002094   -1.8949034  
C    0.0000000    0.0000000    1.4700000  
C    1.0662921    0.0000102    2.3034270  
C    0.4961870   -0.0000064    3.6418889  
C   -0.9663858    0.0000850    3.4240247  
N   -1.2632773    0.0000084    2.1528658  
C   -1.8985362    0.0000517    4.5177257  
C   -1.3925775   -0.0004564    5.7720543  
O   -2.1456383   -0.0005410    6.8851312  
C    0.0786232   -0.0009323    6.0245000  
O    0.4683759   -0.0012588    7.1921102  
C    1.0143166   -0.0008442    4.8859032  
H    2.1107198   -0.0000632    2.0421868  
H   -2.9622183    0.0003270    4.3293377  
H   -1.5042274   -0.0009692    7.6184419  
H    2.0724152   -0.0013148    5.1109744  
