64

C    1.1188639    0.0008263   -0.8003808  
C    0.0000000    0.0000000    0.0000000  
C   -1.1323865    0.0008862   -0.8673522  
C   -0.6382666    0.0019660   -2.1969278  
N    0.7324011    0.0038510   -2.1202243  
C   -1.4770923    0.0027271   -3.3154802  
C   -2.8395484    0.0020849   -3.0876850  
O   -3.7039207    0.0024300   -4.1440337  
C   -3.3517873    0.0013817   -1.7684321  
O   -4.7300503    0.0012205   -1.7073108  
C   -2.5248544    0.0009039   -0.6644812  
H   -1.1067583    0.0036956   -4.3313805  
H   -4.5940043    0.0021674   -3.7685115  
H   -4.9934608    0.0007093   -0.7819901  
H   -2.9462577    0.0005502    0.3339664  
H    2.1619893    0.0009431   -0.5342073  
C    2.8040010   -0.7159316   -3.3653712  
C    1.6478424   -0.0100038   -3.2703003  
C    1.4957339    0.7174325   -4.5082562  
C    2.6664261    0.3749593   -5.3383053  
N    3.4207000   -0.4973303   -4.5879241  
C    2.8929060    0.8596084   -6.5855127  
C    1.9187379    1.7801327   -7.1477993  
O    2.0328387    2.2713110   -8.2631580  
C    0.6714693    2.1569302   -6.2863174  
O   -0.1553226    2.9312425   -6.7490450  
C    0.5367433    1.5697119   -4.9555752  
H    3.7580930    0.5955406   -7.1776530  
H   -0.3298251    1.8355600   -4.3655685  
H    3.2575108   -1.3773045   -2.6450906  
C    4.6866492   -1.1060451   -5.0212133  
C    5.5179035   -1.9843076   -4.3653638  
C    6.6109445   -2.2556180   -5.2407221  
C    6.3904763   -1.5081626   -6.4258933  
N    5.2124952   -0.8229826   -6.2600475  
C    7.2717949   -1.5335755   -7.5109836  
C    8.3963109   -2.3277756   -7.3974645  
O    9.2901947   -2.3891446   -8.4271341  
C    8.6335508   -3.0811630   -6.2231808  
O    9.7963646   -3.8224821   -6.2638275  
C    7.7644009   -3.0567839   -5.1524285  
H    5.3557781   -2.3815140   -3.3779755  
H    4.8039230   -0.1997788   -6.9328532  
H    7.1094008   -0.9663329   -8.4171108  
H    9.9906133   -2.9917548   -8.1451083  
H    9.8812520   -4.3008855   -5.4334493  
H    7.9725373   -3.6446973   -4.2661354  
C    2.5311839    2.1237619    3.0120429  
C    1.9795631    1.6616747    1.8395852  
C    0.9223175    0.7739173    2.1983588  
C    0.8753926    0.7337535    3.6154372  
N    1.8668922    1.5631002    4.0777464  
C   -0.0496243   -0.0427881    4.3197917  
C   -0.9437528   -0.7922060    3.5801400  
O   -1.8685244   -1.5680278    4.2172520  
C   -0.9124520   -0.7656372    2.1655264  
O   -1.8671164   -1.5663939    1.5732860  
C    0.0000000    0.0000000    1.4700000  
H    2.3005065    1.9304404    0.8477417  
H    2.0679347    1.7444845    5.0445261  
H   -0.0904770   -0.0778569    5.3997470  
H   -2.3849669   -2.0011402    3.5251786  
H   -1.7775064   -1.4909735    0.6183591  
H    3.3468514    2.8078103    3.1724291  
