62

C    3.5073460    0.6806766   -8.6781160  
C    4.5948046   -0.1374031   -8.8797266  
C    4.9294413   -0.0516580  -10.2636580  
C    4.0036420    0.8415485  -10.8611557  
N    3.1530090    1.2663590   -9.8709154  
C    4.0343797    1.1646731  -12.2210950  
C    5.0178060    0.5756107  -12.9918449  
O    5.0936486    0.8563968  -14.3254192  
C    5.9503591   -0.3184407  -12.4140616  
O    6.8676858   -0.8223480  -13.3129139  
C    5.9204637   -0.6378784  -11.0725732  
H    5.0857258   -0.7246722   -8.1226903  
H    2.3971805    1.9156044   -9.9941414  
H    3.3315620    1.8445807  -12.6825867  
H    5.8393974    0.3477784  -14.6695584  
H    7.4599233   -1.4166785  -12.8421378  
H    6.6478996   -1.3261765  -10.6583741  
C    3.9401648   -0.7297698   -4.5164167  
C    4.0974213   -0.5149786   -5.8480361  
C    3.0659757    0.4122216   -6.2496022  
C    2.2893669    0.7222477   -5.0340556  
N    2.8699641   -0.0020530   -4.0185824  
C    1.2252043    1.5635314   -4.9952707  
C    0.8173916    2.2063957   -6.2333939  
O   -0.1284158    2.9803792   -6.3019344  
C    1.6253385    1.8924359   -7.5328004  
O    1.2911345    2.4275124   -8.5812572  
C    2.7538841    0.9687212   -7.4492037  
H    4.8499651   -0.9559011   -6.4772248  
H    0.6692916    1.7773861   -4.0929753  
H    4.5159196   -1.3586236   -3.8569172  
C    3.2573670   -0.0002921   -1.5109382  
C    2.5379468   -0.0001711   -0.3591962  
C    1.1435043    0.0000330   -0.7338498  
C    1.1092608   -0.0000085   -2.2088474  
N    2.4227562    0.0001906   -2.6182610  
C   -0.0265533   -0.0002525   -2.9515663  
C   -1.3003033   -0.0002641   -2.2514979  
O   -2.3786785   -0.0004132   -2.8306425  
C   -1.2877724    0.0000310   -0.6895608  
O   -2.3539956    0.0003306   -0.0892035  
C    0.0000000    0.0000000    0.0000000  
H    2.9384091   -0.0000370    0.6389240  
H   -0.0296290   -0.0004088   -4.0327231  
H    4.3270394   -0.0004767   -1.6439445  
C    2.5311839    2.1237619    3.0120429  
C    1.9795631    1.6616747    1.8395852  
C    0.9223175    0.7739173    2.1983588  
C    0.8753926    0.7337535    3.6154372  
N    1.8668922    1.5631002    4.0777464  
C   -0.0496243   -0.0427881    4.3197917  
C   -0.9437528   -0.7922060    3.5801400  
O   -1.8685244   -1.5680278    4.2172520  
C   -0.9124520   -0.7656372    2.1655264  
O   -1.8671164   -1.5663939    1.5732860  
C    0.0000000    0.0000000    1.4700000  
H    2.3005065    1.9304404    0.8477417  
H    2.0679347    1.7444845    5.0445261  
H   -0.0904770   -0.0778569    5.3997470  
H   -2.3849669   -2.0011402    3.5251786  
H   -1.7775064   -1.4909735    0.6183591  
H    3.3468514    2.8078103    3.1724291  
