60

C    4.2949391   -3.6305372   -5.1141190  
C    3.5771660   -3.0322265   -6.1237199  
C    4.1263050   -3.4954611   -7.3559780  
C    5.1853893   -4.3818463   -7.0325781  
N    5.2619988   -4.4396948   -5.6631251  
C    5.9539376   -5.0286076   -8.0051121  
C    5.6475720   -4.7762016   -9.3282179  
O    6.3660991   -5.3815813  -10.3182910  
C    4.5948056   -3.8946826   -9.6708888  
O    4.4138453   -3.7469889  -11.0305884  
C    3.8363733   -3.2560799   -8.7119866  
H    5.9136941   -4.9974046   -5.1413650  
H    6.7625499   -5.7051964   -7.7651645  
H    5.9938060   -5.0719415  -11.1542237  
H    3.6847759   -3.1362774  -11.1758227  
H    3.0364359   -2.5861218   -9.0047899  
H    4.1945101   -3.5430062   -4.0458442  
C    2.4602717   -2.0944452   -5.9392893  
C    1.9124728   -1.6318083   -4.7860506  
C    0.8432452   -0.7354854   -5.1577935  
C    0.8127879   -0.7137213   -6.6327140  
N    1.8180299   -1.5578231   -7.0448669  
C   -0.0596374    0.0159822   -7.3730582  
C   -1.0334829    0.8347251   -6.6703351  
O   -1.8613777    1.5276084   -7.2472263  
C   -1.0192493    0.8271228   -5.1084309  
O   -1.8341905    1.5127102   -4.5058515  
C   -0.0307352   -0.0004646   -4.4215603  
H    2.2221962   -1.8889424   -3.7887709  
H   -0.0651704    0.0176836   -8.4542048  
H    2.0482131   -1.7553490   -8.0014478  
C    3.2573670   -0.0002920   -1.5109380  
C    2.5379468   -0.0001709   -0.3591961  
C    1.1435043    0.0000332   -0.7338500  
C    1.1092609   -0.0000082   -2.2088477  
N    2.4227562    0.0001909   -2.6182613  
C   -0.0265532   -0.0002522   -2.9515663  
C   -1.3003035   -0.0002639   -2.2514981  
O   -2.3786784   -0.0004131   -2.8306429  
C   -1.2877725    0.0000312   -0.6895608  
O   -2.3539958    0.0003307   -0.0892036  
C    0.0000000    0.0000000    0.0000000  
H    2.9384091   -0.0000369    0.6389239  
H    4.3270394   -0.0004765   -1.6439446  
H    2.7280494   -0.0013406   -3.5742113  
C    0.8175213    0.6860729    2.3021913  
C    0.0000000    0.0000000    1.4700000  
C   -0.8887526   -0.7456559    2.3478473  
C   -0.4549825   -0.3816753    3.7138435  
N    0.5448156    0.4573574    3.6934124  
C   -1.0945674   -0.9182058    4.8835240  
C   -2.1210866   -1.7789155    4.6970523  
O   -2.8083856   -2.3554314    5.6976972  
C   -2.5824069   -2.1655116    3.3310774  
O   -3.5227682   -2.9541547    3.2362962  
C   -1.9100805   -1.6015804    2.1470656  
H   -0.7567140   -0.6349833    5.8697035  
H   -3.4728268   -2.9124471    5.2533954  
H   -2.2742832   -1.9066565    1.1752040  
H    1.6189533    1.3585343    2.0405121  
