62

C    6.0102715   -0.7172172    3.1835224  
C    7.0644383    0.0010570    2.6684676  
C    7.6407454    0.7291082    3.7512472  
C    6.8898867    0.4123174    4.9121868  
N    5.9064819   -0.4667967    4.5318047  
C    7.1777936    0.9516450    6.1695751  
C    8.2432825    1.8264766    6.2566434  
O    8.5683225    2.3819063    7.4603298  
C    9.0041770    2.1551949    5.1095609  
O   10.0323127    3.0405275    5.3594939  
C    8.7205524    1.6237230    3.8687467  
H    5.2247958   -0.8758240    5.1449785  
H    6.6092758    0.7143346    7.0582110  
H    9.3304654    2.9535778    7.3003468  
H   10.4957442    3.2094838    4.5334865  
H    9.3210290    1.8943104    3.0081140  
H    5.3233216   -1.3872352    2.6955320  
C    4.7795901    0.0008674   -1.0815733  
C    5.8063529    0.0010477   -1.9702986  
C    7.0285665    0.0013959   -1.2015143  
C    6.6268087    0.0013743    0.2181269  
N    5.2509927    0.0014463    0.2224664  
C    7.4934504    0.0012526    1.2624628  
C    8.9169020    0.0013607    0.9686573  
O    9.7768349    0.0013262    1.8397569  
C    9.3650172    0.0016372   -0.5276709  
O   10.5607782    0.0020368   -0.7873195  
C    8.3375015    0.0014691   -1.5659688  
H    5.7176690    0.0011304   -3.0420957  
H    8.6560847    0.0014569   -2.5995201  
H    4.6776560   -0.0001051    1.0460742  
C    3.3321168    0.0004716   -1.3379341  
C    2.6974177    0.0000118   -2.5332316  
C    1.2800432   -0.0002116   -2.2052842  
C    1.2395033    0.0000644   -0.7271298  
N    2.4394059    0.0005460   -0.2131041  
C    0.0000000    0.0000000    0.0000000  
C   -1.1468704    0.0000635   -0.7169542  
O   -2.3742206    0.0000074   -0.1695488  
C   -1.1388774    0.0001608   -2.2096352  
O   -2.2206238    0.0000906   -2.7970409  
C    0.1454514    0.0001818   -2.9324241  
H    3.1367978   -0.0000649   -3.5160956  
H   -2.9844350    0.0001027   -0.9290164  
H    0.1083567    0.0003684   -4.0135594  
C    0.8676693    0.7151171    2.2619005  
C    0.5875920    0.4624972    3.5848544  
C   -0.5048400   -0.4542819    3.6114698  
C   -0.8517165   -0.7276451    2.2635546  
N    0.0000000    0.0000000    1.4700000  
C   -1.8902865   -1.5946756    1.9108239  
C   -2.5912627   -2.1969500    2.9375057  
O   -3.6148162   -3.0527051    2.6493466  
C   -2.2603868   -1.9365747    4.2886322  
O   -3.0513550   -2.6123276    5.1947621  
C   -1.2361111   -1.0811317    4.6373480  
H    1.1060808    0.8876438    4.4271209  
H   -2.1597133   -1.8070987    0.8854031  
H   -3.9636755   -3.3565188    3.4974381  
H   -2.7621927   -2.3810384    6.0827341  
H   -1.0058879   -0.9010589    5.6809233  
H    1.6167816    1.3499334    1.8205408  
