62

C    4.7390844    0.0009612   -1.2727295  
C    5.7457114    0.0027391   -2.2103679  
C    6.9802491    0.0028874   -1.4958638  
C    6.6612413    0.0008544   -0.1137797  
N    5.2920917    0.0016753   -0.0135510  
C    7.6369665    0.0001118    0.8875944  
C    8.9588074    0.0011387    0.4864546  
O    9.9518658    0.0001278    1.4228549  
C    9.2971110    0.0035435   -0.8877220  
O   10.6560644    0.0047303   -1.1256038  
C    8.3350583    0.0045506   -1.8761448  
H    5.6072448    0.0049039   -3.2779894  
H    4.7730889   -0.0099227    0.8457994  
H    7.4003706   -0.0012921    1.9426884  
H   10.7862571    0.0014113    0.9359723  
H   10.7982738    0.0063138   -2.0771173  
H    8.6245433    0.0065795   -2.9204976  
C    3.2798077    0.0005856   -1.4499659  
C    2.5571132    0.0005565   -2.5996562  
C    1.1637425    0.0001548   -2.2210364  
C    1.1336957   -0.0000200   -0.7459472  
N    2.4483508   -0.0001429   -0.3402728  
C    0.0000000    0.0000000    0.0000000  
C   -1.2757370   -0.0000187   -0.6964410  
O   -2.3524597   -0.0000640   -0.1142306  
C   -1.2676501   -0.0000873   -2.2584079  
O   -2.3355772   -0.0004101   -2.8557287  
C    0.0181552    0.0001759   -2.9516296  
H    2.9547343    0.0006074   -3.5989115  
H    2.7563624    0.0012823    0.6148054  
C    2.5409761   -2.1228910   -5.9711693  
C    1.9926464   -1.6610296   -4.7970800  
C    0.9342931   -0.7733295   -5.1527157  
C    0.8833320   -0.7329662   -6.5696491  
N    1.8735971   -1.5621440   -7.0348972  
C   -0.0437651    0.0435817   -7.2712562  
C   -0.9358622    0.7928008   -6.5289551  
O   -1.8625226    1.5686193   -7.1633207  
C   -0.9005335    0.7660313   -5.1144400  
O   -1.8535912    1.5666043   -4.5193699  
C    0.0139724    0.0003878   -4.4216237  
H    2.3164383   -1.9299052   -3.8061929  
H    2.0719065   -1.7433682   -8.0022712  
H   -0.0876942    0.0788020   -8.3510856  
H   -2.3770381    2.0015785   -6.4697185  
H   -1.7612565    1.4910554   -3.5647129  
H    3.3562540   -2.8068323   -6.1339745  
C    2.4951002    2.0940188    2.9809380  
C    1.9440701    1.6314916    1.8291961  
C    0.8759964    0.7350050    2.2038498  
C    0.8497377    0.7130254    3.6788474  
N    1.8560616    1.5571714    4.0882609  
C   -0.0205033   -0.0168748    4.4215661  
C   -0.9962600   -0.8356168    3.7214979  
O   -1.8224391   -1.5286685    4.3006425  
C   -0.9864710   -0.8277881    2.1595606  
O   -1.8030528   -1.5133726    1.5592035  
C    0.0000000    0.0000000    1.4700000  
H    2.2509283    1.8888011    0.8310761  
H   -0.0229599   -0.0187323    5.5027230  
H    3.3143982    2.7817323    3.1139444  
H    2.0889452    1.7545833    5.0442112  
