60

C    7.6850430   -0.0017820    3.6506888  
C    6.5639064   -0.0006886    2.8534948  
C    5.4339928   -0.0011529    3.7240667  
C    5.9318937   -0.0022627    5.0522307  
N    7.3023373   -0.0045703    4.9716267  
C    5.0962548   -0.0026686    6.1731659  
C    3.7331560   -0.0016336    5.9492481  
O    2.8717928   -0.0016214    7.0080529  
C    3.2171650   -0.0008938    4.6314588  
O    1.8387346   -0.0003201    4.5742600  
C    4.0409529   -0.0007664    3.5251588  
H    7.9298027    0.0047733    5.7553243  
H    5.4694783   -0.0036576    7.1880092  
H    1.9806453   -0.0011223    6.6350658  
H    1.5726920    0.0001878    3.6496925  
H    3.6167103   -0.0003749    2.5279147  
H    8.7274065   -0.0022393    3.3815475  
C    6.5597233   -0.0008210    1.3835008  
C    7.6114523   -0.0009113    0.5244653  
C    7.0637933   -0.0009871   -0.8115379  
C    5.5962695   -0.0009037   -0.6593392  
N    5.3559146   -0.0012037    0.6953265  
C    4.7161325   -0.0005435   -1.6923264  
C    5.2498343   -0.0004422   -3.0442502  
O    4.5392129   -0.0001860   -4.0409036  
C    6.8008622   -0.0007797   -3.2289611  
O    7.2618431   -0.0010045   -4.3624322  
C    7.6474456   -0.0008762   -2.0385208  
H    8.6521348   -0.0011060    0.7957464  
H    8.7203336   -0.0009048   -2.1750284  
H    4.4461421    0.0003272    1.1188347  
C    3.2573665   -0.0002920   -1.5109385  
C    2.5379463   -0.0001709   -0.3591964  
C    1.1435038    0.0000331   -0.7338500  
C    1.1092599   -0.0000083   -2.2088477  
N    2.4227553    0.0001909   -2.6182613  
C   -0.0265539   -0.0002524   -2.9515660  
C   -1.3003040   -0.0002640   -2.2514977  
O   -2.3786790   -0.0004133   -2.8306421  
C   -1.2877727    0.0000311   -0.6895603  
O   -2.3539959    0.0003306   -0.0892030  
C    0.0000000    0.0000000    0.0000000  
H    2.9384091   -0.0000367    0.6389234  
H   -0.0296303   -0.0004086   -4.0327229  
H    2.7280482   -0.0013407   -3.5742119  
C    0.8175213    0.6860729    2.3021913  
C    0.0000000    0.0000000    1.4700000  
C   -0.8887526   -0.7456559    2.3478473  
C   -0.4549825   -0.3816753    3.7138435  
N    0.5448156    0.4573574    3.6934124  
C   -1.0945674   -0.9182058    4.8835240  
C   -2.1210866   -1.7789155    4.6970523  
O   -2.8083856   -2.3554314    5.6976972  
C   -2.5824069   -2.1655116    3.3310774  
O   -3.5227682   -2.9541547    3.2362962  
C   -1.9100805   -1.6015804    2.1470656  
H   -0.7567140   -0.6349833    5.8697035  
H   -3.4728268   -2.9124471    5.2533954  
H   -2.2742832   -1.9066565    1.1752040  
H    1.6189533    1.3585343    2.0405121  
