62

C   -0.5846149    0.1941866   -8.6959373  
C    0.1499112   -0.4626914   -9.6558588  
C   -0.3775043   -0.0732137  -10.9226426  
C   -1.4412126    0.8306090  -10.6705402  
N   -1.5413517    0.9693353   -9.3084300  
C   -2.1923158    1.4186238  -11.6927297  
C   -1.8634268    1.0884510  -12.9931128  
O   -2.5642515    1.6341264  -14.0294989  
C   -0.8056990    0.1883456  -13.2648458  
O   -0.6014729   -0.0394781  -14.6101097  
C   -0.0644685   -0.3923320  -12.2569202  
H    0.9648163   -1.1401865   -9.4663237  
H   -2.2014422    1.5568415   -8.8318827  
H   -3.0043394    2.1081147  -11.5071957  
H   -2.1778872    1.2756389  -14.8391134  
H    0.1294458   -0.6576156  -14.7063786  
H    0.7397975   -1.0783307  -12.4957505  
C    2.1709838   -2.0097059   -6.1391753  
C    1.7780127   -1.6284991   -4.9015025  
C    0.6718279   -0.7104844   -5.1253423  
C    0.5282239   -0.6514436   -6.5958784  
N    1.4042459   -1.4110423   -7.1955325  
C   -0.4727386    0.1611593   -7.2305726  
C   -1.2932057    0.8817146   -6.4324696  
O   -2.2712231    1.6824664   -6.8888896  
C   -1.1735672    0.8429685   -4.9450740  
O   -1.9541225    1.5247035   -4.2808516  
C   -0.1387079    0.0017019   -4.3179684  
H    2.1880840   -1.9327663   -3.9536955  
H   -2.6790397    2.0573117   -6.0874357  
H    2.9666378   -2.6878242   -6.4038701  
C    3.3041273    0.0001178   -1.5420428  
C    2.5845373   -0.0004780   -0.3695851  
C    1.2040007   -0.0000007   -0.7283589  
C    1.1422374    0.0006038   -2.1454372  
N    2.4348641    0.0026111   -2.6077464  
C   -0.0655179    0.0008799   -2.8497918  
C   -1.2321766    0.0002325   -2.1101402  
O   -2.4392814    0.0001148   -2.7472522  
C   -1.1911209   -0.0000007   -0.6955266  
O   -2.4371528   -0.0002320   -0.1032862  
C    0.0000000    0.0000000    0.0000000  
H    3.0031533   -0.0000660    0.6222584  
H    2.7054631   -0.0071097   -3.5745261  
H   -3.1132988   -0.0000648   -2.0551787  
H   -2.3200282   -0.0004072    0.8516409  
H    4.3686625    0.0004073   -1.7024290  
C    0.8175213    0.6860729    2.3021913  
C    0.0000000    0.0000000    1.4700000  
C   -0.8887526   -0.7456559    2.3478473  
C   -0.4549825   -0.3816753    3.7138435  
N    0.5448156    0.4573574    3.6934124  
C   -1.0945674   -0.9182058    4.8835240  
C   -2.1210866   -1.7789155    4.6970523  
O   -2.8083856   -2.3554314    5.6976972  
C   -2.5824069   -2.1655116    3.3310774  
O   -3.5227682   -2.9541547    3.2362962  
C   -1.9100805   -1.6015804    2.1470656  
H   -0.7567140   -0.6349833    5.8697035  
H   -3.4728268   -2.9124471    5.2533954  
H   -2.2742832   -1.9066565    1.1752040  
H    1.6189533    1.3585343    2.0405121  
