60

C    3.2672079   -3.6068845   -3.9615785  
C    4.3611907   -4.4125133   -4.1775201  
C    4.6775899   -4.3218176   -5.5654200  
C    3.7344518   -3.4385594   -6.1504600  
N    2.8914949   -3.0241931   -5.1492902  
C    3.7446271   -3.1139359   -7.5103523  
C    4.7249357   -3.6912403   -8.2938650  
O    4.7810132   -3.4084685   -9.6279965  
C    5.6745902   -4.5752505   -7.7286221  
O    6.5862575   -5.0680377   -8.6393193  
C    5.6649865   -4.8961623   -6.3871868  
H    4.8680621   -4.9948803   -3.4272370  
H    3.0285277   -2.4415739   -7.9623835  
H    5.5280849   -3.9083743   -9.9818940  
H    7.1909464   -5.6560790   -8.1765428  
H    6.4052060   -5.5765966   -5.9827579  
H    2.7243250   -3.4029294   -3.0545841  
C    1.7720686   -2.0859332   -5.3149827  
C    0.8968260   -1.6247189   -4.3847634  
C   -0.0065340   -0.7270826   -5.0652228  
C    0.4171834   -0.7029976   -6.4782599  
N    1.5002587   -1.5471464   -6.5634088  
C   -0.1857670    0.0284590   -7.4494066  
C   -1.3281512    0.8467742   -7.0781198  
O   -1.9388962    1.5411253   -7.8800975  
C   -1.7940049    0.8367264   -5.5872527  
O   -2.7544408    1.5219332   -5.2627290  
C   -1.0641734    0.0073898   -4.6315339  
H    0.8854569   -1.8836207   -3.3409943  
H    0.1408060    0.0318502   -8.4800608  
H    2.0129022   -1.7433385   -7.4034994  
C    1.1319248    0.0015675   -0.8009270  
C    0.7969916    0.0034959   -2.1169404  
C   -0.6453336    0.0035703   -2.1842672  
C   -1.1266831    0.0015415   -0.7896027  
N    0.0000000    0.0000000    0.0000000  
C   -2.4346129    0.0013924   -0.4276297  
C   -3.4350110    0.0031352   -1.4820184  
O   -4.6384610    0.0030897   -1.2583919  
C   -2.9478958    0.0050460   -2.9661075  
O   -3.7809377    0.0062160   -3.8623775  
C   -1.5113821    0.0053068   -3.2312125  
H    1.4821240    0.0045436   -2.9459192  
H   -2.7664565    0.0000185    0.6013447  
H    2.1104318    0.0009428   -0.3488058  
C    2.5128556    2.1077716    2.9199648  
C    1.9592212    1.6432552    4.0696553  
C    0.8915788    0.7479214    3.6910360  
C    0.8684491    0.7287414    2.2159470  
N    1.8754542    1.5738793    1.8102719  
C    0.0000000    0.0000000    1.4700000  
C   -0.9772830   -0.8200135    2.1664417  
O   -1.8021297   -1.5120829    1.5842315  
C   -0.9711318   -0.8147624    3.7284083  
O   -1.7894187   -1.5009653    4.3257297  
C    0.0140216    0.0115358    4.4216297  
H    2.2638494    1.8988021    5.0689105  
H    0.0117648    0.0094386    5.5031631  
H    3.3327358    2.7953732    2.7900019  
H    2.1123206    1.7707734    0.8551938  
