66

C    1.9074112   -2.1157066   -5.2171216  
C    1.7366766   -1.6153236   -6.4871354  
C    0.6103640   -0.7412455   -6.4423309  
C    0.1310752   -0.7480688   -5.1073547  
N    0.9400195   -1.5942803   -4.3903111  
C   -0.9736297    0.0040464   -4.6965763  
C   -1.6058299    0.7773676   -5.6507640  
O   -2.6892495    1.5315495   -5.3037412  
C   -1.1427627    0.7971171   -6.9879236  
O   -1.8787348    1.6162792   -7.8189839  
C   -0.0531712    0.0551806   -7.3939355  
H    2.3479780   -1.8521278   -7.3410832  
H    0.8493709   -1.7919000   -3.4101524  
H   -2.9736278    1.9867686   -6.1069657  
H   -1.5003150    1.5722382   -8.7024219  
H    0.2783218    0.0903617   -8.4251257  
C    2.9102481   -3.0561014   -4.6966646  
C    3.9501312   -3.6877862   -5.3386032  
C    4.6134853   -4.4919256   -4.3649908  
C    3.9276519   -4.3090882   -3.1369319  
N    2.9001546   -3.4298600   -3.3732028  
C    4.3083790   -4.9518326   -1.9551045  
C    5.4011765   -5.7947358   -2.0141386  
O    5.8156253   -6.4478569   -0.8895591  
C    6.0986697   -5.9898106   -3.2299785  
O    7.1650591   -6.8588883   -3.1257708  
C    5.7237970   -5.3558459   -4.3962053  
H    4.2005204   -3.5811568   -6.3802025  
H    2.2344166   -3.1179737   -2.6894618  
H    3.7899408   -4.8165995   -1.0158834  
H    6.5823646   -6.9759460   -1.1474323  
H    7.5810716   -6.9348610   -3.9899269  
H    6.2775355   -5.5247577   -5.3123495  
C    1.1188642    0.0008222   -0.8003808  
C    0.0000000    0.0000000    0.0000000  
C   -1.1323862    0.0008899   -0.8673528  
C   -0.6382663    0.0019679   -2.1969280  
N    0.7324016    0.0038481   -2.1202242  
C   -1.4770914    0.0027318   -3.3154808  
C   -2.8395473    0.0020945   -3.0876857  
O   -3.7039201    0.0024425   -4.1440349  
C   -3.3517868    0.0013931   -1.7684331  
O   -4.7300497    0.0012366   -1.7073121  
C   -2.5248543    0.0009123   -0.6644817  
H    1.3576314   -0.0056167   -2.9057046  
H   -4.5940032    0.0021826   -3.7685128  
H   -4.9934602    0.0007259   -0.7819913  
H   -2.9462577    0.0005603    0.3339659  
H    2.1619895    0.0009355   -0.5342068  
C    2.5311839    2.1237619    3.0120429  
C    1.9795631    1.6616747    1.8395852  
C    0.9223175    0.7739173    2.1983588  
C    0.8753926    0.7337535    3.6154372  
N    1.8668922    1.5631002    4.0777464  
C   -0.0496243   -0.0427881    4.3197917  
C   -0.9437528   -0.7922060    3.5801400  
O   -1.8685244   -1.5680278    4.2172520  
C   -0.9124520   -0.7656372    2.1655264  
O   -1.8671164   -1.5663939    1.5732860  
C    0.0000000    0.0000000    1.4700000  
H    2.3005065    1.9304404    0.8477417  
H    2.0679347    1.7444845    5.0445261  
H   -0.0904770   -0.0778569    5.3997470  
H   -2.3849669   -2.0011402    3.5251786  
H   -1.7775064   -1.4909735    0.6183591  
H    3.3468514    2.8078103    3.1724291  
