62

C    6.7845374   -1.8567543   -2.1415104  
C    7.4465439   -2.6769092   -1.2574513  
C    8.8352376   -2.5939445   -1.5724846  
C    8.9611204   -1.7002175   -2.6667109  
N    7.6969713   -1.2724347   -2.9884958  
C   10.1938116   -1.3793460   -3.2431682  
C   11.3199691   -1.9712385   -2.7050153  
O   12.5489892   -1.6927350   -3.2293807  
C   11.2147479   -2.8658534   -1.6134981  
O   12.4264852   -3.3726922   -1.1914169  
C    9.9989685   -3.1830695   -1.0444811  
H    6.9851797   -3.2637412   -0.4817165  
H    7.4729568   -0.6221735   -3.7199047  
H   10.2964594   -0.6990558   -4.0773573  
H   13.1875309   -2.2031101   -2.7145535  
H   12.2665748   -3.9672122   -0.4521073  
H    9.9496093   -3.8718661   -0.2092562  
C    4.3489000   -2.1006739   -1.4732762  
C    3.1285972   -1.6364581   -1.8466928  
C    3.3412597   -0.7405810   -2.9589043  
C    4.7959145   -0.7207997   -3.2046231  
N    5.3494454   -1.5655067   -2.2702980  
C    5.4017639    0.0079521   -4.1759997  
C    4.5653395    0.8276897   -5.0367898  
O    5.0159503    1.5198388   -5.9402171  
C    3.0222821    0.8221878   -4.7944081  
O    2.3079746    1.5086269   -5.5126189  
C    2.4861704   -0.0045255   -3.7159919  
H    2.1869562   -1.8922660   -1.3944884  
H    6.4704904    0.0081991   -4.3395019  
H    4.6014740   -2.7885458   -0.6827523  
C    0.0000000    0.0000000    0.0000000  
C    1.0521669   -0.0011848   -0.8862341  
C    0.4917221   -0.0011931   -2.1979130  
C   -0.9187427    0.0003100   -2.0478683  
N   -1.1833170   -0.0009472   -0.7007915  
C   -1.7951698    0.0010259   -3.1372090  
C   -1.2375835    0.0005161   -4.4010425  
O   -2.0474208    0.0015256   -5.4997580  
C    0.1673584   -0.0013557   -4.5711962  
O    0.5673529   -0.0020659   -5.8915551  
C    1.0325773   -0.0023359   -3.4969890  
H    2.0953059   -0.0030542   -0.6200560  
H   -2.0989777    0.0102265   -0.2891825  
H   -2.8710930    0.0020274   -3.0295514  
H   -1.4634881    0.0006427   -6.2693593  
H    1.5290715   -0.0033076   -5.9180042  
C    0.0000000    0.0000000    1.4700000  
C    1.0541688    0.0001722    2.3260392  
C    0.5103138    0.0000454    3.6635956  
C   -0.9576371   -0.0002459    3.5155732  
N   -1.2018458    0.0001392    2.1615969  
C   -1.8348311   -0.0008317    4.5510609  
C   -1.2972847   -0.0009736    5.9014604  
O   -2.0050672   -0.0014265    6.9001319  
C    0.2542623   -0.0004184    6.0817573  
O    0.7184670   -0.0002256    7.2139121  
C    1.0974552   -0.0000873    4.8889129  
H    2.0940752    0.0005483    2.0517982  
H   -2.9081052   -0.0011668    4.4207061  
H    2.1707277    0.0000911    5.0223670  
H   -2.1128194   -0.0014912    1.7406791  
