62

C   -0.1496414   -0.0015607   -4.3176960  
C    0.8570959   -0.0030492   -5.2552167  
C    0.2320387   -0.0039076   -6.5373647  
C   -1.1692057   -0.0025861   -6.3172802  
N   -1.3663825   -0.0031293   -4.9587013  
C   -2.0987838   -0.0026541   -7.3616343  
C   -1.6048135   -0.0037752   -8.6516614  
O   -2.4683514   -0.0035423   -9.7086939  
C   -0.2100859   -0.0054778   -8.8915536  
O    0.1236734   -0.0068611  -10.2301901  
C    0.7075439   -0.0056849   -7.8617574  
H    1.9121943   -0.0045702   -5.0413049  
H   -2.2604161    0.0081046   -4.5020195  
H   -3.1680123   -0.0017952   -7.2005417  
H   -1.9234601   -0.0047516  -10.5064140  
H    1.0828823   -0.0079358  -10.3044898  
H    1.7698140   -0.0071880   -8.0763687  
C    3.3003545    0.0005278   -1.4738987  
C    2.5232815    0.0003501   -2.6090748  
C    1.1623200   -0.0001315   -2.1820103  
C    1.1711882    0.0000584   -0.7636141  
N    2.4852301   -0.0014918   -0.3662361  
C    0.0000000    0.0000000    0.0000000  
C   -1.2020383    0.0000521   -0.6806477  
O   -2.3759251    0.0003495    0.0157743  
C   -1.2314654   -0.0005110   -2.0955510  
O   -2.5054386   -0.0008035   -2.6250179  
C   -0.0764515   -0.0007269   -2.8495195  
H    2.8919955   -0.0005615   -3.6205303  
H    2.8036266    0.0088181    0.5858663  
H   -3.0835640    0.0000348   -0.6418818  
H   -2.4360048   -0.0011523   -3.5845921  
C    6.4260934    0.0030639   -4.5098908  
C    7.5522586    0.0028897   -3.7593374  
C    7.0848226    0.0018032   -2.3816574  
C    5.6099763    0.0015414   -2.4884889  
N    5.2179708    0.0021968   -3.7336078  
C    4.7630504    0.0004759   -1.3275403  
C    5.3622558   -0.0006824   -0.1149868  
O    4.6953713   -0.0017512    1.0517627  
C    6.8483159   -0.0008249    0.0256761  
O    7.3251004   -0.0017841    1.1605311  
C    7.6953852    0.0003261   -1.1803076  
H    8.5739846    0.0033413   -4.0986768  
H    5.3903106   -0.0024423    1.7345598  
H    8.7674557    0.0000667   -1.0357556  
H    6.3446827    0.0037703   -5.5852255  
C    0.0000000    0.0000000    1.4700000  
C    1.0541688    0.0001722    2.3260392  
C    0.5103138    0.0000454    3.6635956  
C   -0.9576371   -0.0002459    3.5155732  
N   -1.2018458    0.0001392    2.1615969  
C   -1.8348311   -0.0008317    4.5510609  
C   -1.2972847   -0.0009736    5.9014604  
O   -2.0050672   -0.0014265    6.9001319  
C    0.2542623   -0.0004184    6.0817573  
O    0.7184670   -0.0002256    7.2139121  
C    1.0974552   -0.0000873    4.8889129  
H    2.0940752    0.0005483    2.0517982  
H   -2.9081052   -0.0011668    4.4207061  
H    2.1707277    0.0000911    5.0223670  
H   -2.1128194   -0.0014912    1.7406791  
