64

C    5.7813621   -2.3814990   -6.5411676  
C    5.3492867   -1.0781902   -6.6258064  
C    6.1237120   -0.4481346   -7.6445778  
C    7.0194511   -1.4247287   -8.1503843  
N    6.7863900   -2.5865680   -7.4572546  
C    7.9367442   -1.1536545   -9.1701306  
C    7.9498268    0.1265256   -9.6889236  
O    8.8252812    0.4453076  -10.6864041  
C    7.0641589    1.1147601   -9.1971894  
O    7.1999183    2.3403282   -9.8159741  
C    6.1591497    0.8481193   -8.1910160  
H    7.2651789   -3.4565567   -7.6051119  
H    8.6221993   -1.8935290   -9.5599254  
H    8.6703261    1.3748652  -10.8989507  
H    6.5661812    2.9499621   -9.4256819  
H    5.4933770    1.6254670   -7.8347079  
H    5.4531339   -3.1806408   -5.8988304  
C    4.0903621   -0.7060772   -4.4543997  
C    3.0267438   -0.0008951   -3.9901699  
C    2.4927470    0.7404274   -5.1082592  
C    3.3384962    0.4069150   -6.2702699  
N    4.2884150   -0.4739732   -5.8070423  
C    3.1596785    0.9054495   -7.5197468  
C    2.0610432    1.8325299   -7.7343584  
O    1.8174797    2.3361501   -8.8230938  
C    1.1527696    2.2000358   -6.5178950  
O    0.2249098    2.9797499   -6.6863672  
C    1.4446978    1.5979726   -5.2193762  
H    3.7914306    0.6477664   -8.3584352  
H    0.8109657    1.8574605   -4.3822543  
H    4.7463091   -1.3756297   -3.9221190  
C    3.3003547    0.0005277   -1.4738986  
C    2.5232816    0.0003497   -2.6090746  
C    1.1623203   -0.0001319   -2.1820102  
C    1.1711884    0.0000584   -0.7636141  
N    2.4852301   -0.0014919   -0.3662359  
C    0.0000000    0.0000000    0.0000000  
C   -1.2020383    0.0000520   -0.6806479  
O   -2.3759248    0.0003493    0.0157745  
C   -1.2314655   -0.0005115   -2.0955511  
O   -2.5054388   -0.0008040   -2.6250184  
C   -0.0764513   -0.0007274   -2.8495195  
H    2.8036266    0.0088183    0.5858662  
H   -3.0835639    0.0000346   -0.6418822  
H   -2.4360043   -0.0011529   -3.5845924  
H   -0.1304091   -0.0013423   -3.9319089  
H    4.3715553    0.0004897   -1.3667133  
C    2.5285572    2.1210227    2.9438989  
C    1.9331703    1.6216660    4.0790748  
C    0.8903039    0.7472258    3.6520102  
C    0.8972198    0.7527806    2.2336141  
N    1.9028376    1.5986179    1.8362361  
C    0.0000000    0.0000000    1.4700000  
C   -0.9207814   -0.7726952    2.1506477  
O   -1.8198395   -1.5274828    1.4542253  
C   -0.9436862   -0.7911793    3.5655508  
O   -1.9197945   -1.6098497    4.0950179  
C   -0.0590329   -0.0485852    4.3195194  
H    2.2150357    1.8593692    5.0905303  
H    2.1533708    1.7953814    0.8841339  
H   -2.3621246   -1.9821033    2.1118817  
H   -1.8668290   -1.5649508    5.0545920  
H   -0.1007624   -0.0827977    5.4019087  
H    3.3491200    2.8096064    2.8367138  
