60

C    4.7795897    0.0008677   -1.0815734  
C    5.8357356    0.0020744   -1.9630617  
C    7.0295758    0.0025515   -1.1824547  
C    6.6358516    0.0012983    0.1802287  
N    5.2632778    0.0022472    0.2058247  
C    7.5556546    0.0010564    1.2332010  
C    8.8973609    0.0017917    0.9045653  
O    9.8380083    0.0012449    1.8936042  
C    9.3099223    0.0034199   -0.4491726  
O   10.6798043    0.0044032   -0.6127735  
C    8.4030671    0.0039327   -1.4884696  
H    5.7555553    0.0036574   -3.0366361  
H    4.6982919   -0.0088487    1.0356736  
H    7.2620119    0.0002476    2.2738623  
H   10.6976510    0.0022152    1.4528342  
H   10.8735684    0.0054539   -1.5551421  
H    8.7489362    0.0053697   -2.5155286  
C    3.3321166    0.0004717   -1.3379342  
C    2.6974176    0.0000121   -2.5332317  
C    1.2800432   -0.0002115   -2.2052842  
C    1.2395033    0.0000645   -0.7271297  
N    2.4394059    0.0005461   -0.2131042  
C    0.0000000    0.0000000    0.0000000  
C   -1.1468704    0.0000636   -0.7169540  
O   -2.3742206    0.0000073   -0.1695488  
C   -1.1388774    0.0001610   -2.2096351  
O   -2.2206238    0.0000908   -2.7970408  
C    0.1454514    0.0001820   -2.9324241  
H    3.1367977   -0.0000646   -3.5160953  
H   -2.9844351    0.0001027   -0.9290163  
C    0.9350719   -0.7259382   -5.2319051  
C    0.6347934   -0.5089061   -6.5383526  
C   -0.4715636    0.4184311   -6.5675990  
C   -0.7935145    0.7260955   -5.1610140  
N    0.0950440    0.0004357   -4.4015596  
C   -1.7824145    1.5667848   -4.7647529  
C   -2.5832523    2.2114556   -5.7921736  
O   -3.4968510    2.9850783   -5.5369349  
C   -2.2600300    1.9000098   -7.2882797  
O   -2.9277035    2.4366218   -8.1620757  
C   -1.1693061    0.9767230   -7.5911241  
H    1.1315070   -0.9484311   -7.3849380  
H   -2.0020381    1.7788965   -3.7276012  
H   -0.9517793    0.7665421   -8.6295027  
H    1.6992183   -1.3555751   -4.8058451  
C    0.8400945    0.7047457    2.2710304  
C    0.0000000    0.0000000    1.4700000  
C   -0.8844236   -0.7423113    2.3369512  
C   -0.4878984   -0.4098547    3.7186280  
N    0.5629682    0.4714286    3.6095011  
C   -1.0836927   -0.9095027    4.8308716  
C   -2.1891196   -1.8367527    4.6554461  
O   -2.7906899   -2.3413415    5.5944904  
C   -2.6257283   -2.2031529    3.2011665  
O   -3.5549479   -2.9829990    3.0410059  
C   -1.9068976   -1.5999348    2.0816745  
H   -0.7774656   -0.6525820    5.8354244  
H   -2.2155208   -1.8586617    1.0779135  
H    1.6384792    1.3747609    1.9961646  
H    1.0518368    0.8833920    4.3830260  
