60

C    6.3381247   -0.0065517   -6.8179186  
C    7.1154188   -0.0054315   -5.6828947  
C    8.4762969   -0.0066734   -6.1102238  
C    8.4671520   -0.0082634   -7.5286169  
N    7.1530332   -0.0100966   -7.9257368  
C    9.6381917   -0.0094737   -8.2924579  
C   10.8403636   -0.0087644   -7.6120453  
O   12.0141135   -0.0095348   -8.3086957  
C   10.8700656   -0.0075551   -6.1971478  
O   12.1441418   -0.0073920   -5.6679301  
C    9.7151989   -0.0066340   -5.4429550  
H    6.7469017   -0.0050120   -4.6713673  
H    6.8344526   -0.0009302   -8.8777898  
H    9.6379807   -0.0108319   -9.3737546  
H   12.7218799   -0.0091397   -7.6511772  
H   12.0748948   -0.0065242   -4.7083419  
H    9.7693676   -0.0058981   -4.3605765  
C    2.8699641   -0.0020527   -4.0185824  
C    4.1392628   -0.0034665   -4.4881132  
C    4.0033713   -0.0054222   -5.9365709  
C    2.5438444   -0.0050005   -6.1739832  
N    1.8743091   -0.0029473   -5.0533991  
C    1.9886062   -0.0065212   -7.4994244  
C    2.8521791   -0.0079899   -8.5403735  
O    2.4734365   -0.0095112   -9.8297884  
C    4.3304460   -0.0080811   -8.3332794  
O    5.0569388   -0.0095845   -9.3269729  
C    4.8754003   -0.0065470   -6.9639918  
H    5.0547096   -0.0031233   -3.9215163  
H    0.9180298   -0.0063778   -7.6435631  
H    3.3075357   -0.0102813  -10.3332091  
C    3.2573673   -0.0002921   -1.5109381  
C    2.5379469   -0.0001710   -0.3591962  
C    1.1435042    0.0000332   -0.7338498  
C    1.1092607   -0.0000083   -2.2088474  
N    2.4227562    0.0001908   -2.6182610  
C   -0.0265532   -0.0002523   -2.9515663  
C   -1.3003033   -0.0002639   -2.2514979  
O   -2.3786784   -0.0004132   -2.8306425  
C   -1.2877726    0.0000312   -0.6895609  
O   -2.3539956    0.0003308   -0.0892035  
C    0.0000000    0.0000000    0.0000000  
H    2.9384091   -0.0000368    0.6389240  
H   -0.0296292   -0.0004086   -4.0327231  
H    4.3270395   -0.0004765   -1.6439444  
C    2.4951002    2.0940188    2.9809380  
C    1.9440701    1.6314916    1.8291961  
C    0.8759964    0.7350050    2.2038498  
C    0.8497377    0.7130254    3.6788474  
N    1.8560616    1.5571714    4.0882609  
C   -0.0205033   -0.0168748    4.4215661  
C   -0.9962600   -0.8356168    3.7214979  
O   -1.8224391   -1.5286685    4.3006425  
C   -0.9864710   -0.8277881    2.1595606  
O   -1.8030528   -1.5133726    1.5592035  
C    0.0000000    0.0000000    1.4700000  
H    2.2509283    1.8888011    0.8310761  
H   -0.0229599   -0.0187323    5.5027230  
H    3.3143982    2.7817323    3.1139444  
H    2.0889452    1.7545833    5.0442112  
