62

C    4.9836196   -2.6114348   -7.4593140  
C    5.8752485   -2.0494662   -8.3434271  
C    5.5599869   -0.6608344   -8.4265651  
C    4.4578233   -0.4318665   -7.5635846  
N    4.1317512   -1.6374122   -6.9935372  
C    3.8789536    0.8295292   -7.3945278  
C    4.4228092    1.8789565   -8.1094417  
O    3.8964085    3.1317790   -7.9815628  
C    5.5222792    1.6704013   -8.9757491  
O    5.9493345    2.8147019   -9.6172647  
C    6.0936814    0.4262238   -9.1432229  
H    6.6560559   -2.5758701   -8.8651869  
H    3.3944507   -1.7842045   -6.3280894  
H    4.4160304    3.7064823   -8.5586020  
H    6.6938950    2.5867500  -10.1823040  
H    6.9350410    0.2970816   -9.8139791  
H    4.8870101   -3.6302558   -7.1252065  
C    2.8434396   -0.7174319   -3.3295212  
C    3.4705723   -0.4665766   -4.5279551  
C    2.6462645    0.4501927   -5.2453468  
C    1.5204238    0.7253686   -4.4276141  
N    1.6707636   -0.0012343   -3.2725974  
C    0.4959244    1.5928957   -4.8182368  
C    0.6101835    2.1938123   -6.0567931  
O   -0.3616143    3.0499771   -6.4876105  
C    1.7257479    1.9316205   -6.8872078  
O    1.6939058    2.6061784   -8.0902458  
C    2.7366814    1.0756865   -6.5026083  
H    4.4064340   -0.8928629   -4.8464453  
H   -0.3648220    1.8066981   -4.1996853  
H   -0.0899714    3.3526643   -7.3638847  
H    2.4822851    2.3736945   -8.5902582  
H    3.1391408   -1.3516748   -2.5114405  
C    1.0965514    0.0001358   -0.8010306  
C    0.0000000    0.0000000    0.0000000  
C   -1.1546565    0.0001470   -0.8669508  
C   -0.6372019    0.0003520   -2.2486278  
N    0.7342867    0.0007338   -2.1395012  
C   -1.4147744    0.0001354   -3.3608712  
C   -2.8576052   -0.0001047   -3.1854454  
O   -3.6427785   -0.0002490   -4.1244896  
C   -3.4275841   -0.0000727   -1.7311660  
O   -4.6406832    0.0000333   -1.5710049  
C   -2.4891868   -0.0001090   -0.6116739  
H   -1.0150456    0.0001617   -4.3654239  
H   -2.8919122   -0.0002919    0.3920871  
H    2.1388270    0.0000663   -0.5261650  
C    0.8400945    0.7047457    2.2710304  
C    0.0000000    0.0000000    1.4700000  
C   -0.8844236   -0.7423113    2.3369512  
C   -0.4878984   -0.4098547    3.7186280  
N    0.5629682    0.4714286    3.6095011  
C   -1.0836927   -0.9095027    4.8308716  
C   -2.1891196   -1.8367527    4.6554461  
O   -2.7906899   -2.3413415    5.5944904  
C   -2.6257283   -2.2031529    3.2011665  
O   -3.5549479   -2.9829990    3.0410059  
C   -1.9068976   -1.5999348    2.0816745  
H   -0.7774656   -0.6525820    5.8354244  
H   -2.2155208   -1.8586617    1.0779135  
H    1.6384792    1.3747609    1.9961646  
H    1.0518368    0.8833920    4.3830260  
