60

C    2.8725415   -3.3838174   -8.6849064  
C    2.4843054   -2.1203324   -8.3036623  
C    2.6130278   -1.2815128   -9.4501409  
C    3.0877678   -2.0955655  -10.5102657  
N    3.2364447   -3.3657124  -10.0110267  
C    3.3308042   -1.5991380  -11.7945099  
C    3.0899210   -0.2565346  -12.0126140  
O    3.3101001    0.2801891  -13.2481156  
C    2.6164798    0.5719497  -10.9674906  
O    2.4257540    1.8857881  -11.3427163  
C    2.3767563    0.0829479   -9.7002352  
H    3.5488945   -4.1626272  -10.5357008  
H    3.6927799   -2.2143169  -12.6067477  
H    3.0825977    1.2168424  -13.1834030  
H    2.1056047    2.3766034  -10.5796911  
H    2.0144117    0.7417637   -8.9197573  
H    2.9200256   -4.2961751   -8.1154275  
C    2.5185218   -2.1418784   -5.7664424  
C    2.0285782   -1.7344766   -6.9604095  
C    0.9435061   -0.8236411   -6.6295061  
C    0.9168305   -0.7971604   -5.1512734  
N    1.8378571   -1.5679055   -4.6397540  
C   -0.0307352   -0.0004646   -4.4215603  
C   -0.9113601    0.7365843   -5.1361187  
O   -1.8501209    1.5254492   -4.5861545  
C   -0.9094202    0.7313056   -6.6288105  
O   -1.7398706    1.4264149   -7.2139564  
C    0.0724713   -0.0942327   -7.3542759  
H   -2.3197102    1.9176027   -5.3443459  
H    0.0410970   -0.0704047   -8.4353302  
H    3.3327630   -2.8241129   -5.5805892  
C    3.2573670   -0.0002920   -1.5109380  
C    2.5379468   -0.0001709   -0.3591961  
C    1.1435043    0.0000332   -0.7338500  
C    1.1092609   -0.0000082   -2.2088477  
N    2.4227562    0.0001909   -2.6182613  
C   -0.0265532   -0.0002522   -2.9515663  
C   -1.3003035   -0.0002639   -2.2514981  
O   -2.3786784   -0.0004131   -2.8306429  
C   -1.2877725    0.0000312   -0.6895608  
O   -2.3539958    0.0003307   -0.0892036  
C    0.0000000    0.0000000    0.0000000  
H    2.9384091   -0.0000369    0.6389239  
H    4.3270394   -0.0004765   -1.6439446  
H    2.7280494   -0.0013406   -3.5742113  
C    2.3971438    2.0127888    3.1728260  
C    1.9431056    1.6308205    1.9564670  
C    0.8496017    0.7127664    2.2356185  
C    0.7794028    0.6545384    3.7115134  
N    1.6840587    1.4146091    4.2663826  
C   -0.1885723   -0.1578550    4.3957118  
C   -1.0476298   -0.8789867    3.6398520  
O   -2.0015663   -1.6796266    4.1448486  
C   -1.0022026   -0.8410666    2.1483229  
O   -1.8147390   -1.5232959    1.5241687  
C    0.0000000    0.0000000    1.4700000  
H    2.3054237    1.9346118    0.9892483  
H   -0.2170646   -0.1815267    5.4753125  
H   -2.4487139   -2.0549881    3.3649027  
H    3.2048689    2.6911772    3.3971983  
