64

C   -0.1496419   -0.0015608   -4.3176960  
C    0.8570954   -0.0030494   -5.2552167  
C    0.2320380   -0.0039079   -6.5373640  
C   -1.1692068   -0.0025862   -6.3172802  
N   -1.3663830   -0.0031293   -4.9587010  
C   -2.0987845   -0.0026542   -7.3616339  
C   -1.6048148   -0.0037754   -8.6516611  
O   -2.4683522   -0.0035424   -9.7086928  
C   -0.2100868   -0.0054781   -8.8915533  
O    0.1236720   -0.0068615  -10.2301896  
C    0.7075430   -0.0056852   -7.8617567  
H    1.9121937   -0.0045704   -5.0413049  
H   -2.2604167    0.0081046   -4.5020188  
H   -1.9234611   -0.0047519  -10.5064126  
H    1.0828811   -0.0079362  -10.3044899  
H    1.7698133   -0.0071883   -8.0763680  
C    3.3003545    0.0005277   -1.4738989  
C    2.5232812    0.0003500   -2.6090747  
C    1.1623199   -0.0001317   -2.1820100  
C    1.1711884    0.0000584   -0.7636136  
N    2.4852300   -0.0014919   -0.3662361  
C    0.0000000    0.0000000    0.0000000  
C   -1.2020383    0.0000521   -0.6806475  
O   -2.3759249    0.0003495    0.0157745  
C   -1.2314659   -0.0005110   -2.0955509  
O   -2.5054394   -0.0008034   -2.6250176  
C   -0.0764520   -0.0007270   -2.8495192  
H    2.8919955   -0.0005617   -3.6205298  
H    2.8036268    0.0088181    0.5858662  
H   -3.0835640    0.0000349   -0.6418811  
H   -2.4360053   -0.0011523   -3.5845914  
H    4.3715548    0.0004896   -1.3667139  
C   -4.6316192    2.1220366   -4.4240641  
C   -5.8431813    1.6232686   -4.8433673  
C   -5.5768696    0.7479408   -5.9376611  
C   -4.1732689    0.7523725   -6.1421410  
N   -3.6299088    1.5984229   -5.2074880  
C   -3.5523787   -0.0014865   -7.1426311  
C   -4.3631563   -0.7741251   -7.9512392  
O   -3.8089835   -1.5299387   -8.9435358  
C   -5.7656941   -0.7914973   -7.7630818  
O   -6.4352536   -1.6102604   -8.6488931  
C   -6.3789258   -0.0478391   -6.7764485  
H   -6.8011876    1.8619235   -4.4141110  
H   -2.6509682    1.7945618   -5.1017222  
H   -4.5404124   -1.9843220   -9.3814998  
H   -7.3761961   -1.5645714   -8.4535889  
H   -7.4554765   -0.0812137   -6.6564344  
H   -4.4028945    2.8109666   -3.6290677  
C    2.5528530    2.1414826    2.8079335  
C    2.0663498    1.7338582    4.0032312  
C    0.9804344    0.8229586    3.6752840  
C    0.9495562    0.7966882    2.1971295  
N    1.8690446    1.5676019    1.6831036  
C    0.0000000    0.0000000    1.4700000  
C   -0.8785127   -0.7372425    2.1869543  
O   -1.8187535   -1.5261249    1.6395491  
C   -0.8723269   -0.7321790    3.6796354  
O   -1.7010379   -1.4274584    4.2670412  
C    0.1115397    0.0933559    4.4024240  
H    2.4028853    2.0163452    4.9860947  
H   -2.2861435   -1.9184361    2.3990168  
H    0.0832434    0.0693689    5.4835595  
H    3.3664920    2.8238276    2.6198634  
