60

C    3.5067131   -2.9364728   -6.4406617  
C    4.3401369   -3.6353483   -5.5983763  
C    5.2308606   -4.3854678   -6.4221073  
C    4.8904653   -4.1015102   -7.7694845  
N    3.8384521   -3.2198766   -7.7448785  
C    5.5639275   -4.6690203   -8.8553804  
C    6.6000844   -5.5387963   -8.5760180  
O    7.2915662   -6.1208739   -9.5987861  
C    6.9543966   -5.8349457   -7.2382685  
O    8.0071399   -6.7193737   -7.1248597  
C    6.2902721   -5.2756600   -6.1665114  
H    4.3091153   -3.6087268   -4.5225872  
H    3.3888596   -2.8301059   -8.5535351  
H    5.3092647   -4.4568013   -9.8846092  
H    7.9618475   -6.6836069   -9.1897398  
H    8.1823212   -6.8654440   -6.1902051  
H    6.5841106   -5.5216123   -5.1527837  
C    2.4064707   -2.0119089   -6.1315522  
C    1.9558554   -1.6301628   -4.9138516  
C    0.8614677   -0.7121811   -5.1897589  
C    0.7870647   -0.6537478   -6.6654397  
N    1.6902162   -1.4136452   -7.2229896  
C   -0.1829361    0.1586444   -7.3467641  
C   -1.0399141    0.8795786   -6.5883597  
O   -1.9953657    1.6801932   -7.0905249  
C   -0.9902402    0.8414484   -5.0969715  
O   -1.8010677    1.5235041   -4.4704098  
C    0.0139741    0.0003876   -4.4216236  
H    2.3209548   -1.9340559   -3.9477113  
H   -0.2145021    0.1824686   -8.4262756  
H   -2.4403313    2.0553964   -6.3092559  
C    3.2798085    0.0005853   -1.4499648  
C    2.5571144    0.0005562   -2.5996554  
C    1.1637436    0.0001546   -2.2210360  
C    1.1336965   -0.0000201   -0.7459470  
N    2.4483513   -0.0001430   -0.3402717  
C    0.0000000    0.0000000    0.0000000  
C   -1.2757367   -0.0000188   -0.6964414  
O   -2.3524597   -0.0000640   -0.1142313  
C   -1.2676494   -0.0000875   -2.2584081  
O   -2.3355762   -0.0004102   -2.8557294  
C    0.0181562    0.0001757   -2.9516296  
H    2.9547357    0.0006072   -3.5989105  
H    4.3498550    0.0008609   -1.3200021  
H    2.7563627    0.0012824    0.6148063  
C    2.4951002    2.0940188    2.9809380  
C    1.9440701    1.6314916    1.8291961  
C    0.8759964    0.7350050    2.2038498  
C    0.8497377    0.7130254    3.6788474  
N    1.8560616    1.5571714    4.0882609  
C   -0.0205033   -0.0168748    4.4215661  
C   -0.9962600   -0.8356168    3.7214979  
O   -1.8224391   -1.5286685    4.3006425  
C   -0.9864710   -0.8277881    2.1595606  
O   -1.8030528   -1.5133726    1.5592035  
C    0.0000000    0.0000000    1.4700000  
H    2.2509283    1.8888011    0.8310761  
H   -0.0229599   -0.0187323    5.5027230  
H    3.3143982    2.7817323    3.1139444  
H    2.0889452    1.7545833    5.0442112  
