62

C    0.0000000    0.0000000    0.0000000  
C    0.8621497    0.6031213   -0.8862343  
C    0.4032859    0.2813405   -2.1979132  
C   -0.7524054   -0.5272325   -2.0478683  
N   -0.9683057   -0.6801648   -0.7007911  
C   -1.4703979   -1.0298385   -3.1372088  
C   -1.0135774   -0.7101231   -4.4010420  
O   -1.6772179   -1.1742570   -5.4997579  
C    0.1378032    0.0949773   -4.5711965  
O    0.4657094    0.3240488   -5.8915550  
C    0.8467704    0.5909314   -3.4969891  
H    1.7173002    1.2004981   -0.6200565  
H   -1.7244247   -1.1967334   -0.2891825  
H   -2.3518927   -1.6467489   -3.0295510  
H   -1.1986111   -0.8397205   -6.2693595  
H    1.2538358    0.8751930   -5.9180047  
C    4.7655181    0.7793126   -1.4710666  
C    3.5001386    0.4582432   -1.8449712  
C    3.1604362    1.3128293   -2.9581290  
C    4.3401017    2.1641756   -3.2038716  
N    5.2777827    1.7913287   -2.2686556  
C    4.4181769    3.1078593   -4.1760189  
C    3.2631954    3.2978709   -5.0376728  
O    3.2351615    4.1224991   -5.9418318  
C    2.0029598    2.4074446   -4.7952825  
O    1.0244141    2.5585815   -5.5142169  
C    2.0381675    1.4237045   -3.7159924  
H    2.8758788   -0.2915423   -1.3924951  
H    5.2930645    3.7216578   -4.3395231  
H    5.3668374    0.3619060   -0.6798167  
C    6.6198204    2.3771365   -2.1395629  
C    7.5864173    2.0576002   -1.2478425  
C    8.6983725    2.9394160   -1.5679307  
C    8.2173373    3.7463739   -2.7098624  
N    6.9995263    3.4213018   -3.0493526  
C    9.0359841    4.7519234   -3.3293577  
C   10.2785536    4.9429181   -2.8304842  
O   11.1494223    5.8467748   -3.3107677  
C   10.7926869    4.1447315   -1.6786485  
O   11.9337336    4.3720629   -1.2767109  
C    9.9337562    3.1190882   -1.0604106  
H    7.5493895    1.3152491   -0.4689845  
H    8.6588810    5.3267223   -4.1626098  
H   11.9424899    5.7473045   -2.7537202  
H   10.3432009    2.5624532   -0.2280992  
C    3.3041272   -0.0001177    3.0120429  
C    2.5845372    0.0004780    1.8395852  
C    1.2040006    0.0000008    2.1983588  
C    1.1422373   -0.0006037    3.6154372  
N    2.4348639   -0.0026109    4.0777464  
C   -0.0655181   -0.0008797    4.3197917  
C   -1.2321768   -0.0002324    3.5801400  
O   -2.4392816   -0.0001146    4.2172520  
C   -1.1911209    0.0000007    2.1655264  
O   -2.4371527    0.0002320    1.5732860  
C    0.0000000    0.0000000    1.4700000  
H    3.0031534    0.0000661    0.8477417  
H    2.7054629    0.0071099    5.0445261  
H   -0.1193549   -0.0014844    5.3997470  
H   -3.1132988    0.0000648    3.5251786  
H   -2.3200282    0.0004071    0.6183591  
H    4.3686625   -0.0004071    3.1724291  
