64

C    2.4675469   -1.8387512   -7.7211594  
C    3.5612412   -2.6577224   -7.8811163  
C    3.9492597   -2.5713656   -9.2510007  
C    3.0480956   -1.6768848   -9.8832452  
N    2.1601707   -1.2519349   -8.9263630  
C    3.1317326   -1.3528780  -11.2407479  
C    4.1437064   -1.9423522  -11.9732814  
O    4.2713554   -1.6607439  -13.3027235  
C    5.0523819   -2.8376713  -11.3604766  
O    6.0033413   -3.3418421  -12.2235139  
C    4.9703041   -3.1579799  -10.0213756  
H    4.0219600   -3.2459624   -7.1060643  
H    1.4102731   -0.6018933   -9.0782863  
H    2.4479238   -0.6719974  -11.7286107  
H    5.0293953   -2.1698356  -13.6181063  
H    6.5763719   -3.9370473  -11.7305933  
H    5.6805349   -3.8472422   -9.5798242  
C    1.8886554   -2.0886686   -5.2633577  
C    0.9763566   -1.6271610   -4.3696034  
C    0.1009361   -0.7303188   -5.0866450  
C    0.5814325   -0.7070197   -6.4814099  
N    1.6673587   -1.5508187   -6.5221206  
C    0.0179872    0.0235611   -7.4766416  
C   -1.1387597    0.8416957   -7.1524079  
O   -1.7168203    1.5352810   -7.9788982  
C   -1.6645099    0.8324699   -5.6815895  
O   -2.6375204    1.5175330   -5.3966331  
C   -0.9736297    0.0040464   -4.6965763  
H    0.9228834   -1.8853689   -3.3269704  
H    0.3859649    0.0263856   -8.4932501  
H    2.7041548   -2.7762785   -5.1082997  
C    1.1188642    0.0008222   -0.8003808  
C    0.0000000    0.0000000    0.0000000  
C   -1.1323862    0.0008899   -0.8673528  
C   -0.6382663    0.0019679   -2.1969280  
N    0.7324016    0.0038481   -2.1202242  
C   -1.4770914    0.0027318   -3.3154808  
C   -2.8395473    0.0020945   -3.0876857  
O   -3.7039201    0.0024425   -4.1440349  
C   -3.3517868    0.0013931   -1.7684331  
O   -4.7300497    0.0012366   -1.7073121  
C   -2.5248543    0.0009123   -0.6644817  
H    1.3576314   -0.0056167   -2.9057046  
H   -4.5940032    0.0021826   -3.7685128  
H   -4.9934602    0.0007259   -0.7819913  
H   -2.9462577    0.0005603    0.3339659  
H    2.1619895    0.0009355   -0.5342068  
C    2.5285572    2.1210227    2.9438989  
C    1.9331703    1.6216660    4.0790748  
C    0.8903039    0.7472258    3.6520102  
C    0.8972198    0.7527806    2.2336141  
N    1.9028376    1.5986179    1.8362361  
C    0.0000000    0.0000000    1.4700000  
C   -0.9207814   -0.7726952    2.1506477  
O   -1.8198395   -1.5274828    1.4542253  
C   -0.9436862   -0.7911793    3.5655508  
O   -1.9197945   -1.6098497    4.0950179  
C   -0.0590329   -0.0485852    4.3195194  
H    2.2150357    1.8593692    5.0905303  
H    2.1533708    1.7953814    0.8841339  
H   -2.3621246   -1.9821033    2.1118817  
H   -1.8668290   -1.5649508    5.0545920  
H   -0.1007624   -0.0827977    5.4019087  
H    3.3491200    2.8096064    2.8367138  
