62

C   -1.1898129    0.6853877   -8.9035196  
C   -0.2422917   -0.1319230   -9.4750727  
C   -0.4151412   -0.0448442  -10.8882749  
C   -1.4920295    0.8483460  -11.1216172  
N   -1.9407023    1.2718641   -9.8952644  
C   -1.9410371    1.1726162  -12.4053745  
C   -1.2908949    0.5847375  -13.4730312  
O   -1.6884010    0.8666723  -14.7479872  
C   -0.2146082   -0.3092775  -13.2605202  
O    0.3286284   -0.8119314  -14.4248128  
C    0.2287057   -0.6298450  -11.9943313  
H    0.4834052   -0.7195488   -8.9392998  
H   -2.6917966    1.9207936   -9.7445039  
H   -2.7613302    1.8525180  -12.5899124  
H   -1.1109499    0.3587521  -15.3326521  
H    1.0486302   -1.4063249  -14.1926551  
H    1.0554373   -1.3180845  -11.8627271  
C    0.6776452   -0.7282731   -5.1604460  
C    0.3570661   -0.5122897   -6.4622354  
C   -0.7499175    0.4146732   -6.4749881  
C   -1.0501130    0.7232608   -5.0638020  
N   -0.1496415   -0.0015615   -4.3176961  
C   -2.0330248    1.5639237   -4.6528578  
C   -2.8499161    2.2075898   -5.6681992  
O   -3.7597007    2.9811069   -5.3993808  
C   -2.5498367    1.8951554   -7.1689130  
O   -3.2311608    2.4309172   -8.0326357  
C   -1.4636366    0.9719956   -7.4879710  
H    0.8407331   -0.9522738   -7.3161052  
H   -2.2366044    1.7767220   -3.6125778  
H    1.4485165   -1.3573555   -4.7458345  
C    3.3003543    0.0005276   -1.4738987  
C    2.5232814    0.0003497   -2.6090747  
C    1.1623200   -0.0001320   -2.1820103  
C    1.1711883    0.0000582   -0.7636140  
N    2.4852300   -0.0014919   -0.3662360  
C    0.0000000    0.0000000    0.0000000  
C   -1.2020384    0.0000519   -0.6806477  
O   -2.3759249    0.0003493    0.0157743  
C   -1.2314656   -0.0005115   -2.0955510  
O   -2.5054392   -0.0008039   -2.6250180  
C   -0.0764516   -0.0007274   -2.8495195  
H    2.8919955   -0.0005620   -3.6205304  
H    2.8036267    0.0088183    0.5858662  
H   -3.0835638    0.0000347   -0.6418818  
H   -2.4360047   -0.0011529   -3.5845921  
H    4.3715549    0.0004895   -1.3667136  
C    0.0000000    0.0000000    1.4700000  
C    1.0541688    0.0001722    2.3260392  
C    0.5103138    0.0000454    3.6635956  
C   -0.9576371   -0.0002459    3.5155732  
N   -1.2018458    0.0001392    2.1615969  
C   -1.8348311   -0.0008317    4.5510609  
C   -1.2972847   -0.0009736    5.9014604  
O   -2.0050672   -0.0014265    6.9001319  
C    0.2542623   -0.0004184    6.0817573  
O    0.7184670   -0.0002256    7.2139121  
C    1.0974552   -0.0000873    4.8889129  
H    2.0940752    0.0005483    2.0517982  
H   -2.9081052   -0.0011668    4.4207061  
H    2.1707277    0.0000911    5.0223670  
H   -2.1128194   -0.0014912    1.7406791  
