64

C   10.0413406    0.7085385   -1.6884108  
C   11.3284289    0.4577365   -1.2725133  
C   11.2421957   -0.4510168   -0.1764608  
C    9.8655932   -0.7215846    0.0325522  
N    9.1640960   -0.0000562   -0.9012111  
C    9.4075702   -1.5809164    1.0358230  
C   10.3565212   -2.1782248    1.8426017  
O    9.9642779   -3.0264027    2.8374642  
C   11.7346675   -1.9205277    1.6499278  
O   12.5544180   -2.5906310    2.5344137  
C   12.1872228   -1.0726777    0.6605493  
H   12.2197528    0.8789184   -1.7051115  
H    8.3597547   -1.7911721    1.2003738  
H   10.7719088   -3.3278066    3.2735299  
H   13.4675454   -2.3616292    2.3360201  
H   13.2490535   -0.8944874    0.5370889  
H    9.6795946    1.3379281   -2.4833739  
C    6.5323605    0.0028963   -4.4466863  
C    7.6043844    0.0022108   -3.6131162  
C    7.0889174    0.0013268   -2.2643657  
C    5.6181661    0.0015260   -2.3813332  
N    5.3453988    0.0028888   -3.7298454  
C    4.7630507    0.0004755   -1.3275395  
C    5.3290148   -0.0007199    0.0111981  
O    4.6424946   -0.0016578    1.0246035  
C    6.8840253   -0.0006991    0.1586663  
O    7.3720516   -0.0013932    1.2807581  
C    7.7018219    0.0002118   -1.0517303  
H    8.6382631    0.0024951   -3.9092720  
H    6.5095817    0.0036228   -5.5243557  
H    4.4257331    0.0017847   -4.1314188  
C    3.3003548    0.0005276   -1.4738982  
C    2.5232817    0.0003497   -2.6090743  
C    1.1623204   -0.0001319   -2.1820101  
C    1.1711886    0.0000583   -0.7636140  
N    2.4852302   -0.0014919   -0.3662356  
C    0.0000000    0.0000000    0.0000000  
C   -1.2020379    0.0000520   -0.6806479  
O   -2.3759249    0.0003495    0.0157742  
C   -1.2314652   -0.0005112   -2.0955511  
O   -2.5054384   -0.0008036   -2.6250184  
C   -0.0764510   -0.0007271   -2.8495195  
H    2.8919962   -0.0005619   -3.6205297  
H    2.8036267    0.0088181    0.5858667  
H   -3.0835636    0.0000348   -0.6418823  
H   -2.4360038   -0.0011526   -3.5845925  
H   -0.1304090   -0.0013420   -3.9319089  
C    2.5285572    2.1210227    2.9438989  
C    1.9331703    1.6216660    4.0790748  
C    0.8903039    0.7472258    3.6520102  
C    0.8972198    0.7527806    2.2336141  
N    1.9028376    1.5986179    1.8362361  
C    0.0000000    0.0000000    1.4700000  
C   -0.9207814   -0.7726952    2.1506477  
O   -1.8198395   -1.5274828    1.4542253  
C   -0.9436862   -0.7911793    3.5655508  
O   -1.9197945   -1.6098497    4.0950179  
C   -0.0590329   -0.0485852    4.3195194  
H    2.2150357    1.8593692    5.0905303  
H    2.1533708    1.7953814    0.8841339  
H   -2.3621246   -1.9821033    2.1118817  
H   -1.8668290   -1.5649508    5.0545920  
H   -0.1007624   -0.0827977    5.4019087  
H    3.3491200    2.8096064    2.8367138  
