62

C    1.1188642    0.0008222   -0.8003805  
C    0.0000000    0.0000000    0.0000000  
C   -1.1323866    0.0008897   -0.8673518  
C   -0.6382672    0.0019680   -2.1969272  
N    0.7324011    0.0038482   -2.1202236  
C   -1.4770927    0.0027318   -3.3154800  
C   -2.8395487    0.0020942   -3.0876842  
O   -3.7039213    0.0024423   -4.1440332  
C   -3.3517874    0.0013925   -1.7684315  
O   -4.7300499    0.0012360   -1.7073101  
C   -2.5248545    0.0009119   -0.6644807  
H    1.3576305   -0.0056165   -2.9057042  
H   -4.5940047    0.0021823   -3.7685113  
H   -4.9934604    0.0007255   -0.7819892  
H   -2.9462581    0.0005600    0.3339675  
H    2.1619887    0.0009357   -0.5342071  
C    0.1166591   -0.7214345   -5.1522985  
C    0.3273789   -0.5035452   -6.4760039  
C   -0.6880539    0.4234400   -6.9169461  
C   -1.5135300    0.7299635   -5.7331290  
N   -0.9736314    0.0040464   -4.6965756  
C   -2.5793583    1.5700283   -5.7355896  
C   -2.9375183    2.2151830   -6.9878006  
O   -3.8806713    2.9883097   -7.0928574  
C   -2.0773346    1.9049439   -8.2541498  
O   -2.3694906    2.4419718   -9.3141059  
C   -0.9520291    0.9822474   -8.1269828  
H    1.1052538   -0.9422812   -7.0751997  
H   -3.1715431    1.7813050   -4.8560506  
H    0.6660022   -1.3511263   -4.4714163  
C   -0.1491658    0.6977102   -9.3250431  
C    0.9259275   -0.1171245   -9.4336640  
C    1.3255178   -0.0267838  -10.8296101  
C    0.3561763    0.9116949  -11.4347711  
N   -0.5106440    1.3397605  -10.5576338  
C    0.4116143    1.2713146  -12.8249824  
C    1.3911411    0.7188220  -13.5763904  
O    1.5613097    0.9649705  -14.8865411  
C    2.3846170   -0.2313435  -12.9947098  
O    3.2491128   -0.6959697  -13.7376701  
C    2.3066859   -0.5844867  -11.5660256  
H    1.3904902   -0.7066084   -8.6618046  
H   -0.3098354    1.9594755  -13.2407401  
H    2.3349740    0.4302506  -15.1408456  
H    3.0450424   -1.2761765  -11.1831095  
C    0.8576279    0.7185626    2.2703808  
C    0.0000000    0.0000000    1.4700000  
C   -0.8668858   -0.7285659    2.3373528  
C   -0.4876752   -0.4117774    3.6669281  
N    0.5635254    0.4678311    3.5902241  
C   -1.1297612   -0.9515493    4.7854808  
C   -2.1738724   -1.8268314    4.5576857  
O   -2.8357962   -2.3827064    5.6140350  
C   -2.5667212   -2.1555554    3.2384331  
O   -3.6226318   -3.0413663    3.1773122  
C   -1.9335634   -1.6236449    2.1344818  
H    1.0363952    0.8769718    4.3757045  
H   -0.8454472   -0.7142436    5.8013813  
H   -3.5178062   -2.9546422    5.2385129  
H   -3.8247440   -3.2102924    2.2519915  
H   -2.2566033   -1.8942483    1.1360343  
H    1.6567807    1.3889844    2.0042067  
