62

C   -0.4450417   -0.9008579   -9.5250247  
C   -0.5998999   -0.4995562  -10.8317164  
C   -0.8568579    0.9033142  -10.8087630  
C   -0.8465109    1.3061451   -9.4487824  
N   -0.5955533    0.1859783   -8.6958786  
C   -1.0649233    2.6282756   -9.0499635  
C   -1.2977260    3.5607922  -10.0421303  
O   -1.5167037    4.8660466   -9.7084036  
C   -1.3123312    3.1782296  -11.4045722  
O   -1.5582608    4.2221171  -12.2724220  
C   -1.0972091    1.8740481  -11.7987275  
H   -0.5366577   -1.1394534  -11.6951541  
H   -1.0584645    2.9416967   -8.0151074  
H   -1.6556283    5.3404747  -10.5383929  
H   -1.5511194    3.8786530  -13.1710792  
H   -1.1145480    1.6109142  -12.8498887  
H   -0.2405536   -1.8766191   -9.1187813  
C    2.1601070   -2.0149550   -6.1366355  
C    1.7671250   -1.6323649   -4.8993931  
C    0.6609145   -0.7146342   -5.1242671  
C    0.5173091   -0.6572542   -6.5948687  
N    1.3933523   -1.4175031   -7.1936666  
C   -0.4836762    0.1546051   -7.2304781  
C   -1.3041637    0.8760360   -6.4331878  
O   -2.2822035    1.6762455   -6.8905098  
C   -1.1845243    0.8389691   -4.9457490  
O   -1.9650989    1.5214301   -4.2822952  
C   -0.1496415   -0.0015615   -4.3176961  
H    2.1772048   -1.9355528   -3.9512438  
H   -2.6900308    2.0519823   -6.0894782  
H    2.9557803   -2.6933491   -6.4005662  
C    3.3003543    0.0005276   -1.4738987  
C    2.5232814    0.0003497   -2.6090747  
C    1.1623200   -0.0001320   -2.1820103  
C    1.1711883    0.0000582   -0.7636140  
N    2.4852300   -0.0014919   -0.3662360  
C    0.0000000    0.0000000    0.0000000  
C   -1.2020384    0.0000519   -0.6806477  
O   -2.3759249    0.0003493    0.0157743  
C   -1.2314656   -0.0005115   -2.0955510  
O   -2.5054392   -0.0008039   -2.6250180  
C   -0.0764516   -0.0007274   -2.8495195  
H    2.8919955   -0.0005620   -3.6205304  
H    2.8036267    0.0088183    0.5858662  
H   -3.0835638    0.0000347   -0.6418818  
H   -2.4360047   -0.0011529   -3.5845921  
H    4.3715549    0.0004895   -1.3667136  
C    2.4951002    2.0940188    2.9809380  
C    1.9440701    1.6314916    1.8291961  
C    0.8759964    0.7350050    2.2038498  
C    0.8497377    0.7130254    3.6788474  
N    1.8560616    1.5571714    4.0882609  
C   -0.0205033   -0.0168748    4.4215661  
C   -0.9962600   -0.8356168    3.7214979  
O   -1.8224391   -1.5286685    4.3006425  
C   -0.9864710   -0.8277881    2.1595606  
O   -1.8030528   -1.5133726    1.5592035  
C    0.0000000    0.0000000    1.4700000  
H    2.2509283    1.8888011    0.8310761  
H   -0.0229599   -0.0187323    5.5027230  
H    3.3143982    2.7817323    3.1139444  
H    2.0889452    1.7545833    5.0442112  
