60

C   -4.5893543    3.7026937    1.9126715  
C   -3.7730325    3.0700583    1.0039033  
C   -2.4385047    3.4922295    1.2785056  
C   -2.5031708    4.3896534    2.3750341  
N   -3.8238162    4.4965381    2.7343237  
C   -1.3702953    5.0036137    2.9176526  
C   -0.1498738    4.7059767    2.3430557  
O    0.9883675    5.2773986    2.8338687  
C   -0.0649725    3.8133361    1.2481579  
O    1.2208842    3.6197310    0.7872533  
C   -1.1821975    3.2074941    0.7121641  
H   -4.1763381    5.0564146    3.4894707  
H   -1.4128961    5.6886161    3.7532117  
H    1.7169137    4.9396606    2.2968232  
H    1.1897034    3.0043901    0.0483439  
H   -1.0860437    2.5282671   -0.1268134  
H   -5.6572612    3.6515719    2.0388433  
C   -4.2186876    2.1401316   -0.0437264  
C   -5.4804255    1.7323137   -0.3144299  
C   -5.3466902    0.8217457   -1.4411423  
C   -3.8965667    0.7958595   -1.7293374  
N   -3.2302264    1.5666941   -0.9133756  
C   -3.3460097   -0.0004262   -2.7913647  
C   -4.2050300   -0.7376509   -3.5315801  
O   -3.8298201   -1.5261790   -4.5530897  
C   -5.6737588   -0.7329696   -3.2651715  
O   -6.3965398   -1.4282093   -3.9789291  
C   -6.2140639    0.0921557   -2.1701087  
H   -6.3895971    2.0144730    0.1884314  
H   -4.6590772   -1.9185774   -4.8809756  
H   -7.2835617    0.0678998   -2.0094328  
C    0.0000000    0.0000000    0.0000000  
C    1.0662919   -0.0000103   -0.8334272  
C    0.4961868    0.0000066   -2.1718889  
C   -0.9663860   -0.0000849   -1.9540248  
N   -1.2632775   -0.0000084   -0.6828659  
C   -1.8985364   -0.0000515   -3.0477258  
C   -1.3925778    0.0004567   -4.3020543  
O   -2.1456385    0.0005412   -5.4151314  
C    0.0786229    0.0009326   -4.5544999  
O    0.4683756    0.0012594   -5.7221104  
C    1.0143162    0.0008443   -3.4159034  
H    2.1107195    0.0000631   -0.5721869  
H   -1.5042277    0.0009692   -6.1484420  
H    2.0724151    0.0013151   -3.6409746  
C    1.0965515   -0.0001358    2.2710304  
C    0.0000000    0.0000000    1.4700000  
C   -1.1546562   -0.0001469    2.3369512  
C   -0.6372014   -0.0003519    3.7186280  
N    0.7342871   -0.0007337    3.6095011  
C   -1.4147739   -0.0001353    4.8308716  
C   -2.8576048    0.0001048    4.6554461  
O   -3.6427778    0.0002493    5.5944904  
C   -3.4275839    0.0000726    3.2011665  
O   -4.6406829   -0.0000333    3.0410059  
C   -2.4891866    0.0001091    2.0816745  
H   -1.0150448   -0.0001615    5.8354244  
H   -2.8919121    0.0002919    1.0779135  
H    2.1388271   -0.0000662    1.9961646  
H    1.3735872    0.0006099    4.3830260  
