62

C    5.4709412   -3.6183563   -1.1369728  
C    5.5418868   -3.0082248   -2.3678969  
C    6.7405289   -3.4659975   -2.9910360  
C    7.3647758   -4.3613853   -2.0852092  
N    6.5686409   -4.4296251   -0.9689068  
C    8.5722875   -5.0059443   -2.3702481  
C    9.1601841   -4.7420370   -3.5920948  
O   10.3396281   -5.3447731   -3.9216891  
C    8.5529116   -3.8514158   -4.5090626  
O    9.2615292   -3.6927450   -5.6821046  
C    7.3618128   -3.2149804   -4.2284203  
H    6.7510329   -4.9952094   -0.1596923  
H    9.0532569   -5.6893565   -1.6840862  
H   10.5715985   -5.0267423   -4.8039072  
H    8.7834296   -3.0763961   -6.2452551  
H    6.9206478   -2.5378711   -4.9504830  
H    4.7249050   -3.5379234   -0.3650149  
C    4.5551378   -2.0647519   -2.9129532  
C    3.4069296   -1.6070135   -2.3506646  
C    2.8049832   -0.7012744   -3.3004708  
C    3.7030475   -0.6686463   -4.4706023  
N    4.7450051   -1.5160897   -4.1721835  
C    3.4850372    0.0719025   -5.5867395  
C    2.2859703    0.8916869   -5.6389642  
O    2.0005473    1.5939527   -6.6000353  
C    1.3208820    0.8726932   -4.4109377  
O    0.3083943    1.5590471   -4.4433024  
C    1.6628945    0.0339172   -3.2649299  
H    3.0252950   -1.8733122   -1.3811009  
H    4.1564388    0.0814618   -6.4341106  
H    5.5224748   -1.7081418   -4.7769179  
C    1.1243410    0.0100105   -0.7919003  
C    0.7474072    0.0234665   -2.1148542  
C   -0.6787384    0.0234379   -2.1414698  
C   -1.1201748    0.0098411   -0.7935547  
N    0.0000000    0.0000000    0.0000000  
C   -2.4730818    0.0063307   -0.4408240  
C   -3.3971962    0.0170429   -1.4675058  
O   -4.7313520    0.0145490   -1.1793468  
C   -2.9763654    0.0303020   -2.8186325  
O   -4.0166484    0.0394464   -3.7247625  
C   -1.6418567    0.0334992   -3.1673480  
H   -2.8160166   -0.0041569    0.5845966  
H   -5.1938823    0.0230023   -2.0274386  
H   -3.6464680    0.0481700   -4.6127343  
H   -1.3497475    0.0435647   -4.2109234  
H    2.1062466    0.0053162   -0.3505405  
C    0.8175213    0.6860729    2.3021913  
C    0.0000000    0.0000000    1.4700000  
C   -0.8887526   -0.7456559    2.3478473  
C   -0.4549825   -0.3816753    3.7138435  
N    0.5448156    0.4573574    3.6934124  
C   -1.0945674   -0.9182058    4.8835240  
C   -2.1210866   -1.7789155    4.6970523  
O   -2.8083856   -2.3554314    5.6976972  
C   -2.5824069   -2.1655116    3.3310774  
O   -3.5227682   -2.9541547    3.2362962  
C   -1.9100805   -1.6015804    2.1470656  
H   -0.7567140   -0.6349833    5.8697035  
H   -3.4728268   -2.9124471    5.2533954  
H   -2.2742832   -1.9066565    1.1752040  
H    1.6189533    1.3585343    2.0405121  
