62

C    2.1528779   -1.8455356   -8.4934318  
C    3.1069918   -2.6650057   -9.0507491  
C    2.9537495   -2.5796610  -10.4663169  
C    1.8814770   -1.6852548  -10.7157064  
N    1.4165724   -1.2593740   -9.4962369  
C    1.4506653   -1.3621415  -12.0059731  
C    2.1145949   -1.9524491  -13.0637588  
O    1.7350969   -1.6717325  -14.3444591  
C    3.1865518   -2.8477086  -12.8352068  
O    3.7450412   -3.3527735  -13.9912104  
C    3.6119180   -3.1671358  -11.5625892  
H    3.8243855   -3.2529202   -8.5042177  
H    0.6644171   -0.6091566   -9.3567338  
H    0.6339806   -0.6813227  -12.2027343  
H    2.3198065   -2.1813000  -14.9204112  
H    4.4609124   -3.9478734  -13.7483345  
H    4.4357569   -3.8563754  -11.4186581  
C    2.5365544   -2.0936799   -5.9975191  
C    2.0254115   -1.6312727   -4.8274817  
C    0.9452520   -0.7345685   -5.1651398  
C    0.8684333   -0.7123308   -6.6383653  
N    1.8600007   -1.5565501   -7.0821874  
C   -0.0266555    0.0178219   -7.3506841  
C   -0.9777107    0.8365828   -6.6174311  
O   -1.8231599    1.5298524   -7.1677885  
C   -0.9143685    0.8284831   -5.0567494  
O   -1.7097814    1.5140808   -4.4286293  
C    0.0950446    0.0004351   -4.4015596  
H    2.3662773   -1.8887982   -3.8405139  
H   -0.0661842    0.0198663   -8.4311199  
H    3.3507073   -2.7814875   -6.1586566  
C    3.3321173    0.0004713   -1.3379338  
C    2.6974181    0.0000116   -2.5332314  
C    1.2800438   -0.0002119   -2.2052841  
C    1.2395034    0.0000643   -0.7271299  
N    2.4394062    0.0005460   -0.2131038  
C    0.0000000    0.0000000    0.0000000  
C   -1.1468702    0.0000634   -0.7169543  
O   -2.3742203    0.0000074   -0.1695487  
C   -1.1388770    0.0001607   -2.2096355  
O   -2.2206234    0.0000905   -2.7970411  
C    0.1454522    0.0001815   -2.9324241  
H    3.1367984   -0.0000653   -3.5160950  
H   -2.9844346    0.0001026   -0.9290167  
H    4.3940038    0.0007618   -1.1498640  
C    0.8676693    0.7151171    2.2619005  
C    0.5875920    0.4624972    3.5848544  
C   -0.5048400   -0.4542819    3.6114698  
C   -0.8517165   -0.7276451    2.2635546  
N    0.0000000    0.0000000    1.4700000  
C   -1.8902865   -1.5946756    1.9108239  
C   -2.5912627   -2.1969500    2.9375057  
O   -3.6148162   -3.0527051    2.6493466  
C   -2.2603868   -1.9365747    4.2886322  
O   -3.0513550   -2.6123276    5.1947621  
C   -1.2361111   -1.0811317    4.6373480  
H    1.1060808    0.8876438    4.4271209  
H   -2.1597133   -1.8070987    0.8854031  
H   -3.9636755   -3.3565188    3.4974381  
H   -2.7621927   -2.3810384    6.0827341  
H   -1.0058879   -0.9010589    5.6809233  
H    1.6167816    1.3499334    1.8205408  
