62

C    3.3041274    0.0001181   -1.5420434  
C    2.5845372   -0.0004778   -0.3695856  
C    1.2040005   -0.0000006   -0.7283592  
C    1.1422372    0.0006041   -2.1454374  
N    2.4348641    0.0026115   -2.6077465  
C   -0.0655182    0.0008801   -2.8497921  
C   -1.2321768    0.0002327   -2.1101401  
O   -2.4392816    0.0001151   -2.7472519  
C   -1.1911210   -0.0000005   -0.6955263  
O   -2.4371523   -0.0002319   -0.1032864  
C    0.0000000    0.0000000    0.0000000  
H    3.0031537   -0.0000661    0.6222577  
H    2.7054629   -0.0071092   -3.5745263  
H   -3.1132988   -0.0000646   -2.0551790  
H   -2.3200280   -0.0004071    0.8516406  
H    4.3686616    0.0004075   -1.7024299  
C    2.3446864   -2.1385754   -5.7825621  
C    1.7992122   -1.7303697   -6.9519230  
C    0.7308347   -0.8198476   -6.5697990  
C    0.7735869   -0.7944094   -5.0919258  
N    1.7176438   -1.5654461   -4.6247553  
C   -0.1387083    0.0017023   -4.3179685  
C   -1.0519390    0.7391886   -4.9898745  
O   -1.9638776    1.5275968   -4.3958871  
C   -1.1200796    0.7349610   -6.4810152  
O   -1.9771139    1.4304208   -7.0260369  
C   -0.1732959   -0.0899936   -7.2523614  
H    2.0864369   -2.0122467   -7.9504836  
H   -2.4685604    1.9202491   -5.1309192  
H    3.1667832   -2.8208802   -5.6356228  
C    0.1597488   -3.2291539  -10.3396231  
C    0.1236895   -2.5470442   -9.1659530  
C   -0.1440787   -1.1656725   -9.4899086  
C   -0.2619366   -1.0984433  -10.9590512  
N   -0.0671787   -2.3822327  -11.4138518  
C   -0.5136498    0.0365978  -11.6590705  
C   -0.6793386    1.2746850  -10.9159544  
O   -0.9086782    2.3494762  -11.4549598  
C   -0.5583636    1.2268998   -9.3593919  
O   -0.6956648    2.2629978   -8.7230660  
C   -0.2848516   -0.0565834   -8.7177419  
H    0.2683581   -2.9639595   -8.1852048  
H   -0.5963786    0.0641714  -12.7367101  
H    0.3332219   -4.2792500  -10.5101964  
H   -0.0887855   -2.6613316  -12.3775348  
C    2.5311839    2.1237619    3.0120429  
C    1.9795631    1.6616747    1.8395852  
C    0.9223175    0.7739173    2.1983588  
C    0.8753926    0.7337535    3.6154372  
N    1.8668922    1.5631002    4.0777464  
C   -0.0496243   -0.0427881    4.3197917  
C   -0.9437528   -0.7922060    3.5801400  
O   -1.8685244   -1.5680278    4.2172520  
C   -0.9124520   -0.7656372    2.1655264  
O   -1.8671164   -1.5663939    1.5732860  
C    0.0000000    0.0000000    1.4700000  
H    2.3005065    1.9304404    0.8477417  
H    2.0679347    1.7444845    5.0445261  
H   -0.0904770   -0.0778569    5.3997470  
H   -2.3849669   -2.0011402    3.5251786  
H   -1.7775064   -1.4909735    0.6183591  
H    3.3468514    2.8078103    3.1724291  
