62

C    0.0000000    0.0000000    0.0000000  
C    1.0521658   -0.0011900   -0.8862345  
C    0.4917204   -0.0011956   -2.1979132  
C   -0.9187443    0.0003149   -2.0478678  
N   -1.1833182   -0.0009411   -0.7007907  
C   -1.7951716    0.0010350   -3.1372081  
C   -1.2375858    0.0005226   -4.4010417  
O   -2.0474243    0.0015365   -5.4997570  
C    0.1673557   -0.0013566   -4.5711965  
O    0.5673496   -0.0020684   -5.8915554  
C    1.0325749   -0.0023412   -3.4969894  
H    2.0953048   -0.0030647   -0.6200571  
H   -2.0989779    0.0102370   -0.2891817  
H   -2.8710946    0.0020420   -3.0295503  
H   -1.4634916    0.0006500   -6.2693587  
H    1.5290680   -0.0033148   -5.9180054  
C    4.2912341   -2.1142471   -1.4465426  
C    5.3462911   -1.6514995   -2.1654266  
C    4.8141488   -0.7556973   -3.1650258  
C    3.3521058   -0.7343149   -2.9681414  
N    3.0997468   -1.5787546   -1.9116728  
C    2.4861682   -0.0045381   -3.7159931  
C    3.0304393    0.8143457   -4.7863828  
O    2.3328532    1.5072096   -5.5155011  
C    4.5758813    0.8067608   -5.0130038  
O    5.0456306    1.4919964   -5.9113627  
C    5.4069261   -0.0204838   -4.1418643  
H    6.3794036   -1.9085118   -2.0129893  
H    6.4760553   -0.0200030   -4.3052258  
H    2.1903294   -1.7741997   -1.5350987  
C    4.2811812   -3.0515971   -0.3142113  
C    5.3245630   -3.6802974    0.2859264  
C    4.7741022   -4.4904832    1.3467877  
C    3.3140273   -4.2807733    1.3152604  
N    3.0802619   -3.3978890    0.2863004  
C    2.4338135   -4.8724575    2.1619227  
C    2.9595877   -5.7759643    3.1717605  
O    2.2482548   -6.3574058    3.9806068  
C    4.5026709   -6.0126318    3.2236081  
O    4.9569719   -6.7709446    4.0696771  
C    5.3500942   -5.3181270    2.2574878  
H    6.3614990   -3.5869920    0.0163493  
H    1.3664377   -4.7051134    2.1217478  
H    6.4174326   -5.4875679    2.2999510  
H    2.1762862   -3.0590338    0.0123424  
C    3.3041272   -0.0001177    3.0120429  
C    2.5845372    0.0004780    1.8395852  
C    1.2040006    0.0000008    2.1983588  
C    1.1422373   -0.0006037    3.6154372  
N    2.4348639   -0.0026109    4.0777464  
C   -0.0655181   -0.0008797    4.3197917  
C   -1.2321768   -0.0002324    3.5801400  
O   -2.4392816   -0.0001146    4.2172520  
C   -1.1911209    0.0000007    2.1655264  
O   -2.4371527    0.0002320    1.5732860  
C    0.0000000    0.0000000    1.4700000  
H    3.0031534    0.0000661    0.8477417  
H    2.7054629    0.0071099    5.0445261  
H   -0.1193549   -0.0014844    5.3997470  
H   -3.1132988    0.0000648    3.5251786  
H   -2.3200282    0.0004071    0.6183591  
H    4.3686625   -0.0004071    3.1724291  
