62

C    6.4725946   -3.0291598   -5.2240817  
C    7.5164822   -2.9169764   -6.1130030  
C    7.5765699   -1.5494879   -6.5142076  
C    6.5359125   -0.8692852   -5.8313578  
N    5.8838798   -1.7974174   -5.0580267  
C    6.2978765    0.4996437   -5.9867982  
C    7.1256456    1.1946307   -6.8470139  
O    6.9377588    2.5333502   -7.0355384  
C    8.1691473    0.5335799   -7.5376161  
O    8.9057452    1.3631421   -8.3577347  
C    8.4043846   -0.8169332   -7.3849603  
H    8.1552955   -3.7219800   -6.4337529  
H    5.5063073    1.0239243   -5.4693529  
H    7.6129587    2.8178310   -7.6651734  
H    9.5889577    0.8386042   -8.7863180  
H    9.2111600   -1.2958526   -7.9273892  
H    6.1005026   -3.8906272   -4.6964647  
C    4.5551382   -2.0647519   -2.9129534  
C    3.4069298   -1.6070138   -2.3506643  
C    2.8049834   -0.7012746   -3.3004707  
C    3.7030475   -0.6686468   -4.4706017  
N    4.7450054   -1.5160901   -4.1721833  
C    3.4850373    0.0719021   -5.5867394  
C    2.2859706    0.8916868   -5.6389647  
O    2.0005474    1.5939522   -6.6000351  
C    1.3208823    0.8726932   -4.4109381  
O    0.3083944    1.5590471   -4.4433026  
C    1.6628945    0.0339172   -3.2649299  
H    3.0252948   -1.8733123   -1.3811007  
H    4.1564391    0.0814611   -6.4341104  
H    5.2786933   -2.7565743   -2.5132785  
C    1.1243410    0.0100105   -0.7919003  
C    0.7474072    0.0234665   -2.1148542  
C   -0.6787384    0.0234379   -2.1414698  
C   -1.1201748    0.0098411   -0.7935547  
N    0.0000000    0.0000000    0.0000000  
C   -2.4730818    0.0063307   -0.4408240  
C   -3.3971962    0.0170429   -1.4675058  
O   -4.7313520    0.0145490   -1.1793468  
C   -2.9763654    0.0303020   -2.8186325  
O   -4.0166484    0.0394464   -3.7247625  
C   -1.6418567    0.0334992   -3.1673480  
H   -2.8160166   -0.0041569    0.5845966  
H   -5.1938823    0.0230023   -2.0274386  
H   -3.6464680    0.0481700   -4.6127343  
H   -1.3497475    0.0435647   -4.2109234  
H    2.1062466    0.0053162   -0.3505405  
C    0.8400945    0.7047457    2.2710304  
C    0.0000000    0.0000000    1.4700000  
C   -0.8844236   -0.7423113    2.3369512  
C   -0.4878984   -0.4098547    3.7186280  
N    0.5629682    0.4714286    3.6095011  
C   -1.0836927   -0.9095027    4.8308716  
C   -2.1891196   -1.8367527    4.6554461  
O   -2.7906899   -2.3413415    5.5944904  
C   -2.6257283   -2.2031529    3.2011665  
O   -3.5549479   -2.9829990    3.0410059  
C   -1.9068976   -1.5999348    2.0816745  
H   -0.7774656   -0.6525820    5.8354244  
H   -2.2155208   -1.8586617    1.0779135  
H    1.6384792    1.3747609    1.9961646  
H    1.0518368    0.8833920    4.3830260  
