62

C    1.1188645    0.0008219   -0.8003801  
C    0.0000000    0.0000000    0.0000000  
C   -1.1323858    0.0008903   -0.8673532  
C   -0.6382657    0.0019682   -2.1969279  
N    0.7324024    0.0038480   -2.1202239  
C   -1.4770905    0.0027327   -3.3154810  
C   -2.8395466    0.0020957   -3.0876862  
O   -3.7039187    0.0024444   -4.1440358  
C   -3.3517864    0.0013947   -1.7684340  
O   -4.7300491    0.0012386   -1.7073135  
C   -2.5248541    0.0009133   -0.6644822  
H    1.3576322   -0.0056170   -2.9057038  
H   -4.5940022    0.0021850   -3.7685142  
H   -4.9934602    0.0007281   -0.7819926  
H   -2.9462578    0.0005613    0.3339650  
H    2.1619892    0.0009347   -0.5342060  
C    1.8836773   -2.1362888   -5.0810760  
C    1.8358587   -1.7275861   -6.3703605  
C    0.7030375   -0.8169587   -6.4333925  
C    0.1677643   -0.7920094   -5.0551895  
N    0.8558152   -1.5634005   -4.2579875  
C   -0.9736285    0.0040472   -4.6965764  
C   -1.5536710    0.7419478   -5.6704285  
O   -2.6247557    1.5303591   -5.4774864  
C   -1.0366279    0.7382189   -7.0707186  
O   -1.6142376    1.4340398   -7.9058361  
C    0.1355216   -0.0866888   -7.4135265  
H    2.4887441   -2.0092009   -7.1787595  
H   -2.8038801    1.9233579   -6.3507666  
H    0.4792093   -0.0617345   -8.4389466  
C    2.8381505   -3.0666541   -4.4611556  
C    3.8726355   -3.7128904   -5.0474996  
C    4.4779247   -4.4965179   -3.9816414  
C    3.6598424   -4.1956552   -2.7871508  
N    2.6970702   -3.3581268   -3.0621146  
C    3.9386930   -4.7840599   -1.5060933  
C    4.9869118   -5.6346711   -1.4222322  
O    5.3611707   -6.2553260   -0.2905260  
C    5.8312074   -5.9586759   -2.6098126  
O    6.7694652   -6.7413202   -2.4602775  
C    5.5248783   -5.3422092   -3.9129071  
H    4.1861850   -3.6639388   -6.0762690  
H    3.3244128   -4.5461419   -0.6499599  
H    6.1338088   -6.7912099   -0.5454999  
H    6.1602756   -5.6028717   -4.7487029  
C    2.5311839    2.1237619    3.0120429  
C    1.9795631    1.6616747    1.8395852  
C    0.9223175    0.7739173    2.1983588  
C    0.8753926    0.7337535    3.6154372  
N    1.8668922    1.5631002    4.0777464  
C   -0.0496243   -0.0427881    4.3197917  
C   -0.9437528   -0.7922060    3.5801400  
O   -1.8685244   -1.5680278    4.2172520  
C   -0.9124520   -0.7656372    2.1655264  
O   -1.8671164   -1.5663939    1.5732860  
C    0.0000000    0.0000000    1.4700000  
H    2.3005065    1.9304404    0.8477417  
H    2.0679347    1.7444845    5.0445261  
H   -0.0904770   -0.0778569    5.3997470  
H   -2.3849669   -2.0011402    3.5251786  
H   -1.7775064   -1.4909735    0.6183591  
H    3.3468514    2.8078103    3.1724291  
