60

C    6.4715532   -3.6481880   -2.2654297  
C    5.2775539   -3.0487596   -1.9375289  
C    4.9218998   -3.5132751   -0.6366306  
C    5.9455854   -4.4011175   -0.2174285  
N    6.8698503   -4.4618152   -1.2306742  
C    5.9243413   -5.0489233    1.0213953  
C    4.8502767   -4.7956121    1.8522964  
O    4.7796125   -5.4014097    3.0733742  
C    3.8189115   -3.9132124    1.4517064  
O    2.8183095   -3.7653292    2.3899327  
C    3.8390789   -3.2739976    0.2296082  
H    7.7141106   -5.0048991   -1.2143212  
H    6.7013738   -5.7268462    1.3467349  
H    3.9624867   -5.0914486    3.4850700  
H    2.1623655   -3.1539685    2.0412501  
H    3.0346986   -2.6036479   -0.0498211  
H    7.0698557   -3.5608349   -3.1561387  
C    4.5294744   -2.1111776   -2.7873616  
C    4.8355746   -1.6481491   -4.0267091  
C    3.7722451   -0.7522106   -4.4158869  
C    2.8147154   -0.7310537   -3.2936214  
N    3.3317096   -1.5757412   -2.3385769  
C    1.6707636   -0.0012343   -3.2725974  
C    1.3618916    0.8179367   -4.4328095  
O    0.3558254    1.5108612   -4.5101837  
C    2.3616931    0.8105942   -5.6328716  
O    2.1121086    1.4960728   -6.6152604  
C    3.5619227   -0.0167226   -5.5388108  
H    5.7067349   -1.9050618   -4.6026342  
H    4.2491855   -0.0160727   -6.3739118  
H    2.9056668   -1.7713787   -1.4512998  
C    1.0965514    0.0001358   -0.8010306  
C    0.0000000    0.0000000    0.0000000  
C   -1.1546565    0.0001470   -0.8669508  
C   -0.6372019    0.0003520   -2.2486278  
N    0.7342867    0.0007338   -2.1395012  
C   -1.4147744    0.0001354   -3.3608712  
C   -2.8576052   -0.0001047   -3.1854454  
O   -3.6427785   -0.0002490   -4.1244896  
C   -3.4275841   -0.0000727   -1.7311660  
O   -4.6406832    0.0000333   -1.5710049  
C   -2.4891868   -0.0001090   -0.6116739  
H   -1.0150456    0.0001617   -4.3654239  
H   -2.8919122   -0.0002919    0.3920871  
H    2.1388270    0.0000663   -0.5261650  
C    0.0000000    0.0000000    1.4700000  
C    1.0541688    0.0001722    2.3260392  
C    0.5103138    0.0000454    3.6635956  
C   -0.9576371   -0.0002459    3.5155732  
N   -1.2018458    0.0001392    2.1615969  
C   -1.8348311   -0.0008317    4.5510609  
C   -1.2972847   -0.0009736    5.9014604  
O   -2.0050672   -0.0014265    6.9001319  
C    0.2542623   -0.0004184    6.0817573  
O    0.7184670   -0.0002256    7.2139121  
C    1.0974552   -0.0000873    4.8889129  
H    2.0940752    0.0005483    2.0517982  
H   -2.9081052   -0.0011668    4.4207061  
H    2.1707277    0.0000911    5.0223670  
H   -2.1128194   -0.0014912    1.7406791  
