60

C    5.1812946   -2.3684437   -4.7186881  
C    6.4382387   -2.5794715   -5.2363995  
C    6.8585644   -1.3494043   -5.8236477  
C    5.8079019   -0.4160523   -5.6315862  
N    4.8041502   -1.0679545   -4.9591845  
C    5.8776718    0.9049486   -6.0842203  
C    7.0291789    1.2908496   -6.7424684  
O    7.1500988    2.5693222   -7.2049596  
C    8.0882244    0.3740182   -6.9441113  
O    9.1669814    0.9100299   -7.6166570  
C    8.0199706   -0.9294113   -6.4980855  
H    6.9844849   -3.5063144   -5.1967491  
H    5.0803069    1.6211435   -5.9411267  
H    8.0173362    2.6262095   -7.6267752  
H    9.8369233    0.2260292   -7.7111242  
H    8.8470506   -1.6089414   -6.6673660  
H    4.5233766   -3.0430992   -4.1981662  
C    2.8912669   -0.6998116   -3.3332350  
C    1.7334695    0.0049281   -3.2500363  
C    1.6041098    0.7488997   -4.4807302  
C    2.7899379    0.4174237   -5.2935811  
N    3.5303610   -0.4649347   -4.5411804  
C    3.0393018    0.9187047   -6.5298007  
C    2.0755503    1.8468030   -7.0975613  
O    2.2101243    2.3528611   -8.2039495  
C    0.8125763    2.2121887   -6.2542377  
O   -0.0056409    2.9927353   -6.7217077  
C    0.6534232    1.6072170   -4.9341878  
H    3.9152830    0.6624806   -7.1093831  
H   -0.2239005    1.8652503   -4.3567400  
H    3.3315067   -1.3708305   -2.6136436  
C    1.1319246    0.0015678   -0.8009268  
C    0.7969914    0.0034958   -2.1169401  
C   -0.6453340    0.0035696   -2.1842669  
C   -1.1266832    0.0015410   -0.7896025  
N    0.0000000    0.0000000    0.0000000  
C   -2.4346129    0.0013913   -0.4276292  
C   -3.4350111    0.0031335   -1.4820181  
O   -4.6384614    0.0030875   -1.2583914  
C   -2.9478961    0.0050442   -2.9661074  
O   -3.7809382    0.0062135   -3.8623773  
C   -1.5113825    0.0053055   -3.2312122  
H   -2.7664565    0.0000174    0.6013448  
H   -1.1823533    0.0068381   -4.2614848  
H    2.1104316    0.0009435   -0.3488059  
C    0.0000000    0.0000000    1.4700000  
C    1.0541688    0.0001722    2.3260392  
C    0.5103138    0.0000454    3.6635956  
C   -0.9576371   -0.0002459    3.5155732  
N   -1.2018458    0.0001392    2.1615969  
C   -1.8348311   -0.0008317    4.5510609  
C   -1.2972847   -0.0009736    5.9014604  
O   -2.0050672   -0.0014265    6.9001319  
C    0.2542623   -0.0004184    6.0817573  
O    0.7184670   -0.0002256    7.2139121  
C    1.0974552   -0.0000873    4.8889129  
H    2.0940752    0.0005483    2.0517982  
H   -2.9081052   -0.0011668    4.4207061  
H    2.1707277    0.0000911    5.0223670  
H   -2.1128194   -0.0014912    1.7406791  
