60

C    5.7554223   -0.0170914   -2.0504792  
C    6.9923547   -0.0274544   -1.4485178  
C    6.7698532   -0.0170657   -0.0396229  
C    5.3656236   -0.0006277    0.1598689  
N    4.7795897    0.0008677   -1.0815734  
C    4.7823655    0.0126087    1.4304684  
C    5.6321446    0.0088818    2.5195224  
O    5.1157366    0.0209829    3.7829268  
C    7.0359426   -0.0070683    2.3408776  
O    7.7467592   -0.0084166    3.5232821  
C    7.6120393   -0.0198591    1.0876918  
H    7.9386302   -0.0397482   -1.9617473  
H    3.7128637    0.0253093    1.5892348  
H    5.8701611    0.0161160    4.3863208  
H    8.6856723   -0.0195880    3.3137053  
H    8.6905542   -0.0317639    0.9821341  
H    5.4920675   -0.0196439   -3.0943167  
C    3.3321166    0.0004717   -1.3379342  
C    2.6974176    0.0000121   -2.5332317  
C    1.2800432   -0.0002115   -2.2052842  
C    1.2395033    0.0000645   -0.7271297  
N    2.4394059    0.0005461   -0.2131042  
C    0.0000000    0.0000000    0.0000000  
C   -1.1468704    0.0000636   -0.7169540  
O   -2.3742206    0.0000073   -0.1695488  
C   -1.1388774    0.0001610   -2.2096351  
O   -2.2206238    0.0000908   -2.7970408  
C    0.1454514    0.0001820   -2.9324241  
H    3.1367977   -0.0000646   -3.5160953  
H   -2.9844351    0.0001027   -0.9290163  
C    0.8834460   -0.6856105   -5.2614100  
C    0.0950440    0.0004357   -4.4015596  
C   -0.8231769    0.7463701   -5.2482896  
C   -0.4365571    0.3825632   -6.6284178  
N    0.5632287   -0.4566160   -6.6424232  
C   -1.1157953    0.9193870   -7.7753883  
C   -2.1351884    1.7802113   -7.5536826  
O   -2.8563103    2.3569979   -8.5300742  
C   -2.5493397    2.1666375   -6.1726268  
O   -3.4857805    2.9553987   -6.0455238  
C   -1.8368920    1.6024060   -5.0124608  
H   -0.8119995    0.6362863   -8.7726204  
H   -3.5050423    2.9140321   -8.0631564  
H   -2.1675091    1.9073665   -4.0286306  
H    1.6932798   -1.3582316   -5.0274786  
C    0.0000000    0.0000000    1.4700000  
C    1.0662921    0.0000102    2.3034270  
C    0.4961870   -0.0000064    3.6418889  
C   -0.9663858    0.0000850    3.4240247  
N   -1.2632773    0.0000084    2.1528658  
C   -1.8985362    0.0000517    4.5177257  
C   -1.3925775   -0.0004564    5.7720543  
O   -2.1456383   -0.0005410    6.8851312  
C    0.0786232   -0.0009323    6.0245000  
O    0.4683759   -0.0012588    7.1921102  
C    1.0143166   -0.0008442    4.8859032  
H    2.1107198   -0.0000632    2.0421868  
H   -2.9622183    0.0003270    4.3293377  
H   -1.5042274   -0.0009692    7.6184419  
H    2.0724152   -0.0013148    5.1109744  
