64

C    8.1613083    0.0323633   -0.4450015  
C    8.3688275    0.0310453    0.9149258  
C    9.7802418    0.0432486    1.1207405  
C   10.3876963    0.0519951   -0.1609958  
N    9.3763003    0.0431195   -1.0892279  
C   11.7741691    0.0652605   -0.3407404  
C   12.5617629    0.0700857    0.7940941  
O   13.9215090    0.0833184    0.6760571  
C   11.9743485    0.0611398    2.0816039  
O   12.8923515    0.0670727    3.1114487  
C   10.6066364    0.0477786    2.2596768  
H    7.5977833    0.0212522    1.6661833  
H    9.5024766    0.0568565   -2.0851554  
H   12.2433466    0.0718335   -1.3149227  
H   14.2736725    0.0842517    1.5756376  
H   12.4134392    0.0603760    3.9458359  
H   10.1856018    0.0409842    3.2582564  
C    5.6407188    0.0090261   -0.6742903  
C    6.9070545    0.0223581   -1.2115836  
C    6.7574897    0.0227123   -2.6301146  
C    5.3654031    0.0094660   -2.9018572  
N    4.7161325   -0.0005435   -1.6923264  
C    4.8484278    0.0063836   -4.2009018  
C    5.7532366    0.0171711   -5.2446365  
O    5.3026533    0.0150891   -6.5330403  
C    7.1459681    0.0300850   -4.9937380  
O    7.9168113    0.0393568   -6.1378789  
C    7.6566887    0.0328598   -3.7124564  
H    3.7885257   -0.0038354   -4.4146884  
H    6.0871929    0.0235229   -7.0966821  
H    8.8436766    0.0478279   -5.8800954  
H    8.7283351    0.0426675   -3.5513469  
H    5.3238916    0.0041404    0.3545709  
C    3.2573665   -0.0002920   -1.5109385  
C    2.5379463   -0.0001709   -0.3591964  
C    1.1435038    0.0000331   -0.7338500  
C    1.1092599   -0.0000083   -2.2088477  
N    2.4227553    0.0001909   -2.6182613  
C   -0.0265539   -0.0002524   -2.9515660  
C   -1.3003040   -0.0002640   -2.2514977  
O   -2.3786790   -0.0004133   -2.8306421  
C   -1.2877727    0.0000311   -0.6895603  
O   -2.3539959    0.0003306   -0.0892030  
C    0.0000000    0.0000000    0.0000000  
H    2.9384091   -0.0000367    0.6389234  
H   -0.0296303   -0.0004086   -4.0327229  
H    2.7280482   -0.0013407   -3.5742119  
C    0.8576279    0.7185626    2.2703808  
C    0.0000000    0.0000000    1.4700000  
C   -0.8668858   -0.7285659    2.3373528  
C   -0.4876752   -0.4117774    3.6669281  
N    0.5635254    0.4678311    3.5902241  
C   -1.1297612   -0.9515493    4.7854808  
C   -2.1738724   -1.8268314    4.5576857  
O   -2.8357962   -2.3827064    5.6140350  
C   -2.5667212   -2.1555554    3.2384331  
O   -3.6226318   -3.0413663    3.1773122  
C   -1.9335634   -1.6236449    2.1344818  
H    1.0363952    0.8769718    4.3757045  
H   -0.8454472   -0.7142436    5.8013813  
H   -3.5178062   -2.9546422    5.2385129  
H   -3.8247440   -3.2102924    2.2519915  
H   -2.2566033   -1.8942483    1.1360343  
H    1.6567807    1.3889844    2.0042067  
