64

C    6.4688551   -3.0286830   -5.2431139  
C    5.8838798   -1.7974174   -5.0580267  
C    6.5924852   -0.8719719   -5.8802373  
C    7.6075095   -1.6024046   -6.5496538  
N    7.5056158   -2.9082789   -6.1386455  
C    8.5013011   -1.0079595   -7.4455116  
C    8.3678090    0.3485072   -7.6699116  
O    9.2139590    0.9793992   -8.5353695  
C    7.3615965    1.0944959   -7.0112351  
O    7.3580413    2.4343867   -7.3399035  
C    6.4796751    0.5087703   -6.1271163  
H    8.0882726   -3.6628955   -6.4533608  
H    9.2771803   -1.5590908   -7.9588030  
H    8.9512114    1.9089851   -8.5452358  
H    6.6492214    2.8652261   -6.8525075  
H    5.7193327    1.1058905   -5.6374181  
H    6.2294867   -3.9829749   -4.8060912  
C    4.5551382   -2.0647519   -2.9129534  
C    3.4069298   -1.6070138   -2.3506643  
C    2.8049834   -0.7012746   -3.3004707  
C    3.7030475   -0.6686468   -4.4706017  
N    4.7450054   -1.5160901   -4.1721833  
C    3.4850373    0.0719021   -5.5867394  
C    2.2859706    0.8916868   -5.6389647  
O    2.0005474    1.5939522   -6.6000351  
C    1.3208823    0.8726932   -4.4109381  
O    0.3083944    1.5590471   -4.4433026  
C    1.6628945    0.0339172   -3.2649299  
H    3.0252948   -1.8733123   -1.3811007  
H    4.1564391    0.0814611   -6.4341104  
H    5.2786933   -2.7565743   -2.5132785  
C    1.1243410    0.0100105   -0.7919003  
C    0.7474072    0.0234665   -2.1148542  
C   -0.6787384    0.0234379   -2.1414698  
C   -1.1201748    0.0098411   -0.7935547  
N    0.0000000    0.0000000    0.0000000  
C   -2.4730818    0.0063307   -0.4408240  
C   -3.3971962    0.0170429   -1.4675058  
O   -4.7313520    0.0145490   -1.1793468  
C   -2.9763654    0.0303020   -2.8186325  
O   -4.0166484    0.0394464   -3.7247625  
C   -1.6418567    0.0334992   -3.1673480  
H   -2.8160166   -0.0041569    0.5845966  
H   -5.1938823    0.0230023   -2.0274386  
H   -3.6464680    0.0481700   -4.6127343  
H   -1.3497475    0.0435647   -4.2109234  
H    2.1062466    0.0053162   -0.3505405  
C    2.5311839    2.1237619    3.0120429  
C    1.9795631    1.6616747    1.8395852  
C    0.9223175    0.7739173    2.1983588  
C    0.8753926    0.7337535    3.6154372  
N    1.8668922    1.5631002    4.0777464  
C   -0.0496243   -0.0427881    4.3197917  
C   -0.9437528   -0.7922060    3.5801400  
O   -1.8685244   -1.5680278    4.2172520  
C   -0.9124520   -0.7656372    2.1655264  
O   -1.8671164   -1.5663939    1.5732860  
C    0.0000000    0.0000000    1.4700000  
H    2.3005065    1.9304404    0.8477417  
H    2.0679347    1.7444845    5.0445261  
H   -0.0904770   -0.0778569    5.3997470  
H   -2.3849669   -2.0011402    3.5251786  
H   -1.7775064   -1.4909735    0.6183591  
H    3.3468514    2.8078103    3.1724291  
