62

C    4.5732230   -0.5407600   -8.9048920  
C    4.0598268    0.6903933   -8.5685100  
C    4.4971152    1.6107102   -9.5667058  
C    5.2804363    0.8774064  -10.4943915  
N    5.3078852   -0.4251532  -10.0617221  
C    5.8756144    1.4666258  -11.6139311  
C    5.6761548    2.8207198  -11.8005418  
O    6.2342627    3.4465116  -12.8775336  
C    4.8981024    3.5695113  -10.8857935  
O    4.7931745    4.9064979  -11.2095210  
C    4.3108700    2.9889431   -9.7809758  
H    5.7792898   -1.1808035  -10.5251344  
H    6.4738852    0.9132859  -12.3246287  
H    5.9749510    4.3752285  -12.8183154  
H    4.2523037    5.3395172  -10.5420217  
H    3.7204520    3.5881101   -9.0976865  
H    4.4746658   -1.4919172   -8.4103765  
C    4.2034631   -0.7255618   -4.3886923  
C    4.4527393   -0.5087788   -5.7058645  
C    3.4509042    0.4181858   -6.1769257  
C    2.5913890    0.7259028   -5.0179029  
N    3.1006054    0.0006263   -3.9654951  
C    1.5263736    1.5663069   -5.0520708  
C    1.2050748    2.2105938   -6.3146857  
O    0.2656485    2.9839405   -6.4477801  
C    2.1016869    1.8990850   -7.5551920  
O    1.8407248    2.4353746   -8.6236268  
C    3.2224919    0.9761281   -7.3945733  
H    5.2475925   -0.9482343   -6.2817985  
H    0.9088838    1.7784637   -4.1903244  
H    4.7325170   -1.3548952   -3.6916046  
C    3.2798083    0.0005857   -1.4499652  
C    2.5571142    0.0005565   -2.5996556  
C    1.1637432    0.0001548   -2.2210361  
C    1.1336964   -0.0000200   -0.7459473  
N    2.4483512   -0.0001428   -0.3402723  
C    0.0000000    0.0000000    0.0000000  
C   -1.2757368   -0.0000186   -0.6964415  
O   -2.3524598   -0.0000639   -0.1142311  
C   -1.2676497   -0.0000872   -2.2584083  
O   -2.3355766   -0.0004101   -2.8557295  
C    0.0181558    0.0001758   -2.9516296  
H    0.0150788    0.0003319   -4.0331631  
H    4.3498547    0.0008612   -1.3200026  
H    2.7563626    0.0012823    0.6148059  
C    0.8576279    0.7185626    2.2703808  
C    0.0000000    0.0000000    1.4700000  
C   -0.8668858   -0.7285659    2.3373528  
C   -0.4876752   -0.4117774    3.6669281  
N    0.5635254    0.4678311    3.5902241  
C   -1.1297612   -0.9515493    4.7854808  
C   -2.1738724   -1.8268314    4.5576857  
O   -2.8357962   -2.3827064    5.6140350  
C   -2.5667212   -2.1555554    3.2384331  
O   -3.6226318   -3.0413663    3.1773122  
C   -1.9335634   -1.6236449    2.1344818  
H    1.0363952    0.8769718    4.3757045  
H   -0.8454472   -0.7142436    5.8013813  
H   -3.5178062   -2.9546422    5.2385129  
H   -3.8247440   -3.2102924    2.2519915  
H   -2.2566033   -1.8942483    1.1360343  
H    1.6567807    1.3889844    2.0042067  
