62

C    2.4861702   -0.0045381   -3.7159922  
C    3.5192653   -0.0069576   -2.8076001  
C    4.7328077   -0.0089740   -3.5572066  
C    4.3743056   -0.0073669   -4.9295766  
N    3.0028455   -0.0066335   -4.9905080  
C    5.3209179   -0.0083538   -5.9585147  
C    6.6537153   -0.0107049   -5.5954393  
O    7.6195178   -0.0114064   -6.5599276  
C    7.0312767   -0.0127111   -4.2315260  
O    8.3964910   -0.0153603   -4.0327047  
C    6.0979606   -0.0120121   -3.2159252  
H    3.4114641   -0.0083403   -1.7364463  
H    2.4594304    0.0050772   -5.8346312  
H    5.0541703   -0.0072833   -7.0063921  
H    8.4675238   -0.0133900   -6.0971679  
H    8.5659228   -0.0165595   -3.0856591  
H    6.4172671   -0.0137763   -2.1803008  
C    0.0000000    0.0000000    0.0000000  
C    1.0521666   -0.0011901   -0.8862341  
C    0.4917219   -0.0011956   -2.1979129  
C   -0.9187429    0.0003148   -2.0478681  
N   -1.1833171   -0.0009411   -0.7007912  
C   -1.7951701    0.0010349   -3.1372089  
C   -1.2375839    0.0005224   -4.4010424  
O   -2.0474212    0.0015359   -5.4997577  
C    0.1673581   -0.0013566   -4.5711964  
O    0.5673524   -0.0020688   -5.8915554  
C    1.0325770   -0.0023412   -3.4969892  
H    2.0953060   -0.0030648   -0.6200561  
H   -2.0989776    0.0102371   -0.2891822  
H   -1.4634886    0.0006496   -6.2693594  
H    1.5290710   -0.0033152   -5.9180047  
C   -3.2578655    0.0024038   -2.9908506  
C   -3.9809872    0.0031287   -1.8468778  
C   -5.3695596    0.0043913   -2.2808882  
C   -5.2983965    0.0043641   -3.7578849  
N   -4.0631141    0.0031209   -4.1798624  
C   -6.4794707    0.0054029   -4.5765114  
C   -7.6771918    0.0060337   -3.9481810  
O   -8.8597158    0.0070290   -4.5866781  
C   -7.7819057    0.0057081   -2.4591560  
O   -8.9049089    0.0064464   -1.9550886  
C   -6.5558061    0.0046821   -1.6414747  
H   -3.6170581    0.0027518   -0.8336495  
H   -6.3979226    0.0055641   -5.6536644  
H   -9.5255218    0.0072467   -3.8754434  
H   -6.6744111    0.0043601   -0.5662247  
C    1.0672568    0.0000697    2.3021913  
C    0.0000000    0.0000000    1.4700000  
C   -1.1601224    0.0000736    2.3478473  
C   -0.5938729    0.0000769    3.7138435  
N    0.7113367    0.0001554    3.6934124  
C   -1.4286986    0.0001879    4.8835240  
C   -2.7683114    0.0006799    4.6970523  
O   -3.6653903    0.0008304    5.6976972  
C   -3.3702025    0.0010610    3.3310774  
O   -4.5974910    0.0013779    3.2362962  
C   -2.4926826    0.0008943    2.1470656  
H   -0.9878360   -0.0000190    5.8697035  
H   -4.5324246    0.0012261    5.2533954  
H   -2.9677772    0.0012974    1.1752040  
H    2.1134392    0.0000545    2.0405121  
