64

C    3.6986969   -2.1260462   -4.3034128  
C    4.9523584   -1.6280270   -4.5731851  
C    4.8208897   -0.7530076   -5.6919596  
C    3.4523481   -0.7568468   -6.0647926  
N    2.7994298   -1.6022639   -5.2024789  
C    2.9574919   -0.0030885   -7.1333220  
C    3.8605704    0.7688383   -7.8381302  
O    3.4309508    1.5245224   -8.8904539  
C    5.2300398    0.7856119   -7.4816330  
O    6.0023043    1.6036999   -8.2801828  
C    5.7189758    0.0420526   -6.4277891  
H    5.8512517   -1.8669710   -4.0310690  
H    1.8147817   -1.7978903   -5.2158911  
H    4.2102425    1.9783797   -9.2368373  
H    6.9126725    1.5576369   -7.9724292  
H    6.7731081    0.0749582   -6.1783891  
H    3.3750843   -2.8145489   -3.5417063  
C   -0.8287671    0.0000935   -4.7555305  
C    0.4934746   -0.0006542   -5.1351926  
C    0.5171464   -0.0005536   -6.5613906  
C   -0.8317450    0.0005630   -7.0000446  
N   -1.6230471   -0.0010197   -5.8782354  
C   -1.1872830    0.0012650   -8.3522206  
C   -0.1624539    0.0011390   -9.2784518  
O   -0.4533747    0.0021534  -10.6120094  
C    1.1896019   -0.0003435   -8.8604089  
O    2.0936303   -0.0006992   -9.9025603  
C    1.5410844   -0.0013100   -7.5266236  
H    1.3371561   -0.0023098   -4.4664686  
H   -2.6269690    0.0098426   -5.8761615  
H   -2.2134625    0.0019725   -8.6930394  
H    0.3938023    0.0015662  -11.0762892  
H    2.9824063   -0.0016915   -9.5342131  
C    1.0672566   -0.0000698   -0.8321912  
C    0.0000000    0.0000000    0.0000000  
C   -1.1601226   -0.0000736   -0.8778472  
C   -0.5938732   -0.0000770   -2.2438435  
N    0.7113365   -0.0001555   -2.2234123  
C   -1.4286989   -0.0001880   -3.4135239  
C   -2.7683117   -0.0006800   -3.2270522  
O   -3.6653907   -0.0008306   -4.2276967  
C   -3.3702026   -0.0010611   -1.8610771  
O   -4.5974909   -0.0013781   -1.7662957  
C   -2.4926826   -0.0008944   -0.6770655  
H   -4.5324249   -0.0012263   -3.7833950  
H   -2.9677773   -0.0012975    0.2947963  
H    2.1134390   -0.0000546   -0.5705121  
C    2.5311839    2.1237619    3.0120429  
C    1.9795631    1.6616747    1.8395852  
C    0.9223175    0.7739173    2.1983588  
C    0.8753926    0.7337535    3.6154372  
N    1.8668922    1.5631002    4.0777464  
C   -0.0496243   -0.0427881    4.3197917  
C   -0.9437528   -0.7922060    3.5801400  
O   -1.8685244   -1.5680278    4.2172520  
C   -0.9124520   -0.7656372    2.1655264  
O   -1.8671164   -1.5663939    1.5732860  
C    0.0000000    0.0000000    1.4700000  
H    2.3005065    1.9304404    0.8477417  
H    2.0679347    1.7444845    5.0445261  
H   -0.0904770   -0.0778569    5.3997470  
H   -2.3849669   -2.0011402    3.5251786  
H   -1.7775064   -1.4909735    0.6183591  
H    3.3468514    2.8078103    3.1724291  
