62

C   -3.9846534    0.7173437   -1.8067787  
C   -3.3460098   -0.0004261   -2.7913644  
C   -4.3511567   -0.7286177   -3.4942278  
C   -5.5942658   -0.4124284   -2.8887285  
N   -5.3355279    0.4664778   -1.8663802  
C   -6.8075837   -0.9520445   -3.3262933  
C   -6.7652526   -1.8265514   -4.3947613  
O   -7.9207781   -2.3822411   -4.8627191  
C   -5.5346850   -2.1546694   -5.0118978  
O   -5.6585305   -3.0397397   -6.0629245  
C   -4.3373009   -1.6229124   -4.5805841  
H   -6.0265586    0.8750933   -1.2634780  
H   -7.7583635   -0.7151928   -2.8689968  
H   -7.6698755   -2.9536129   -5.6001788  
H   -4.7826150   -3.2082910   -6.4234334  
H   -3.4104553   -1.8930392   -5.0729928  
H   -3.5832772    1.3872843   -1.0658091  
C    0.0000000    0.0000000    0.0000000  
C    1.0662918   -0.0000103   -0.8334272  
C    0.4961866    0.0000066   -2.1718888  
C   -0.9663862   -0.0000848   -1.9540246  
N   -1.2632777   -0.0000084   -0.6828658  
C   -1.8985367   -0.0000514   -3.0477256  
C   -1.3925783    0.0004569   -4.3020543  
O   -2.1456389    0.0005417   -5.4151310  
C    0.0786225    0.0009329   -4.5544999  
O    0.4683752    0.0012595   -5.7221105  
C    1.0143159    0.0008446   -3.4159033  
H    2.1107193    0.0000632   -0.5721869  
H   -1.5042282    0.0009699   -6.1484418  
C    2.4521470    0.0014842   -3.7217487  
C    3.5087816    0.0013023   -2.8687549  
C    4.7039139    0.0022083   -3.6789976  
C    4.2537117    0.0029674   -5.0840268  
N    2.8785556    0.0020817   -5.0411859  
C    5.0840310    0.0043219   -6.1574662  
C    6.5167198    0.0048564   -5.9126445  
O    7.3462762    0.0060005   -6.8127192  
C    7.0158834    0.0038171   -4.4325636  
O    8.2198443    0.0039486   -4.2140713  
C    6.0245760    0.0026612   -3.3596421  
H    3.4569030    0.0004298   -1.7945474  
H    4.7332257    0.0049894   -7.1801313  
H    6.3784131    0.0021517   -2.3376229  
H    2.2773129    0.0038593   -5.8446485  
C    0.0000000    0.0000000    1.4700000  
C    1.0521667    0.0011902    2.3562342  
C    0.4917218    0.0011957    3.6679131  
C   -0.9187428   -0.0003148    3.5178682  
N   -1.1833171    0.0009411    2.1707914  
C   -1.7951701   -0.0010350    4.6072090  
C   -1.2375837   -0.0005224    5.8710424  
O   -2.0474215   -0.0015360    6.9697579  
C    0.1673580    0.0013566    6.0411963  
O    0.5673524    0.0020687    7.3615553  
C    1.0325770    0.0023412    4.9669890  
H    2.0953057    0.0030649    2.0900562  
H   -2.0989778   -0.0102372    1.7591824  
H   -2.8710934   -0.0020419    4.4995513  
H   -1.4634884   -0.0006497    7.7393593  
H    1.5290710    0.0033153    7.3880045  
H    2.1042148    0.0039609    5.1284455  
