64

C    3.3041270    0.0001178   -1.5420432  
C    2.5845372   -0.0004779   -0.3695853  
C    1.2040007   -0.0000006   -0.7283591  
C    1.1422373    0.0006039   -2.1454374  
N    2.4348636    0.0026110   -2.6077466  
C   -0.0655186    0.0008800   -2.8497915  
C   -1.2321770    0.0002326   -2.1101397  
O   -2.4392818    0.0001149   -2.7472515  
C   -1.1911209   -0.0000006   -0.6955262  
O   -2.4371522   -0.0002319   -0.1032858  
C    0.0000000    0.0000000    0.0000000  
H    3.0031535   -0.0000661    0.6222580  
H    2.7054625   -0.0071097   -3.5745263  
H   -3.1132993   -0.0000646   -2.0551781  
H   -2.3200286   -0.0004070    0.8516413  
C    5.7082757    0.0170072   -0.7673040  
C    6.9602955    0.0287163   -1.3371950  
C    6.7741497    0.0207406   -2.7513683  
C    5.3755275    0.0043196   -2.9869819  
N    4.7577214    0.0005130   -1.7610465  
C    4.8251842   -0.0068313   -4.2722002  
C    5.7027234   -0.0009973   -5.3390031  
O    5.2190233   -0.0110097   -6.6153055  
C    7.1014511    0.0149721   -5.1242409  
O    7.8424792    0.0185579   -6.2879461  
C    7.6450841    0.0257060   -3.8566158  
H    7.8930383    0.0403357   -0.7997483  
H    3.7601289   -0.0195069   -4.4584764  
H    5.9887337   -0.0049083   -7.1990633  
H    8.7756807    0.0295845   -6.0542418  
H    8.7205207    0.0376812   -3.7233001  
H    5.4181286    0.0176706    0.2694090  
C    0.6781136   -0.7162597   -5.1604640  
C   -0.1387086    0.0017020   -4.3179679  
C   -1.0478136    0.7305979   -5.1406703  
C   -0.7352240    0.4146207   -6.4876564  
N    0.3186243   -0.4648428   -6.4638848  
C   -1.4322866    0.9549033   -7.5725470  
C   -2.4638930    1.8298713   -7.2925526  
O   -3.1776740    2.3862186   -8.3143197  
C   -2.7906196    2.1577874   -5.9551905  
O   -3.8423108    3.0433753   -5.8410700  
C   -2.1032023    1.6253729   -4.8844344  
H    0.7518609   -0.8734597   -7.2721668  
H   -1.1988702    0.7182165   -8.6014769  
H   -3.8402275    2.9578226   -7.9049817  
H   -3.9981269    3.2117477   -4.9067383  
H   -2.3761704    1.8953601   -3.8709879  
H    1.4896288   -1.3866875   -4.9347897  
C    2.5128556    2.1077716    2.9199648  
C    1.9592212    1.6432552    4.0696553  
C    0.8915788    0.7479214    3.6910360  
C    0.8684491    0.7287414    2.2159470  
N    1.8754542    1.5738793    1.8102719  
C    0.0000000    0.0000000    1.4700000  
C   -0.9772830   -0.8200135    2.1664417  
O   -1.8021297   -1.5120829    1.5842315  
C   -0.9711318   -0.8147624    3.7284083  
O   -1.7894187   -1.5009653    4.3257297  
C    0.0140216    0.0115358    4.4216297  
H    2.2638494    1.8988021    5.0689105  
H    0.0117648    0.0094386    5.5031631  
H    3.3327358    2.7953732    2.7900019  
H    2.1123206    1.7707734    0.8551938  
