64

C    4.6603309   -1.1083174   -5.0391946  
C    5.5014206   -1.9950748   -4.4077705  
C    6.5749015   -2.2636846   -5.3078201  
C    6.3329179   -1.5059047   -6.4821876  
N    5.1614675   -0.8174283   -6.2864294  
C    7.1913748   -1.5261127   -7.5855608  
C    8.3147316   -2.3256293   -7.5017733  
O    9.1867544   -2.3822844   -8.5502860  
C    8.5732317   -3.0893197   -6.3386864  
O    9.7318900   -3.8348747   -6.4094057  
C    7.7266388   -3.0700789   -5.2499095  
H    5.3582260   -2.3995268   -3.4203972  
H    4.7415632   -0.1872526   -6.9456258  
H    7.0125117   -0.9510003   -8.4835898  
H    9.8904015   -2.9898932   -8.2876868  
H    9.8320552   -4.3202393   -5.5847900  
H    7.9507366   -3.6658829   -4.3728262  
C    2.8127782   -0.7365249   -3.3573038  
C    1.6478437   -0.0100096   -3.2702997  
C    1.5143089    0.7107913   -4.4939067  
C    2.6370073    0.3812884   -5.2957182  
N    3.4061782   -0.4980964   -4.5748329  
C    2.8346057    0.9108205   -6.5745224  
C    1.8813276    1.7887461   -7.0527328  
O    2.0247689    2.3349770   -8.2953388  
C    0.7544619    2.1300936   -6.2675751  
O   -0.1041858    3.0169825   -6.8836083  
C    0.5590206    1.6082896   -5.0058107  
H    3.6882152    0.6638027   -7.1905869  
H    1.2608980    2.9107769   -8.4303229  
H   -0.8375011    3.1947279   -6.2867341  
H   -0.3138103    1.8884589   -4.4277535  
H    3.2680676   -1.4048169   -2.6466308  
C    1.1188642    0.0008224   -0.8003808  
C    0.0000000    0.0000000    0.0000000  
C   -1.1323861    0.0008899   -0.8673529  
C   -0.6382661    0.0019681   -2.1969282  
N    0.7324017    0.0038483   -2.1202240  
C   -1.4770912    0.0027320   -3.3154810  
C   -2.8395474    0.0020946   -3.0876860  
O   -3.7039199    0.0024426   -4.1440353  
C   -3.3517867    0.0013927   -1.7684331  
O   -4.7300496    0.0012363   -1.7073125  
C   -2.5248543    0.0009121   -0.6644818  
H   -1.1067568    0.0036992   -4.3313814  
H   -4.5940031    0.0021828   -3.7685133  
H   -4.9934602    0.0007260   -0.7819919  
H   -2.9462579    0.0005600    0.3339656  
H    2.1619896    0.0009357   -0.5342065  
C    2.5528530    2.1414826    2.8079335  
C    2.0663498    1.7338582    4.0032312  
C    0.9804344    0.8229586    3.6752840  
C    0.9495562    0.7966882    2.1971295  
N    1.8690446    1.5676019    1.6831036  
C    0.0000000    0.0000000    1.4700000  
C   -0.8785127   -0.7372425    2.1869543  
O   -1.8187535   -1.5261249    1.6395491  
C   -0.8723269   -0.7321790    3.6796354  
O   -1.7010379   -1.4274584    4.2670412  
C    0.1115397    0.0933559    4.4024240  
H    2.4028853    2.0163452    4.9860947  
H   -2.2861435   -1.9184361    2.3990168  
H    0.0832434    0.0693689    5.4835595  
H    3.3664920    2.8238276    2.6198634  
