62

C   -4.2182307    0.7339125   -7.7976097  
C   -3.2577311    0.0159511   -8.4717308  
C   -3.9266205   -0.7096988   -9.5015943  
C   -5.3056834   -0.3918329   -9.4063350  
N   -5.4483441    0.4855822   -8.3601955  
C   -6.2668385   -0.9287898  -10.2681055  
C   -5.8277993   -1.8023116  -11.2440054  
O   -6.7240005   -2.3554178  -12.1122858  
C   -4.4560100   -2.1320719  -11.3547781  
O   -4.1775624   -3.0158697  -12.3768893  
C   -3.5072896   -1.6029385  -10.5047932  
H   -6.3145792    0.8948651   -8.0600192  
H   -7.3194255   -0.6906497  -10.2006442  
H   -6.2154477   -2.9265159  -12.7026121  
H   -3.2305991   -3.1856682  -12.3826192  
H   -2.4637546   -1.8742752  -10.6138358  
H   -4.1233629    1.4023805   -6.9590935  
C   -1.0641738    0.0073911   -4.6315339  
C    0.2077340    0.0068358   -5.1556689  
C    0.0728972    0.0090183   -6.5756740  
C   -1.3163591    0.0111477   -6.8618346  
N   -1.9782054    0.0081399   -5.6591012  
C   -1.8198413    0.0139274   -8.1661684  
C   -0.9041964    0.0148759   -9.2004660  
O   -1.3413930    0.0179230  -10.4934709  
C    0.4859166    0.0124095   -8.9351415  
O    1.2686357    0.0133318  -10.0712288  
C    0.9833257    0.0093938   -7.6486345  
H    1.1204512    0.0039692   -4.5847641  
H   -2.9756844    0.0192750   -5.5455505  
H   -0.5510075    0.0177823  -11.0489489  
H    2.1928159    0.0115560   -9.8038493  
H    2.0532874    0.0073712   -7.4764235  
C    1.1319245    0.0015656   -0.8009271  
C    0.7969914    0.0034943   -2.1169404  
C   -0.6453340    0.0035712   -2.1842672  
C   -1.1266833    0.0015434   -0.7896027  
N    0.0000000    0.0000000    0.0000000  
C   -2.4346131    0.0013965   -0.4276296  
C   -3.4350110    0.0031409   -1.4820182  
O   -4.6384610    0.0030975   -1.2583916  
C   -2.9478961    0.0050507   -2.9661073  
O   -3.7809383    0.0062220   -3.8623773  
C   -1.5113824    0.0053091   -3.2312124  
H    1.4821237    0.0045409   -2.9459193  
H   -2.7664564    0.0000233    0.6013449  
H    2.1104315    0.0009392   -0.3488061  
C    0.0000000    0.0000000    1.4700000  
C    1.0541688    0.0001722    2.3260392  
C    0.5103138    0.0000454    3.6635956  
C   -0.9576371   -0.0002459    3.5155732  
N   -1.2018458    0.0001392    2.1615969  
C   -1.8348311   -0.0008317    4.5510609  
C   -1.2972847   -0.0009736    5.9014604  
O   -2.0050672   -0.0014265    6.9001319  
C    0.2542623   -0.0004184    6.0817573  
O    0.7184670   -0.0002256    7.2139121  
C    1.0974552   -0.0000873    4.8889129  
H    2.0940752    0.0005483    2.0517982  
H   -2.9081052   -0.0011668    4.4207061  
H    2.1707277    0.0000911    5.0223670  
H   -2.1128194   -0.0014912    1.7406791  
