62

C   -1.0560328   -0.3804005   -9.5010377  
C   -1.3767052    0.8356502   -8.9434915  
C   -1.3988589    1.7877040  -10.0054246  
C   -1.0815532    1.0884347  -11.1980132  
N   -0.8773998   -0.2252728  -10.8557976  
C   -1.0125164    1.7145114  -12.4462318  
C   -1.2687584    3.0711532  -12.4914079  
O   -1.2153043    3.7322280  -13.6843608  
C   -1.5867043    3.7863152  -11.3123119  
O   -1.8150902    5.1306245  -11.5221160  
C   -1.6547231    3.1693761  -10.0805303  
H   -0.6472074   -0.9629343  -11.4967722  
H   -0.7710675    1.1872224  -13.3588503  
H   -1.4231965    4.6562515  -13.4940311  
H   -2.0230005    5.5394284  -10.6763867  
H   -1.9004966    3.7433121   -9.1947140  
H   -0.9391985   -1.3458594   -9.0393045  
C    0.5436212   -0.7158536   -5.2159133  
C    0.2183625   -0.4634326   -6.5285279  
C   -0.8742712    0.4534301   -6.5178236  
C   -1.1747021    0.7270468   -5.1588525  
N   -0.2963293   -0.0005341   -4.3948471  
C   -2.2005010    1.5942198   -4.7708634  
C   -2.9362258    2.1963789   -5.7730069  
O   -3.9492321    3.0522648   -5.4500647  
C   -2.6518952    1.9357510   -7.1346407  
O   -3.4734197    2.6114157   -8.0132297  
C   -1.6402436    1.0801671   -7.5181290  
H    0.7076327   -0.8887619   -7.3880062  
H   -2.4345909    1.8068364   -3.7368431  
H   -4.3269456    3.3559650   -6.2857461  
H   -3.2148938    2.3799551   -8.9105556  
H    1.3073801   -1.3506562   -4.8003930  
C    3.1301146   -0.0010313   -1.7028256  
C    2.5367765   -0.0002766   -0.4864669  
C    1.1089901    0.0001027   -0.7656184  
C    1.0177865   -0.0004150   -2.2415133  
N    2.1993571   -0.0011612   -2.7963824  
C   -0.2459219   -0.0002879   -2.9257116  
C   -1.3675326   -0.0000606   -2.1698520  
O   -2.6129318    0.0000865   -2.6748483  
C   -1.3083588    0.0000910   -0.6783229  
O   -2.3693264    0.0004206   -0.0541685  
C    0.0000000    0.0000000    0.0000000  
H    3.0096016   -0.0001007    0.4807518  
H   -3.1967444    0.0002093   -1.8949026  
H    4.1849275   -0.0015114   -1.9271979  
C    2.3971438    2.0127888    3.1728260  
C    1.9431056    1.6308205    1.9564670  
C    0.8496017    0.7127664    2.2356185  
C    0.7794028    0.6545384    3.7115134  
N    1.6840587    1.4146091    4.2663826  
C   -0.1885723   -0.1578550    4.3957118  
C   -1.0476298   -0.8789867    3.6398520  
O   -2.0015663   -1.6796266    4.1448486  
C   -1.0022026   -0.8410666    2.1483229  
O   -1.8147390   -1.5232959    1.5241687  
C    0.0000000    0.0000000    1.4700000  
H    2.3054237    1.9346118    0.9892483  
H   -0.2170646   -0.1815267    5.4753125  
H   -2.4487139   -2.0549881    3.3649027  
H    3.2048689    2.6911772    3.3971983  
