62

C    4.7848051   -1.0599256   -4.9721822  
C    5.6197354   -1.9467563   -4.3327379  
C    6.7112386   -2.2011878   -5.2150573  
C    6.4860861   -1.4350815   -6.3873685  
N    5.3069172   -0.7554980   -6.2075250  
C    7.3647723   -1.4407419   -7.4748737  
C    8.4914236   -2.2340022   -7.3770334  
O    9.3828955   -2.2764846   -8.4097413  
C    8.7333338   -3.0058222   -6.2157454  
O    9.8977770   -3.7436095   -6.2712835  
C    7.8667836   -3.0009334   -5.1426229  
H    5.4609870   -2.3603557   -3.3515514  
H    4.8952218   -0.1224087   -6.8691032  
H    7.1988063   -0.8592242   -8.3712524  
H   10.0854214   -2.8819324   -8.1392669  
H    9.9858418   -4.2352526   -5.4490096  
H    8.0784910   -3.6026872   -4.2665238  
C    2.9043666   -0.7136453   -3.3215827  
C    1.7334695    0.0049281   -3.2500363  
C    1.6178831    0.7351382   -4.4698857  
C    2.7571744    0.4192955   -5.2535849  
N    3.5185102   -0.4613568   -4.5259610  
C    2.9748795    0.9607492   -6.5241051  
C    2.0250236    1.8367721   -7.0125064  
O    2.1878117    2.3942862   -8.2476951  
C    0.8817970    2.1645729   -6.2454365  
O    0.0290284    3.0512977   -6.8698152  
C    0.6665129    1.6310030   -4.9918486  
H    3.8412008    0.7241713   -7.1263682  
H    1.4229306    2.9664849   -8.3919529  
H   -0.7162319    3.2195087   -6.2850967  
H   -0.2185375    1.9009315   -4.4276649  
H    3.3507356   -1.3850630   -2.6082023  
C    1.1319246    0.0015678   -0.8009268  
C    0.7969914    0.0034958   -2.1169401  
C   -0.6453340    0.0035696   -2.1842669  
C   -1.1266832    0.0015410   -0.7896025  
N    0.0000000    0.0000000    0.0000000  
C   -2.4346129    0.0013913   -0.4276292  
C   -3.4350111    0.0031335   -1.4820181  
O   -4.6384614    0.0030875   -1.2583914  
C   -2.9478961    0.0050442   -2.9661074  
O   -3.7809382    0.0062135   -3.8623773  
C   -1.5113825    0.0053055   -3.2312122  
H   -2.7664565    0.0000174    0.6013448  
H   -1.1823533    0.0068381   -4.2614848  
H    2.1104316    0.0009435   -0.3488059  
C    2.4951002    2.0940188    2.9809380  
C    1.9440701    1.6314916    1.8291961  
C    0.8759964    0.7350050    2.2038498  
C    0.8497377    0.7130254    3.6788474  
N    1.8560616    1.5571714    4.0882609  
C   -0.0205033   -0.0168748    4.4215661  
C   -0.9962600   -0.8356168    3.7214979  
O   -1.8224391   -1.5286685    4.3006425  
C   -0.9864710   -0.8277881    2.1595606  
O   -1.8030528   -1.5133726    1.5592035  
C    0.0000000    0.0000000    1.4700000  
H    2.2509283    1.8888011    0.8310761  
H   -0.0229599   -0.0187323    5.5027230  
H    3.3143982    2.7817323    3.1139444  
H    2.0889452    1.7545833    5.0442112  
