60

C   10.9047502    2.1209105   -3.0825355  
C   11.9577899    1.6221456   -2.3512312  
C   11.4053190    0.7484763   -1.3683390  
C    9.9986154    0.7538692   -1.5502263  
N    9.7283500    1.5988741   -2.5978620  
C    9.1301371    0.0017080   -0.7534916  
C    9.6919756   -0.7701901    0.2448515  
O    8.8899473   -1.5243492    1.0517026  
C   11.0932397   -0.7885000    0.4421844  
O   11.4982256   -1.6063463    1.4768130  
C   11.9505967   -0.0465165   -0.3432618  
H   12.9962937    1.8597395   -2.5063248  
H    8.8144349    1.7953359   -2.9641184  
H    9.4756697   -1.9784719    1.6713533  
H   12.4570013   -1.5613831    1.5426212  
H   13.0195646   -0.0805769   -0.1682654  
H   10.8996268    2.8088383   -3.9105979  
C    6.5739136    0.0018720   -4.3537910  
C    7.6280828    0.0019468   -3.4977523  
C    7.0842286    0.0017734   -2.1601960  
C    5.6162776    0.0015610   -2.3082181  
N    5.3720683    0.0020314   -3.6621936  
C    4.7390840    0.0009613   -1.2727298  
C    5.2766310    0.0007200    0.0776696  
O    4.5688485    0.0002469    1.0763412  
C    6.8281778    0.0011905    0.2579659  
O    7.2923826    0.0012993    1.3901205  
C    7.6713704    0.0015458   -0.9348787  
H    8.6679891    0.0022876   -3.7719937  
H    6.5739136    0.0019304   -5.4317014  
H    4.4610946    0.0004679   -4.0831118  
C    3.2798077    0.0005856   -1.4499661  
C    2.5571132    0.0005565   -2.5996564  
C    1.1637425    0.0001547   -2.2210366  
C    1.1336959   -0.0000200   -0.7459475  
N    2.4483509   -0.0001429   -0.3402730  
C    0.0000000    0.0000000    0.0000000  
C   -1.2757370   -0.0000187   -0.6964411  
O   -2.3524597   -0.0000640   -0.1142306  
C   -1.2676502   -0.0000874   -2.2584078  
O   -2.3355774   -0.0004102   -2.8557287  
C    0.0181551    0.0001758   -2.9516297  
H    2.9547342    0.0006074   -3.5989118  
H    0.0150776    0.0003317   -4.0331632  
H    2.7563626    0.0012823    0.6148051  
C    2.4951002    2.0940188    2.9809380  
C    1.9440701    1.6314916    1.8291961  
C    0.8759964    0.7350050    2.2038498  
C    0.8497377    0.7130254    3.6788474  
N    1.8560616    1.5571714    4.0882609  
C   -0.0205033   -0.0168748    4.4215661  
C   -0.9962600   -0.8356168    3.7214979  
O   -1.8224391   -1.5286685    4.3006425  
C   -0.9864710   -0.8277881    2.1595606  
O   -1.8030528   -1.5133726    1.5592035  
C    0.0000000    0.0000000    1.4700000  
H    2.2509283    1.8888011    0.8310761  
H   -0.0229599   -0.0187323    5.5027230  
H    3.3143982    2.7817323    3.1139444  
H    2.0889452    1.7545833    5.0442112  
