62

C   -3.3041240    0.0049520   -1.5420425  
C   -2.5845334    0.0044435   -0.3695848  
C   -1.2039991    0.0018481   -0.7283584  
C   -1.1422380    0.0011489   -2.1454370  
N   -2.4348657    0.0011250   -2.6077460  
C    0.0655162   -0.0009804   -2.8497916  
C    1.2321739   -0.0021232   -2.1101402  
O    2.4392781   -0.0038575   -2.7472522  
C    1.1911200   -0.0018268   -0.6955266  
O    2.4371498   -0.0035075   -0.1032865  
C    0.0000000    0.0000000    0.0000000  
H   -3.0031496    0.0046740    0.6222586  
H   -2.7054491    0.0112610   -3.5745257  
H    0.1193520   -0.0016676   -3.9297469  
H    3.1132955   -0.0047121   -2.0551789  
H    2.3200266   -0.0031527    0.8516406  
C   -4.7577172    0.0067872   -1.7610451  
C   -5.7612518    0.0098196   -0.8461764  
C   -7.0028569    0.0104384   -1.5832321  
C   -6.6377930    0.0074674   -3.0127462  
N   -5.2625454    0.0057472   -3.0525123  
C   -7.5310404    0.0066836   -4.0344173  
C   -8.9464517    0.0091411   -3.7040547  
O   -9.8285333    0.0087321   -4.5527205  
C   -9.3558844    0.0125582   -2.1966867  
O  -10.5445594    0.0149533   -1.9063335  
C   -8.3019706    0.0128332   -1.1851936  
H   -5.6449956    0.0116207    0.2229797  
H   -8.5938305    0.0150022   -0.1437824  
H   -4.7106113    0.0020432   -3.8906069  
C   -4.3236606   -2.1427110   -6.0543964  
C   -4.4726795   -1.7372950   -7.3369761  
C   -5.6055653   -0.8248906   -7.3127176  
C   -6.0301251   -0.7954230   -5.8965735  
N   -5.2823436   -1.5659106   -5.1541718  
C   -7.1383809    0.0035267   -5.4510008  
C   -7.7925138    0.7398771   -6.3779485  
O   -8.8437956    1.5306282   -6.1030662  
C   -7.3878417    0.7316034   -7.8147270  
O   -8.0286415    1.4262322   -8.6034529  
C   -6.2477188   -0.0962090   -8.2468980  
H   -3.8861979   -2.0221408   -8.1937012  
H   -9.0908325    1.9216528   -6.9605189  
H   -5.9861684   -0.0745229   -9.2963510  
H   -3.5906999   -2.8252518   -5.6545461  
C    2.5311839    2.1237619    3.0120429  
C    1.9795631    1.6616747    1.8395852  
C    0.9223175    0.7739173    2.1983588  
C    0.8753926    0.7337535    3.6154372  
N    1.8668922    1.5631002    4.0777464  
C   -0.0496243   -0.0427881    4.3197917  
C   -0.9437528   -0.7922060    3.5801400  
O   -1.8685244   -1.5680278    4.2172520  
C   -0.9124520   -0.7656372    2.1655264  
O   -1.8671164   -1.5663939    1.5732860  
C    0.0000000    0.0000000    1.4700000  
H    2.3005065    1.9304404    0.8477417  
H    2.0679347    1.7444845    5.0445261  
H   -0.0904770   -0.0778569    5.3997470  
H   -2.3849669   -2.0011402    3.5251786  
H   -1.7775064   -1.4909735    0.6183591  
H    3.3468514    2.8078103    3.1724291  
