66

C    0.6827532   -0.7107507   -5.1516735  
C    0.3353061   -0.4609401   -6.4590917  
C   -0.7638012    0.4477947   -6.4314648  
C   -1.0451347    0.7193735   -5.0680047  
N   -0.1496418   -0.0015612   -4.3176964  
C   -2.0711960    1.5789710   -4.6641739  
C   -2.8268261    2.1755109   -5.6548008  
O   -3.8410211    3.0239061   -5.3162067  
C   -2.5617282    1.9168005   -7.0206740  
O   -3.4017734    2.5862253   -7.8864318  
C   -1.5498286    1.0686877   -7.4197856  
H   -2.2907870    1.7899961   -3.6266528  
H   -4.2338969    3.3246749   -6.1459376  
H   -3.1554897    2.3565573   -8.7876538  
H   -1.3705331    0.8897148   -8.4734929  
H    1.4575543   -1.3398104   -4.7480329  
C    3.3003542    0.0005274   -1.4738989  
C    2.5232813    0.0003500   -2.6090754  
C    1.1623198   -0.0001317   -2.1820106  
C    1.1711884    0.0000582   -0.7636147  
N    2.4852300   -0.0014918   -0.3662361  
C    0.0000000    0.0000000    0.0000000  
C   -1.2020384    0.0000519   -0.6806478  
O   -2.3759247    0.0003492    0.0157742  
C   -1.2314657   -0.0005115   -2.0955509  
O   -2.5054391   -0.0008040   -2.6250184  
C   -0.0764518   -0.0007272   -2.8495197  
H    2.8919953   -0.0005616   -3.6205307  
H    2.8036268    0.0088182    0.5858658  
H   -3.0835641    0.0000344   -0.6418818  
H   -2.4360050   -0.0011528   -3.5845924  
H    4.3715548    0.0004898   -1.3667141  
C    1.4321067   -2.3345251   -7.7502708  
C    2.0054688   -2.5173884   -8.9873172  
C    1.9139984   -1.2720673   -9.6768160  
C    1.2701344   -0.3588663   -8.8030723  
N    0.9893847   -1.0369074   -7.6428753  
C    1.0120703    0.9696704   -9.1540432  
C    1.4115274    1.3839649  -10.4098187  
O    1.1844593    2.6709626  -10.8036361  
C    2.0550270    0.4875593  -11.2959240  
O    2.3910314    1.0509592  -12.5096067  
C    2.3096929   -0.8232880  -10.9504517  
H    2.4356257   -3.4357189   -9.3487401  
H    0.5216095    1.6706105   -8.4927313  
H    1.5358666    2.7481919  -11.7001928  
H    2.8207326    0.3794129  -13.0481104  
H    2.8041736   -1.4867000  -11.6503458  
H    1.3026464   -3.0274389   -6.9365942  
C    0.0000000    0.0000000    1.4700000  
C    1.0521667    0.0011902    2.3562342  
C    0.4917218    0.0011957    3.6679131  
C   -0.9187428   -0.0003148    3.5178682  
N   -1.1833171    0.0009411    2.1707914  
C   -1.7951701   -0.0010350    4.6072090  
C   -1.2375837   -0.0005224    5.8710424  
O   -2.0474215   -0.0015360    6.9697579  
C    0.1673580    0.0013566    6.0411963  
O    0.5673524    0.0020687    7.3615553  
C    1.0325770    0.0023412    4.9669890  
H    2.0953057    0.0030649    2.0900562  
H   -2.0989778   -0.0102372    1.7591824  
H   -2.8710934   -0.0020419    4.4995513  
H   -1.4634884   -0.0006497    7.7393593  
H    1.5290710    0.0033153    7.3880045  
H    2.1042148    0.0039609    5.1284455  
