64

C    9.8335046   -0.7056174   -2.2101054  
C   11.1858098   -0.4540777   -2.1885561  
C   11.4572299    0.4550542   -3.2536433  
C   10.2214796    0.7250816   -3.8954626  
N    9.2566788    0.0028818   -3.2380401  
C   10.1110803    1.5845892   -4.9926630  
C   11.2692147    2.1826320   -5.4500963  
O   11.2183735    3.0310121   -6.5181219  
C   12.5116913    1.9254821   -4.8232420  
O   13.5725552    2.5962914   -5.3958886  
C   12.6213878    1.0774594   -3.7409531  
H   11.8901845   -0.8750226   -1.4916662  
H    9.1722327    1.7944353   -5.4863556  
H   12.1233269    3.3329456   -6.6703053  
H   14.3730082    2.3676252   -4.9136108  
H   13.5867377    0.8997002   -3.2816263  
H    9.2350159   -1.3354727   -1.5744539  
C    5.6484569   -0.0000681   -0.6807740  
C    4.7161325   -0.0005435   -1.6923264  
C    5.4371286    0.0004103   -2.9230838  
C    6.8175140    0.0011681   -2.5968004  
N    6.9105280    0.0028045   -1.2271423  
C    7.8240135    0.0018979   -3.5672367  
C    7.4298415    0.0015550   -4.8911724  
O    8.3714604    0.0018843   -5.8792857  
C    6.0574640    0.0011754   -5.2367107  
O    5.8267420    0.0012878   -6.5968985  
C    5.0639868    0.0007285   -4.2798774  
H    7.7671525   -0.0069120   -0.7036150  
H    7.8889775    0.0018556   -6.7162295  
H    4.8759896    0.0009848   -6.7441179  
H    4.0211713    0.0006264   -4.5748589  
H    5.5130316   -0.0001048    0.3872235  
C    3.2573665   -0.0002920   -1.5109385  
C    2.5379463   -0.0001709   -0.3591964  
C    1.1435038    0.0000331   -0.7338500  
C    1.1092599   -0.0000083   -2.2088477  
N    2.4227553    0.0001909   -2.6182613  
C   -0.0265539   -0.0002524   -2.9515660  
C   -1.3003040   -0.0002640   -2.2514977  
O   -2.3786790   -0.0004133   -2.8306421  
C   -1.2877727    0.0000311   -0.6895603  
O   -2.3539959    0.0003306   -0.0892030  
C    0.0000000    0.0000000    0.0000000  
H    2.9384091   -0.0000367    0.6389234  
H   -0.0296303   -0.0004086   -4.0327229  
H    2.7280482   -0.0013407   -3.5742119  
C    2.5311839    2.1237619    3.0120429  
C    1.9795631    1.6616747    1.8395852  
C    0.9223175    0.7739173    2.1983588  
C    0.8753926    0.7337535    3.6154372  
N    1.8668922    1.5631002    4.0777464  
C   -0.0496243   -0.0427881    4.3197917  
C   -0.9437528   -0.7922060    3.5801400  
O   -1.8685244   -1.5680278    4.2172520  
C   -0.9124520   -0.7656372    2.1655264  
O   -1.8671164   -1.5663939    1.5732860  
C    0.0000000    0.0000000    1.4700000  
H    2.3005065    1.9304404    0.8477417  
H    2.0679347    1.7444845    5.0445261  
H   -0.0904770   -0.0778569    5.3997470  
H   -2.3849669   -2.0011402    3.5251786  
H   -1.7775064   -1.4909735    0.6183591  
H    3.3468514    2.8078103    3.1724291  
