66

C    1.5862969   -2.0670326   -5.3411836  
C    1.3189956   -1.5555212   -6.5899324  
C    0.1997469   -0.6822143   -6.4513058  
C   -0.1759083   -0.7009551   -5.0836590  
N    0.6852545   -1.5532115   -4.4381554  
C   -1.2456329    0.0471727   -4.5828766  
C   -1.9487576    0.8286865   -5.4789959  
O   -3.0021411    1.5794496   -5.0433908  
C   -1.5894389    0.8603676   -6.8474630  
O   -2.3865851    1.6866030   -7.6124701  
C   -0.5344143    0.1223711   -7.3422463  
H    0.6698561   -1.7594943   -3.4557139  
H   -3.3470230    2.0416476   -5.8184352  
H   -2.0769434    1.6504685   -8.5226465  
H   -0.2828471    0.1667449   -8.3954426  
H    2.3474954   -2.7588388   -5.0234745  
C    2.5477681   -3.1098399   -8.1566634  
C    3.2020140   -3.0282360   -9.3640452  
C    3.1175844   -1.6703048   -9.7924083  
C    2.3944520   -0.9641469   -8.7972467  
N    2.0618370   -1.8683177   -7.8192597  
C    2.1203562    0.4037764   -8.8891480  
C    2.5849808    1.0710545  -10.0058592  
O    2.3456763    2.4075137  -10.1459452  
C    3.3080318    0.3838468  -11.0097316  
O    3.7024178    1.1875349  -12.0594411  
C    3.5785668   -0.9656939  -10.9198581  
H    3.6802270   -3.8469783   -9.8739133  
H    1.5696244    0.9477568   -8.1341763  
H    2.7497808    2.6709977  -10.9829272  
H    4.1840438    0.6463966  -12.6925354  
H    4.1346223   -1.4650250  -11.7046824  
H    2.3880690   -3.9557122   -7.5101684  
C    1.1243410    0.0099923   -0.7919003  
C    0.7474076    0.0234544   -2.1148543  
C   -0.6787381    0.0234490   -2.1414700  
C   -1.1201745    0.0098592   -0.7935546  
N    0.0000000    0.0000000    0.0000000  
C   -2.4730816    0.0063709   -0.4408240  
C   -3.3971958    0.0170982   -1.4675058  
O   -4.7313517    0.0146259   -1.1793471  
C   -2.9763648    0.0303504   -2.8186324  
O   -4.0166480    0.0395118   -3.7247624  
C   -1.6418562    0.0335260   -3.1673481  
H    1.4178717    0.0310972   -2.9571209  
H   -2.8160166   -0.0041111    0.5845966  
H   -5.1938818    0.0230867   -2.0274384  
H   -3.6464675    0.0482293   -4.6127343  
H    2.1062467    0.0052819   -0.3505407  
C    2.5285572    2.1210227    2.9438989  
C    1.9331703    1.6216660    4.0790748  
C    0.8903039    0.7472258    3.6520102  
C    0.8972198    0.7527806    2.2336141  
N    1.9028376    1.5986179    1.8362361  
C    0.0000000    0.0000000    1.4700000  
C   -0.9207814   -0.7726952    2.1506477  
O   -1.8198395   -1.5274828    1.4542253  
C   -0.9436862   -0.7911793    3.5655508  
O   -1.9197945   -1.6098497    4.0950179  
C   -0.0590329   -0.0485852    4.3195194  
H    2.2150357    1.8593692    5.0905303  
H    2.1533708    1.7953814    0.8841339  
H   -2.3621246   -1.9821033    2.1118817  
H   -1.8668290   -1.5649508    5.0545920  
H   -0.1007624   -0.0827977    5.4019087  
H    3.3491200    2.8096064    2.8367138  
