60

C    3.4280303   -0.7148184   -6.2970935  
C    2.7831247    0.0022095   -7.2781316  
C    3.7837127    0.7302723   -7.9876020  
C    5.0306221    0.4147725   -7.3896035  
N    4.7784419   -0.4636162   -6.3651735  
C    6.2410671    0.9544695   -7.8349554  
C    6.1919014    1.8283499   -8.9036442  
O    7.3443624    2.3840874   -9.3790419  
C    4.9574577    2.1557750   -9.5133642  
O    5.0745701    3.0402745  -10.5656426  
C    3.7629057    1.6239378   -9.0743641  
H    5.4732933   -0.8716953   -5.7663130  
H    7.1947173    0.7181417   -7.3833991  
H    7.0887552    2.9549654  -10.1152669  
H    4.1963999    3.2083781  -10.9208357  
H    2.8329641    1.8935273   -9.5611996  
H    3.0314207   -1.3844426   -5.5532773  
C   -0.8712823    0.0001712   -4.7267111  
C    0.4275914    0.0003831   -5.1068516  
C    0.3927415    0.0003241   -6.5612532  
C   -1.0467458   -0.0000497   -6.8995724  
N   -1.7925759   -0.0000601   -5.8282523  
C   -1.5084807   -0.0001666   -8.2604132  
C   -0.5746200    0.0004680   -9.2387986  
O   -0.8627916    0.0004371  -10.5514290  
C    0.8856696    0.0012287   -8.9294207  
O    1.6794965    0.0016573   -9.8701967  
C    1.3340974    0.0012902   -7.5255561  
H    1.3014270    0.0006481   -4.4779741  
H   -2.5664444   -0.0006479   -8.4786409  
H    0.0042919    0.0010042  -10.9956352  
C    1.0965515    0.0001358   -0.8010304  
C    0.0000000    0.0000000    0.0000000  
C   -1.1546562    0.0001470   -0.8669514  
C   -0.6372012    0.0003520   -2.2486282  
N    0.7342873    0.0007338   -2.1395014  
C   -1.4147737    0.0001354   -3.3608717  
C   -2.8576047   -0.0001047   -3.1854463  
O   -3.6427778   -0.0002491   -4.1244908  
C   -3.4275837   -0.0000725   -1.7311667  
O   -4.6406828    0.0000333   -1.5710061  
C   -2.4891866   -0.0001090   -0.6116745  
H   -2.8919121   -0.0002919    0.3920865  
H    2.1388272    0.0000662   -0.5261647  
H    1.3735873   -0.0006098   -2.9130261  
C    0.8175213    0.6860729    2.3021913  
C    0.0000000    0.0000000    1.4700000  
C   -0.8887526   -0.7456559    2.3478473  
C   -0.4549825   -0.3816753    3.7138435  
N    0.5448156    0.4573574    3.6934124  
C   -1.0945674   -0.9182058    4.8835240  
C   -2.1210866   -1.7789155    4.6970523  
O   -2.8083856   -2.3554314    5.6976972  
C   -2.5824069   -2.1655116    3.3310774  
O   -3.5227682   -2.9541547    3.2362962  
C   -1.9100805   -1.6015804    2.1470656  
H   -0.7567140   -0.6349833    5.8697035  
H   -3.4728268   -2.9124471    5.2533954  
H   -2.2742832   -1.9066565    1.1752040  
H    1.6189533    1.3585343    2.0405121  
