66

C    1.9074116   -2.1157068   -5.2171214  
C    1.7366767   -1.6153236   -6.4871348  
C    0.6103641   -0.7412456   -6.4423309  
C    0.1310752   -0.7480686   -5.1073547  
N    0.9400194   -1.5942803   -4.3903106  
C   -0.9736297    0.0040464   -4.6965763  
C   -1.6058298    0.7773678   -5.6507645  
O   -2.6892500    1.5315498   -5.3037413  
C   -1.1427628    0.7971174   -6.9879237  
O   -1.8787348    1.6162792   -7.8189839  
C   -0.0531708    0.0551805   -7.3939358  
H    0.8493706   -1.7918998   -3.4101523  
H   -2.9736278    1.9867686   -6.1069657  
H   -1.5003142    1.5722375   -8.7024221  
H    0.2783222    0.0903615   -8.4251255  
H    2.6418356   -2.8044017   -4.8359664  
C    3.5811035   -5.4332399   -7.9053261  
C    2.8856752   -4.4882615   -7.1870891  
C    3.0337943   -3.2486871   -7.8771017  
C    3.8364398   -3.5012879   -9.0189770  
N    4.1530301   -4.8370226   -9.0047683  
C    4.1876316   -2.5027729   -9.9324428  
C    3.7197870   -1.2260606   -9.6889174  
O    4.0324988   -0.2134542  -10.5490639  
C    2.9180063   -0.9541524   -8.5548838  
O    2.5309884    0.3660178   -8.4513898  
C    2.5713807   -1.9386689   -7.6531613  
H    2.3397986   -4.6697841   -6.2771112  
H    4.7049760   -5.3100316   -9.6972997  
H    4.7991714   -2.6887888  -10.8045778  
H    3.6120363    0.5824191  -10.1982621  
H    1.9933626    0.4641789   -7.6596026  
H    3.7155899   -6.4850799   -7.7195708  
C    1.1188642    0.0008222   -0.8003808  
C    0.0000000    0.0000000    0.0000000  
C   -1.1323862    0.0008899   -0.8673528  
C   -0.6382663    0.0019679   -2.1969280  
N    0.7324016    0.0038481   -2.1202242  
C   -1.4770914    0.0027318   -3.3154808  
C   -2.8395473    0.0020945   -3.0876857  
O   -3.7039201    0.0024425   -4.1440349  
C   -3.3517868    0.0013931   -1.7684331  
O   -4.7300497    0.0012366   -1.7073121  
C   -2.5248543    0.0009123   -0.6644817  
H    1.3576314   -0.0056167   -2.9057046  
H   -4.5940032    0.0021826   -3.7685128  
H   -4.9934602    0.0007259   -0.7819913  
H   -2.9462577    0.0005603    0.3339659  
H    2.1619895    0.0009355   -0.5342068  
C    2.5285572    2.1210227    2.9438989  
C    1.9331703    1.6216660    4.0790748  
C    0.8903039    0.7472258    3.6520102  
C    0.8972198    0.7527806    2.2336141  
N    1.9028376    1.5986179    1.8362361  
C    0.0000000    0.0000000    1.4700000  
C   -0.9207814   -0.7726952    2.1506477  
O   -1.8198395   -1.5274828    1.4542253  
C   -0.9436862   -0.7911793    3.5655508  
O   -1.9197945   -1.6098497    4.0950179  
C   -0.0590329   -0.0485852    4.3195194  
H    2.2150357    1.8593692    5.0905303  
H    2.1533708    1.7953814    0.8841339  
H   -2.3621246   -1.9821033    2.1118817  
H   -1.8668290   -1.5649508    5.0545920  
H   -0.1007624   -0.0827977    5.4019087  
H    3.3491200    2.8096064    2.8367138  
