64

C    3.3982178   -0.7145515   -2.9707414  
C    4.6647797   -0.4659384   -3.4466418  
C    4.5287062    0.4428853   -4.5375698  
C    3.1442637    0.7157497   -4.6817636  
N    2.4861703   -0.0045376   -3.7159919  
C    2.6410831    1.5757823   -5.6625505  
C    3.5521108    2.1714432   -6.5130773  
O    3.1150136    3.0202122   -7.4885517  
C    4.9373492    1.9114455   -6.3852787  
O    5.7157918    2.5801127   -7.3073712  
C    5.4344347    1.0629029   -5.4181137  
H    5.5747236   -0.8885872   -3.0563047  
H    1.5870514    1.7877859   -5.7777583  
H    3.9017848    3.3202307   -7.9620967  
H    6.6368419    2.3495915   -7.1520321  
H    6.5005906    0.8829384   -5.3446134  
H    3.0731387   -1.3432799   -2.1595800  
C    0.0000000    0.0000000    0.0000000  
C    1.0521669   -0.0011899   -0.8862338  
C    0.4917222   -0.0011953   -2.1979129  
C   -0.9187426    0.0003152   -2.0478681  
N   -1.1833169   -0.0009409   -0.7007913  
C   -1.7951697    0.0010354   -3.1372090  
C   -1.2375835    0.0005230   -4.4010425  
O   -2.0474206    0.0015366   -5.4997579  
C    0.1673585   -0.0013561   -4.5711965  
O    0.5673529   -0.0020681   -5.8915554  
C    1.0325774   -0.0023407   -3.4969889  
H    2.0953060   -0.0030646   -0.6200560  
H   -2.0989776    0.0102374   -0.2891826  
H   -1.4634880    0.0006503   -6.2693594  
H    1.5290717   -0.0033145   -5.9180047  
C   -4.3329826    2.1449846   -0.3175486  
C   -5.5711586    1.7385014   -0.6826122  
C   -5.3538078    0.8273594   -1.7957513  
C   -3.8860973    0.7997144   -1.9736454  
N   -3.2823597    1.5700961   -1.1099311  
C   -3.2578649    0.0024042   -2.9908508  
C   -4.0594115   -0.7341197   -3.7935898  
O   -3.6090758   -1.5234572   -4.7836325  
C   -5.5440545   -0.7276665   -3.6388187  
O   -6.2116992   -1.4223508   -4.4049033  
C   -6.1645248    0.0984843   -2.5879064  
H   -6.5153680    2.0218842   -0.2499016  
H   -4.4116703   -1.9150340   -5.1730711  
H   -7.2431278    0.0755057   -2.5084196  
H   -4.0642025    2.8271071    0.4732986  
C    1.1188642   -0.0008217    2.2703808  
C    0.0000000    0.0000000    1.4700000  
C   -1.1323862   -0.0008904    2.3373528  
C   -0.6382662   -0.0019682    3.6669281  
N    0.7324016   -0.0038477    3.5902241  
C   -1.4770914   -0.0027325    4.7854808  
C   -2.8395474   -0.0020958    4.5576857  
O   -3.7039201   -0.0024443    5.6140350  
C   -3.3517868   -0.0013946    3.2384331  
O   -4.7300496   -0.0012389    3.1773122  
C   -2.5248543   -0.0009135    2.1344818  
H    1.3576314    0.0056174    4.3757045  
H   -1.1067570   -0.0036993    5.8013813  
H   -4.5940033   -0.0021850    5.2385129  
H   -4.9934601   -0.0007286    2.2519915  
H   -2.9462578   -0.0005617    1.1360343  
H    2.1619896   -0.0009344    2.0042067  
