62

C    6.2668822   -2.4129497   -6.1852439  
C    5.8392122   -1.1103900   -6.2988416  
C    6.6835964   -0.4770993   -7.2582984  
C    7.6155198   -1.4510383   -7.6997586  
N    7.3356783   -2.6144763   -7.0269149  
C    8.6032441   -1.1764344   -8.6504332  
C    8.6508756    0.1046110   -9.1650520  
O    9.5951651    0.4268016  -10.0964617  
C    7.7299853    1.0902342   -8.7368862  
O    7.9072896    2.3170813   -9.3424877  
C    6.7554796    0.8201105   -7.7988574  
H    7.8257405   -3.4832437   -7.1412089  
H    9.3165693   -1.9142730   -8.9909694  
H    9.4539077    1.3563844  -10.3182394  
H    7.2457934    2.9247846   -8.9979260  
H    6.0641156    1.5955168   -7.4902500  
H    5.8949947   -3.2138029   -5.5693765  
C    4.4169324   -0.7262674   -4.2519969  
C    4.7208626   -0.5096727   -5.5576723  
C    3.7394651    0.4171455   -6.0702175  
C    2.8323810    0.7249817   -4.9480649  
N    3.2973506   -0.0000934   -3.8752374  
C    1.7696588    1.5653030   -5.0267152  
C    1.5012086    2.2093687   -6.3017243  
O    0.5680930    2.9826266   -6.4739708  
C    2.4487524    1.8977311   -7.5037429  
O    2.2325020    2.4338348   -8.5822089  
C    3.5619521    0.9748805   -7.2964143  
H    1.1167837    1.7775499   -4.1914811  
H    4.2134810    0.7645636   -8.1336711  
H    4.9165212   -1.3554533   -3.5333689  
C    3.3321174    0.0004714   -1.3379332  
C    2.6974186    0.0000115   -2.5332308  
C    1.2800441   -0.0002119   -2.2052838  
C    1.2395035    0.0000643   -0.7271293  
N    2.4394063    0.0005458   -0.2131034  
C    0.0000000    0.0000000    0.0000000  
C   -1.1468701    0.0000634   -0.7169542  
O   -2.3742201    0.0000072   -0.1695492  
C   -1.1388767    0.0001606   -2.2096354  
O   -2.2206229    0.0000903   -2.7970413  
C    0.1454526    0.0001815   -2.9324239  
H   -2.9844344    0.0001023   -0.9290168  
H    0.1083580    0.0003680   -4.0135594  
H    4.3940040    0.0007617   -1.1498630  
C    2.5285572    2.1210227    2.9438989  
C    1.9331703    1.6216660    4.0790748  
C    0.8903039    0.7472258    3.6520102  
C    0.8972198    0.7527806    2.2336141  
N    1.9028376    1.5986179    1.8362361  
C    0.0000000    0.0000000    1.4700000  
C   -0.9207814   -0.7726952    2.1506477  
O   -1.8198395   -1.5274828    1.4542253  
C   -0.9436862   -0.7911793    3.5655508  
O   -1.9197945   -1.6098497    4.0950179  
C   -0.0590329   -0.0485852    4.3195194  
H    2.2150357    1.8593692    5.0905303  
H    2.1533708    1.7953814    0.8841339  
H   -2.3621246   -1.9821033    2.1118817  
H   -1.8668290   -1.5649508    5.0545920  
H   -0.1007624   -0.0827977    5.4019087  
H    3.3491200    2.8096064    2.8367138  
