64

C    9.0049379    0.0003326   -2.5522789  
C   10.0819819   -0.0023847   -1.6964539  
C   11.2566982   -0.0019791   -2.5055526  
C   10.8303098    0.0013444   -3.8583675  
N    9.4575163    0.0007261   -3.8509401  
C   11.7245178    0.0029244   -4.9331596  
C   13.0737413    0.0014233   -4.6368953  
O   13.9903247    0.0032107   -5.6482731  
C   13.5187445   -0.0022662   -3.2934766  
O   14.8921677   -0.0037807   -3.1628775  
C   12.6371529   -0.0040999   -2.2326680  
H   10.0276480   -0.0055152   -0.6212649  
H    8.8727362    0.0131523   -4.6669413  
H   11.4059269    0.0053128   -5.9664537  
H   14.8603211    0.0014142   -5.2283112  
H   15.1085423   -0.0062464   -2.2254451  
H   13.0076281   -0.0071078   -1.2142294  
C    6.7068651   -0.0034178    1.2828883  
C    7.7136027   -0.0021474    0.3453674  
C    7.0885451   -0.0007420   -0.9367798  
C    5.6872998   -0.0009462   -0.7166947  
N    5.4901253   -0.0045361    0.6418804  
C    4.7577216    0.0005129   -1.7610467  
C    5.2516908    0.0025159   -3.0510728  
O    4.3881528    0.0043528   -4.1081029  
C    6.6464198    0.0023765   -3.2909676  
O    6.9801784    0.0041002   -4.6296034  
C    7.5640501    0.0006642   -2.2611729  
H    8.7687021   -0.0033295    0.5592764  
H    4.5960836    0.0050495    1.0985848  
H    4.9330440    0.0052559   -4.9058233  
H    7.9393877    0.0039071   -4.7039039  
H    6.7604660   -0.0050604    2.3581011  
C    3.3041270    0.0001177   -1.5420435  
C    2.5845370   -0.0004780   -0.3695856  
C    1.2040004   -0.0000007   -0.7283590  
C    1.1422370    0.0006038   -2.1454373  
N    2.4348634    0.0026110   -2.6077469  
C   -0.0655187    0.0008799   -2.8497918  
C   -1.2321769    0.0002326   -2.1101398  
O   -2.4392822    0.0001149   -2.7472517  
C   -1.1911211   -0.0000007   -0.6955263  
O   -2.4371526   -0.0002319   -0.1032858  
C    0.0000000    0.0000000    0.0000000  
H    3.0031534   -0.0000661    0.6222578  
H    2.7054623   -0.0071098   -3.5745266  
H   -0.1193555    0.0014846   -3.9297472  
H   -3.1132992   -0.0000646   -2.0551783  
H   -2.3200279   -0.0004070    0.8516411  
C    0.0000000    0.0000000    1.4700000  
C    1.0541688    0.0001722    2.3260392  
C    0.5103138    0.0000454    3.6635956  
C   -0.9576371   -0.0002459    3.5155732  
N   -1.2018458    0.0001392    2.1615969  
C   -1.8348311   -0.0008317    4.5510609  
C   -1.2972847   -0.0009736    5.9014604  
O   -2.0050672   -0.0014265    6.9001319  
C    0.2542623   -0.0004184    6.0817573  
O    0.7184670   -0.0002256    7.2139121  
C    1.0974552   -0.0000873    4.8889129  
H    2.0940752    0.0005483    2.0517982  
H   -2.9081052   -0.0011668    4.4207061  
H    2.1707277    0.0000911    5.0223670  
H   -2.1128194   -0.0014912    1.7406791  
