62

C    5.9155478   -1.0405797   -3.1342933  
C    6.1721830   -1.9256755   -2.1129159  
C    7.5793825   -2.1588320   -2.1077556  
C    8.1338056   -1.3821341   -3.1571750  
N    7.0959647   -0.7169796   -3.7613875  
C    9.5019036   -1.3664954   -3.4450186  
C   10.3253512   -2.1489519   -2.6589695  
O   11.6693021   -2.1706071   -2.8963328  
C    9.7909661   -2.9310648   -1.6075188  
O   10.7397537   -3.6559534   -0.9163720  
C    8.4413721   -2.9471880   -1.3231583  
H    5.4355999   -2.3518022   -1.4534809  
H    7.1851939   -0.0809174   -4.5330379  
H    9.9306926   -0.7768137   -4.2435281  
H   12.0521245   -2.7716349   -2.2440463  
H   10.2960347   -4.1557629   -0.2243403  
H    8.0611527   -3.5563990   -0.5115102  
C    3.4074951   -0.7136029   -3.0381456  
C    4.6431370   -0.4603059   -3.5872323  
C    4.4415599    0.4568803   -4.6608878  
C    3.0508758    0.7297829   -4.7196075  
N    2.4521483    0.0014840   -3.7217481  
C    2.4894778    1.5970359   -5.6616759  
C    3.3476374    2.2000108   -6.5606532  
O    2.8525262    3.0560112   -7.5014736  
C    4.7381292    1.9401035   -6.5182465  
O    5.4596257    2.6165369   -7.4801322  
C    5.2926217    1.0844413   -5.5893190  
H    1.4303663    1.8091102   -5.7117651  
H    3.6093697    3.3603201   -8.0190155  
H    6.3884096    2.3855295   -7.3821501  
H    6.3613227    0.9047391   -5.5813379  
H    3.1318747   -1.3488822   -2.2138807  
C    0.0000000    0.0000000    0.0000000  
C    1.0662923   -0.0000101   -0.8334270  
C    0.4961873    0.0000065   -2.1718887  
C   -0.9663854   -0.0000848   -1.9540250  
N   -1.2632773   -0.0000083   -0.6828660  
C   -1.8985359   -0.0000514   -3.0477261  
C   -1.3925770    0.0004566   -4.3020547  
O   -2.1456378    0.0005414   -5.4151314  
C    0.0786240    0.0009326   -4.5545000  
O    0.4683767    0.0012591   -5.7221100  
C    1.0143171    0.0008444   -3.4159031  
H    2.1107200    0.0000633   -0.5721865  
H   -2.9622181   -0.0003268   -2.8593381  
H   -1.5042265    0.0009697   -6.1484419  
C    3.3321173   -0.0004715    2.8079335  
C    2.6974184   -0.0000116    4.0032312  
C    1.2800439    0.0002118    3.6752840  
C    1.2395035   -0.0000644    2.1971295  
N    2.4394063   -0.0005460    1.6831036  
C    0.0000000    0.0000000    1.4700000  
C   -1.1468701   -0.0000635    2.1869543  
O   -2.3742202   -0.0000073    1.6395491  
C   -1.1388768   -0.0001607    3.6796354  
O   -2.2206231   -0.0000905    4.2670412  
C    0.1454524   -0.0001816    4.4024240  
H    3.1367986    0.0000651    4.9860947  
H   -2.9844344   -0.0001026    2.3990168  
H    0.1083576   -0.0003682    5.4835595  
H    4.3940039   -0.0007619    2.6198634  
