62

C    9.1320815    0.0020685   -2.4059690  
C   10.1677595    0.0008880   -1.5005204  
C   11.3791658    0.0016214   -2.2535761  
C   11.0167590    0.0035520   -3.6249198  
N    9.6451313    0.0018247   -3.6819503  
C   11.9604400    0.0050263   -4.6565464  
C   13.2942675    0.0048502   -4.2972640  
O   14.2573218    0.0065992   -5.2644956  
C   13.6757108    0.0025615   -2.9344316  
O   15.0414863    0.0022633   -2.7394954  
C   12.7452874    0.0008328   -1.9161808  
H   10.0630090   -0.0014545   -0.4290658  
H    9.0992966    0.0131445   -4.5245160  
H   11.6907108    0.0063565   -5.7036599  
H   15.1066429    0.0058341   -4.8041502  
H   15.2136139    0.0006987   -1.7929366  
H   13.0675424   -0.0010862   -0.8814700  
C    6.6801370   -0.0033361    1.2661380  
C    7.7093285   -0.0019932    0.3802270  
C    7.1273475   -0.0004472   -0.9411853  
C    5.6642441   -0.0009742   -0.7511361  
N    5.4589561   -0.0031398    0.6092839  
C    4.7577216    0.0005129   -1.7610467  
C    5.2563291    0.0025579   -3.1263017  
O    4.5202042    0.0039399   -4.1042686  
C    6.8020687    0.0028972   -3.3510092  
O    7.2336222    0.0043058   -4.4960071  
C    7.6791158    0.0014554   -2.1828318  
H    8.7566698   -0.0022586    0.6245395  
H    6.7110426   -0.0046695    2.3436042  
H    4.5604248   -0.0024244    1.0561488  
C    3.3041270    0.0001177   -1.5420435  
C    2.5845370   -0.0004780   -0.3695856  
C    1.2040004   -0.0000007   -0.7283590  
C    1.1422370    0.0006038   -2.1454373  
N    2.4348634    0.0026110   -2.6077469  
C   -0.0655187    0.0008799   -2.8497918  
C   -1.2321769    0.0002326   -2.1101398  
O   -2.4392822    0.0001149   -2.7472517  
C   -1.1911211   -0.0000007   -0.6955263  
O   -2.4371526   -0.0002319   -0.1032858  
C    0.0000000    0.0000000    0.0000000  
H    3.0031534   -0.0000661    0.6222578  
H    2.7054623   -0.0071098   -3.5745266  
H   -0.1193555    0.0014846   -3.9297472  
H   -3.1132992   -0.0000646   -2.0551783  
H   -2.3200279   -0.0004070    0.8516411  
C    0.0000000    0.0000000    1.4700000  
C    1.0541688    0.0001722    2.3260392  
C    0.5103138    0.0000454    3.6635956  
C   -0.9576371   -0.0002459    3.5155732  
N   -1.2018458    0.0001392    2.1615969  
C   -1.8348311   -0.0008317    4.5510609  
C   -1.2972847   -0.0009736    5.9014604  
O   -2.0050672   -0.0014265    6.9001319  
C    0.2542623   -0.0004184    6.0817573  
O    0.7184670   -0.0002256    7.2139121  
C    1.0974552   -0.0000873    4.8889129  
H    2.0940752    0.0005483    2.0517982  
H   -2.9081052   -0.0011668    4.4207061  
H    2.1707277    0.0000911    5.0223670  
H   -2.1128194   -0.0014912    1.7406791  
