64

C    8.0573293    0.7180724   -4.4124313  
C    8.6569830    0.4706170   -5.6255471  
C    9.7289943   -0.4383711   -5.3823739  
C    9.7346470   -0.7125243   -3.9907083  
N    8.7081107    0.0071868   -3.4313735  
C   10.6605115   -1.5730580   -3.3931736  
C   11.5975505   -2.1679034   -4.2155442  
O   12.5247074   -3.0171121   -3.6842834  
C   11.6082920   -1.9066171   -5.6063821  
O   12.6033455   -2.5745950   -6.2897682  
C   10.6953759   -1.0575796   -6.1965057  
H    8.3591588    0.8941233   -6.5694406  
H   10.6702155   -1.7860425   -2.3331054  
H   13.0742505   -3.3164176   -4.4202751  
H   12.5404682   -2.3432142   -7.2214947  
H   10.7283807   -0.8766244   -7.2645155  
H    7.2177968    1.3465279   -4.1691473  
C    4.7630507    0.0004755   -1.3275395  
C    5.7496385    0.0026097   -2.2862402  
C    6.9990004    0.0020490   -1.5979847  
C    6.7092701   -0.0007640   -0.2094692  
N    5.3425445    0.0002945   -0.0803285  
C    7.7059377   -0.0023356    0.7710609  
C    9.0190064   -0.0013508    0.3420777  
O   10.0316325   -0.0031543    1.2572819  
C    9.3281966    0.0018248   -1.0389397  
O   10.6818191    0.0028611   -1.3054863  
C    8.3454711    0.0036499   -2.0068103  
H    5.5886421    0.0054611   -3.3506954  
H    4.8418150   -0.0117182    0.7897905  
H    7.4916924   -0.0043362    1.8309178  
H   10.8555488   -0.0017543    0.7528762  
H   10.8038891    0.0049982   -2.2597913  
C    3.3003548    0.0005276   -1.4738982  
C    2.5232817    0.0003497   -2.6090743  
C    1.1623204   -0.0001319   -2.1820101  
C    1.1711886    0.0000583   -0.7636140  
N    2.4852302   -0.0014919   -0.3662356  
C    0.0000000    0.0000000    0.0000000  
C   -1.2020379    0.0000520   -0.6806479  
O   -2.3759249    0.0003495    0.0157742  
C   -1.2314652   -0.0005112   -2.0955511  
O   -2.5054384   -0.0008036   -2.6250184  
C   -0.0764510   -0.0007271   -2.8495195  
H    2.8919962   -0.0005619   -3.6205297  
H    2.8036267    0.0088181    0.5858667  
H   -3.0835636    0.0000348   -0.6418823  
H   -2.4360038   -0.0011526   -3.5845925  
H   -0.1304090   -0.0013420   -3.9319089  
C    0.0000000    0.0000000    1.4700000  
C    1.0541688    0.0001722    2.3260392  
C    0.5103138    0.0000454    3.6635956  
C   -0.9576371   -0.0002459    3.5155732  
N   -1.2018458    0.0001392    2.1615969  
C   -1.8348311   -0.0008317    4.5510609  
C   -1.2972847   -0.0009736    5.9014604  
O   -2.0050672   -0.0014265    6.9001319  
C    0.2542623   -0.0004184    6.0817573  
O    0.7184670   -0.0002256    7.2139121  
C    1.0974552   -0.0000873    4.8889129  
H    2.0940752    0.0005483    2.0517982  
H   -2.9081052   -0.0011668    4.4207061  
H    2.1707277    0.0000911    5.0223670  
H   -2.1128194   -0.0014912    1.7406791  
