62

C    6.1962280   -0.7039764   -3.2357433  
C    7.4637399   -0.4545634   -2.7628004  
C    8.0770255    0.4546466   -3.6748405  
C    7.1275412    0.7269113   -4.6928181  
N    5.9974492    0.0059111   -4.3967323  
C    7.3916848    1.5871097   -5.7629001  
C    8.6369067    2.1835560   -5.8059644  
O    8.9474024    3.0325202   -6.8286393  
C    9.5977510    1.9241654   -4.7998274  
O   10.7899446    2.5935845   -4.9839358  
C    9.3379495    1.0754600   -3.7440204  
H    7.8938421   -0.8769403   -1.8708347  
H    6.6723657    1.7986593   -6.5420207  
H    9.8515231    3.3331089   -6.6690247  
H   11.3826374    2.3634377   -4.2618887  
H   10.0937832    0.8959727   -2.9883901  
H    5.4187467   -1.3331950   -2.8375406  
C    1.7334697    0.0049246   -3.2500361  
C    3.0913864    0.0046114   -3.2383151  
C    3.5242791    0.0065426   -4.6157893  
C    2.2984623    0.0080465   -5.4368628  
N    1.2476587    0.0065694   -4.5487759  
C    2.2819768    0.0104505   -6.7938549  
C    3.5566110    0.0114101   -7.4923125  
O    3.6472560    0.0134890   -8.7130008  
C    4.8674248    0.0095965   -6.6428604  
O    5.9464914    0.0100765   -7.2198154  
C    4.7574564    0.0073252   -5.1862363  
H    3.7182529    0.0030074   -2.3644445  
H    1.3716378    0.0116508   -7.3771145  
H    0.2773175    0.0086319   -4.8046686  
C    1.1319247    0.0015655   -0.8009267  
C    0.7969916    0.0034943   -2.1169401  
C   -0.6453337    0.0035710   -2.1842668  
C   -1.1266832    0.0015433   -0.7896026  
N    0.0000000    0.0000000    0.0000000  
C   -2.4346130    0.0013964   -0.4276294  
C   -3.4350109    0.0031408   -1.4820183  
O   -4.6384610    0.0030973   -1.2583915  
C   -2.9478956    0.0050505   -2.9661075  
O   -3.7809378    0.0062218   -3.8623775  
C   -1.5113821    0.0053090   -3.2312122  
H   -2.7664565    0.0000232    0.6013446  
H   -1.1823527    0.0068407   -4.2614846  
H    2.1104317    0.0009391   -0.3488056  
C    0.8576279    0.7185626    2.2703808  
C    0.0000000    0.0000000    1.4700000  
C   -0.8668858   -0.7285659    2.3373528  
C   -0.4876752   -0.4117774    3.6669281  
N    0.5635254    0.4678311    3.5902241  
C   -1.1297612   -0.9515493    4.7854808  
C   -2.1738724   -1.8268314    4.5576857  
O   -2.8357962   -2.3827064    5.6140350  
C   -2.5667212   -2.1555554    3.2384331  
O   -3.6226318   -3.0413663    3.1773122  
C   -1.9335634   -1.6236449    2.1344818  
H    1.0363952    0.8769718    4.3757045  
H   -0.8454472   -0.7142436    5.8013813  
H   -3.5178062   -2.9546422    5.2385129  
H   -3.8247440   -3.2102924    2.2519915  
H   -2.2566033   -1.8942483    1.1360343  
H    1.6567807    1.3889844    2.0042067  
