60

C    6.0026863   -0.7170275   -0.5887598  
C    6.5521053    0.0002407   -1.6261280  
C    7.6559002    0.7278534   -1.0905753  
C    7.7321719    0.4118439    0.2900933  
N    6.7126974   -0.4664022    0.5620748  
C    8.7055004    0.9510105    1.1366871  
C    9.6186495    1.8248750    0.5792857  
O   10.5903925    2.3801056    1.3605983  
C    9.5586572    2.1528039   -0.7960980  
O   10.5374979    3.0372172   -1.1998637  
C    8.5985525    1.6214902   -1.6318189  
H    6.5223506   -0.8747562    1.4592905  
H    8.7689170    0.7142927    2.1898469  
H   11.1126829    2.9510669    0.7822560  
H   10.4259575    3.2056821   -2.1404923  
H    8.5774790    1.8914585   -2.6811766  
H    5.1596471   -1.3864573   -0.5784134  
C    2.5562217   -0.0001551   -3.6003001  
C    3.5148523   -0.0005089   -2.6449955  
C    4.7727382   -0.0006031   -3.3759000  
C    4.3760686   -0.0003763   -4.8004127  
N    3.0779899   -0.0000325   -4.9381841  
C    5.3463911   -0.0003437   -5.8603948  
C    6.6535655   -0.0001401   -5.5130774  
O    7.6652141   -0.0000938   -6.3977289  
C    7.0856176    0.0000101   -4.0842692  
O    8.2923980    0.0000686   -3.8415698  
C    6.0711797   -0.0000707   -3.0152321  
H    3.3844828   -0.0005938   -1.5763142  
H    5.0281922   -0.0003826   -6.8927024  
H    8.4720664    0.0000892   -5.8517046  
C    0.0000000    0.0000000    0.0000000  
C    1.0541688   -0.0001722   -0.8560390  
C    0.5103141   -0.0000453   -2.1935955  
C   -0.9576367    0.0002460   -2.0455731  
N   -1.2018459   -0.0001392   -0.6915969  
C   -1.8348307    0.0008318   -3.0810611  
C   -1.2972843    0.0009738   -4.4314606  
O   -2.0050665    0.0014267   -5.4301321  
C    0.2542628    0.0004186   -4.6117570  
O    0.7184676    0.0002258   -5.7439117  
C    1.0974555    0.0000874   -3.4189127  
H    2.0940752   -0.0005483   -0.5817978  
H   -2.9081051    0.0011670   -2.9507061  
H   -2.1128194    0.0014912   -0.2706792  
C    3.1301144    0.0010313    3.1728260  
C    2.5367765    0.0002768    1.9564670  
C    1.1089900   -0.0001027    2.2356185  
C    1.0177864    0.0004150    3.7115134  
N    2.1993570    0.0011613    4.2663826  
C   -0.2459220    0.0002880    4.3957118  
C   -1.3675327    0.0000606    3.6398520  
O   -2.6129319   -0.0000866    4.1448486  
C   -1.3083589   -0.0000910    2.1483229  
O   -2.3693264   -0.0004206    1.5241687  
C    0.0000000    0.0000000    1.4700000  
H    3.0096015    0.0001008    0.9892483  
H   -0.2829642    0.0004689    5.4753125  
H   -3.1967446   -0.0002093    3.3649027  
H    4.1849273    0.0015113    3.3971983  
