62

C    5.6808439   -3.5740956   -1.4808088  
C    5.6495499   -2.9108931   -2.6856534  
C    6.8186205   -3.2988259   -3.4049456  
C    7.5310247   -4.2082663   -2.5819489  
N    6.8135608   -4.3516859   -1.4203581  
C    8.7376061   -4.7965142   -2.9729941  
C    9.2339076   -4.4608003   -4.2176461  
O   10.4081517   -5.0064360   -4.6494421  
C    8.5378488   -3.5550433   -5.0530633  
O    9.1612703   -3.3221057   -6.2615459  
C    7.3476130   -2.9741336   -4.6678259  
H    7.0679822   -4.9436744   -0.6504224  
H    9.2855027   -5.4902721   -2.3503293  
H   10.5702956   -4.6436737   -5.5299970  
H    8.6266343   -2.7003474   -6.7647206  
H    6.8372330   -2.2837370   -5.3291459  
H    4.9855227   -3.5528749   -0.6592024  
C    4.5980359   -1.9815538   -3.1233146  
C    3.4854371   -1.6054321   -2.4508302  
C    2.8041271   -0.6786476   -3.3415528  
C    3.6683875   -0.6094941   -4.5394075  
N    4.7214229   -1.3712007   -4.4173085  
C    3.3375007    0.2137348   -5.6698471  
C    2.1949513    0.9347924   -5.6066691  
O    1.7634392    1.7449076   -6.5882759  
C    1.3015815    0.8859885   -4.4118175  
O    0.2774371    1.5687932   -4.4230769  
C    1.6628945    0.0339172   -3.2649299  
H    3.1664182   -1.9183346   -1.4713430  
H    3.9875725    0.2452574   -6.5320083  
H    0.9280184    2.1174829   -6.2529968  
C    1.1243410    0.0100105   -0.7919003  
C    0.7474072    0.0234665   -2.1148542  
C   -0.6787384    0.0234379   -2.1414698  
C   -1.1201748    0.0098411   -0.7935547  
N    0.0000000    0.0000000    0.0000000  
C   -2.4730818    0.0063307   -0.4408240  
C   -3.3971962    0.0170429   -1.4675058  
O   -4.7313520    0.0145490   -1.1793468  
C   -2.9763654    0.0303020   -2.8186325  
O   -4.0166484    0.0394464   -3.7247625  
C   -1.6418567    0.0334992   -3.1673480  
H   -2.8160166   -0.0041569    0.5845966  
H   -5.1938823    0.0230023   -2.0274386  
H   -3.6464680    0.0481700   -4.6127343  
H   -1.3497475    0.0435647   -4.2109234  
H    2.1062466    0.0053162   -0.3505405  
C    2.5128556    2.1077716    2.9199648  
C    1.9592212    1.6432552    4.0696553  
C    0.8915788    0.7479214    3.6910360  
C    0.8684491    0.7287414    2.2159470  
N    1.8754542    1.5738793    1.8102719  
C    0.0000000    0.0000000    1.4700000  
C   -0.9772830   -0.8200135    2.1664417  
O   -1.8021297   -1.5120829    1.5842315  
C   -0.9711318   -0.8147624    3.7284083  
O   -1.7894187   -1.5009653    4.3257297  
C    0.0140216    0.0115358    4.4216297  
H    2.2638494    1.8988021    5.0689105  
H    0.0117648    0.0094386    5.5031631  
H    3.3327358    2.7953732    2.7900019  
H    2.1123206    1.7707734    0.8551938  
