62

C    3.0064170   -3.0442283   -4.4358013  
C    4.0943061   -3.6895383   -4.9766710  
C    4.6664052   -4.4828671   -3.9384359  
C    3.8780001   -4.2796968   -2.7769430  
N    2.8797967   -3.3992814   -3.1132079  
C    4.1514495   -4.9074519   -1.5579522  
C    5.2404490   -5.7559936   -1.5107009  
O    5.5523842   -6.3950811   -0.3456777  
C    6.0393437   -5.9712806   -2.6588453  
O    7.0877707   -6.8435792   -2.4509091  
C    5.7703283   -5.3521107   -3.8616702  
H    4.4344266   -3.5986973   -5.9940494  
H    2.1592133   -3.0748250   -2.4939597  
H    3.5545162   -4.7566959   -0.6690507  
H    6.3355358   -6.9301788   -0.5290084  
H    7.5765105   -6.9335667   -3.2747049  
H    6.4002431   -5.5363765   -4.7240684  
C    2.0577021   -2.1067615   -5.0538589  
C    2.0213365   -1.6421649   -6.3293598  
C    0.8918560   -0.7471749   -6.4193661  
C    0.2687255   -0.7282836   -5.0821513  
N    1.0227497   -1.5732438   -4.3008835  
C   -0.8287665    0.0000939   -4.7555305  
C   -1.4369821    0.8199929   -5.7901197  
O   -2.4278334    1.5117412   -5.5951870  
C   -0.7939004    0.8150431   -7.2135754  
O   -1.2973746    1.5011527   -8.0927953  
C    0.3886470   -0.0108721   -7.4444394  
H    2.7073328   -1.8974429   -7.1173043  
H    0.8279778   -0.0085678   -8.4327244  
H    0.8492698   -1.7702610   -3.3323090  
C    1.0672569   -0.0000698   -0.8321910  
C    0.0000000    0.0000000    0.0000000  
C   -1.1601223   -0.0000736   -0.8778472  
C   -0.5938729   -0.0000768   -2.2438435  
N    0.7113367   -0.0001553   -2.2234123  
C   -1.4286985   -0.0001877   -3.4135239  
C   -2.7683113   -0.0006798   -3.2270524  
O   -3.6653902   -0.0008302   -4.2276970  
C   -3.3702024   -0.0010610   -1.8610774  
O   -4.5974910   -0.0013779   -1.7662963  
C   -2.4926825   -0.0008943   -0.6770658  
H   -4.5324245   -0.0012258   -3.7833954  
H   -2.9677772   -0.0012974    0.2947961  
H    2.1134391   -0.0000547   -0.5705119  
C    0.8676693    0.7151171    2.2619005  
C    0.5875920    0.4624972    3.5848544  
C   -0.5048400   -0.4542819    3.6114698  
C   -0.8517165   -0.7276451    2.2635546  
N    0.0000000    0.0000000    1.4700000  
C   -1.8902865   -1.5946756    1.9108239  
C   -2.5912627   -2.1969500    2.9375057  
O   -3.6148162   -3.0527051    2.6493466  
C   -2.2603868   -1.9365747    4.2886322  
O   -3.0513550   -2.6123276    5.1947621  
C   -1.2361111   -1.0811317    4.6373480  
H    1.1060808    0.8876438    4.4271209  
H   -2.1597133   -1.8070987    0.8854031  
H   -3.9636755   -3.3565188    3.4974381  
H   -2.7621927   -2.3810384    6.0827341  
H   -1.0058879   -0.9010589    5.6809233  
H    1.6167816    1.3499334    1.8205408  
