62

C   -0.1919342   -2.9400803   -9.5469683  
C   -0.5753136   -1.9786376   -8.6408140  
C   -0.6920238   -0.7520718   -9.3595043  
C   -0.3651145   -1.0292114  -10.7116317  
N   -0.0645664   -2.3664064  -10.7903607  
C   -0.3749412   -0.0487547  -11.7083247  
C   -0.7213811    1.2347938  -11.3332778  
O   -0.7474044    2.2304929  -12.2665085  
C   -1.0503815    1.5310966   -9.9891135  
O   -1.3731533    2.8551887   -9.7747711  
C   -1.0406346    0.5644064   -9.0052726  
H   -0.7483747   -2.1411124   -7.5907455  
H    0.1945062   -2.8546409  -11.6285069  
H   -0.1266561   -0.2535048  -12.7406210  
H   -1.0100243    3.0348440  -11.8003384  
H   -1.5821727    2.9702624   -8.8427450  
H    0.0021232   -3.9893603   -9.4044485  
C    0.6605682   -0.7024455   -5.1602328  
C   -0.1387079    0.0017019   -4.3179684  
C   -1.0653111    0.7443399   -5.1393888  
C   -0.7380201    0.4127268   -6.5392829  
N    0.3171092   -0.4684296   -6.4831128  
C   -1.3885284    0.9128902   -7.6201994  
C   -2.4839898    1.8398445   -7.3894272  
O   -3.1316441    2.3448507   -8.2970685  
C   -2.8477046    2.2053534   -5.9150050  
O   -3.7679153    2.9849438   -5.7083357  
C   -2.0739364    1.6016378   -4.8330337  
H   -2.3322393    1.8597483   -3.8150051  
H    1.4717490   -1.3724716   -4.9258391  
H    0.7669205   -0.8798731   -7.2802526  
C    3.3041273    0.0001178   -1.5420428  
C    2.5845373   -0.0004780   -0.3695851  
C    1.2040007   -0.0000007   -0.7283589  
C    1.1422374    0.0006038   -2.1454372  
N    2.4348641    0.0026111   -2.6077464  
C   -0.0655179    0.0008799   -2.8497918  
C   -1.2321766    0.0002325   -2.1101402  
O   -2.4392814    0.0001148   -2.7472522  
C   -1.1911209   -0.0000007   -0.6955266  
O   -2.4371528   -0.0002320   -0.1032862  
C    0.0000000    0.0000000    0.0000000  
H    3.0031533   -0.0000660    0.6222584  
H    2.7054631   -0.0071097   -3.5745261  
H   -3.1132988   -0.0000648   -2.0551787  
H   -2.3200282   -0.0004072    0.8516409  
H    4.3686625    0.0004073   -1.7024290  
C    0.8175213    0.6860729    2.3021913  
C    0.0000000    0.0000000    1.4700000  
C   -0.8887526   -0.7456559    2.3478473  
C   -0.4549825   -0.3816753    3.7138435  
N    0.5448156    0.4573574    3.6934124  
C   -1.0945674   -0.9182058    4.8835240  
C   -2.1210866   -1.7789155    4.6970523  
O   -2.8083856   -2.3554314    5.6976972  
C   -2.5824069   -2.1655116    3.3310774  
O   -3.5227682   -2.9541547    3.2362962  
C   -1.9100805   -1.6015804    2.1470656  
H   -0.7567140   -0.6349833    5.8697035  
H   -3.4728268   -2.9124471    5.2533954  
H   -2.2742832   -1.9066565    1.1752040  
H    1.6189533    1.3585343    2.0405121  
