60

C    4.9959197   -0.8954644   -8.8252349  
C    5.3979216   -0.4933588  -10.0779012  
C    5.1542957    0.9094962  -10.1630120  
C    4.5984977    1.3114896   -8.9214739  
N    4.5142049    0.1908603   -8.1329929  
C    4.2337721    2.6333734   -8.6487326  
C    4.4340466    3.5665000   -9.6474038  
O    4.0958583    4.8715479   -9.4341137  
C    4.9869888    3.1847763  -10.8929389  
O    5.1236379    4.2291972  -11.7839259  
C    5.3467792    1.8808386  -11.1627953  
H    5.8143908   -1.1327239  -10.8373472  
H    3.8095576    2.9461572   -7.7045874  
H    4.3142526    5.3464867  -10.2465185  
H    5.5036367    3.8862865  -12.5985525  
H    5.7678595    1.6183521  -12.1262641  
H    5.0133673   -1.8714749   -8.3712985  
C    5.9578468   -2.0116381   -4.6613370  
C    5.0861938   -1.6298114   -3.6990437  
C    4.1732073   -0.7119466   -4.3627299  
C    4.6536422   -0.6536616   -5.7600020  
N    5.6994877   -1.4135383   -5.9410649  
C    4.0070647    0.1585852   -6.7536211  
C    2.9292835    0.8795219   -6.3689500  
O    2.2294971    1.6800091   -7.1908742  
C    2.4200480    0.8415395   -4.9663102  
O    1.4341931    1.5235888   -4.6868113  
C    3.1006054    0.0006263   -3.9654951  
H    5.0652945   -1.9335816   -2.6663952  
H    1.5255990    2.0552511   -6.6315228  
H    6.7914222   -2.6898664   -4.5711608  
C    3.2798083    0.0005857   -1.4499652  
C    2.5571142    0.0005565   -2.5996556  
C    1.1637432    0.0001548   -2.2210361  
C    1.1336964   -0.0000200   -0.7459473  
N    2.4483512   -0.0001428   -0.3402723  
C    0.0000000    0.0000000    0.0000000  
C   -1.2757368   -0.0000186   -0.6964415  
O   -2.3524598   -0.0000639   -0.1142311  
C   -1.2676497   -0.0000872   -2.2584083  
O   -2.3355766   -0.0004101   -2.8557295  
C    0.0181558    0.0001758   -2.9516296  
H    0.0150788    0.0003319   -4.0331631  
H    4.3498547    0.0008612   -1.3200026  
H    2.7563626    0.0012823    0.6148059  
C    0.0000000    0.0000000    1.4700000  
C    1.0541688    0.0001722    2.3260392  
C    0.5103138    0.0000454    3.6635956  
C   -0.9576371   -0.0002459    3.5155732  
N   -1.2018458    0.0001392    2.1615969  
C   -1.8348311   -0.0008317    4.5510609  
C   -1.2972847   -0.0009736    5.9014604  
O   -2.0050672   -0.0014265    6.9001319  
C    0.2542623   -0.0004184    6.0817573  
O    0.7184670   -0.0002256    7.2139121  
C    1.0974552   -0.0000873    4.8889129  
H    2.0940752    0.0005483    2.0517982  
H   -2.9081052   -0.0011668    4.4207061  
H    2.1707277    0.0000911    5.0223670  
H   -2.1128194   -0.0014912    1.7406791  
