60

C    7.8521920   -2.7882814   -4.2245542  
C    6.8630721   -1.8682415   -4.4846252  
C    7.5060431   -0.6105481   -4.6831093  
C    8.8995781   -0.8269028   -4.5308694  
N    9.0749675   -2.1594245   -4.2511501  
C    9.8424792    0.1973416   -4.6599033  
C    9.3700309    1.4629927   -4.9481691  
O   10.2473194    2.4996256   -5.0851809  
C    7.9832711    1.6988510   -5.1033648  
O    7.6712674    3.0122067   -5.3881336  
C    7.0524862    0.6889361   -4.9759409  
H    5.8078353   -2.0775980   -4.5250879  
H    9.9599702   -2.6097007   -4.1028155  
H   10.9059196    0.0389923   -4.5449169  
H    9.7164462    3.2824109   -5.2818708  
H    6.7161361    3.0854469   -5.4773671  
H    7.7820864   -3.8430418   -4.0207775  
C    3.4580103   -0.7268405   -2.8377751  
C    4.7325012   -0.5102402   -3.2535076  
C    4.6631580    0.4171276   -4.3580508  
C    3.2335495    0.7252806   -4.5531175  
N    2.5562217   -0.0001543   -3.6003001  
C    2.7508573    1.5661405   -5.5026795  
C    3.7028851    2.2104925   -6.3920543  
O    3.3673539    2.9842354   -7.2792080  
C    5.2217703    1.8985276   -6.2037144  
O    6.0326417    2.4348679   -6.9467404  
C    5.6204823    0.9750982   -5.1443947  
H    5.6199071   -0.9500704   -2.8343736  
H    1.6983101    1.7786118   -5.6288155  
H    3.1016697   -1.3563613   -2.0386413  
C    0.0000000    0.0000000    0.0000000  
C    1.0541688   -0.0001719   -0.8560391  
C    0.5103141   -0.0000449   -2.1935955  
C   -0.9576367    0.0002461   -2.0455733  
N   -1.2018459   -0.0001392   -0.6915970  
C   -1.8348306    0.0008319   -3.0810611  
C   -1.2972842    0.0009739   -4.4314605  
O   -2.0050664    0.0014267   -5.4301321  
C    0.2542628    0.0004190   -4.6117571  
O    0.7184677    0.0002263   -5.7439119  
C    1.0974556    0.0000880   -3.4189127  
H    2.0940752   -0.0005479   -0.5817978  
H   -2.9081050    0.0011669   -2.9507065  
H   -2.1128195    0.0014911   -0.2706793  
C    0.0000000    0.0000000    1.4700000  
C    1.0541688    0.0001722    2.3260392  
C    0.5103138    0.0000454    3.6635956  
C   -0.9576371   -0.0002459    3.5155732  
N   -1.2018458    0.0001392    2.1615969  
C   -1.8348311   -0.0008317    4.5510609  
C   -1.2972847   -0.0009736    5.9014604  
O   -2.0050672   -0.0014265    6.9001319  
C    0.2542623   -0.0004184    6.0817573  
O    0.7184670   -0.0002256    7.2139121  
C    1.0974552   -0.0000873    4.8889129  
H    2.0940752    0.0005483    2.0517982  
H   -2.9081052   -0.0011668    4.4207061  
H    2.1707277    0.0000911    5.0223670  
H   -2.1128194   -0.0014912    1.7406791  
