60

C   -4.0427418   -2.1219855   -7.3657153  
C   -4.5943605   -1.6598319   -6.1932833  
C   -5.6516022   -0.7720893   -6.5521054  
C   -5.6985267   -0.7320025   -7.9691854  
N   -4.7070310   -1.5613789   -8.4314500  
C   -6.6235400    0.0445050   -8.6735828  
C   -7.5176653    0.7939671   -7.9339718  
O   -8.4424336    1.5697583   -8.5711264  
C   -7.4863650    0.7674755   -6.5193564  
O   -8.4410252    1.5682685   -5.9271598  
C   -6.5739163    0.0018719   -5.8237888  
H   -4.2734185   -1.9285449   -5.2014252  
H   -4.5059893   -1.7428165   -9.3982186  
H   -6.6643933    0.0795152   -9.7535392  
H   -8.9588740    2.0029110   -7.8790761  
H   -8.3514158    1.4929000   -4.9722285  
H   -3.2270775   -2.8060463   -7.5260646  
C   -3.2941076    0.0012874   -2.9038237  
C   -4.0168015    0.0014139   -1.7541332  
C   -5.4101727    0.0018623   -2.1327525  
C   -5.4402198    0.0019580   -3.6078415  
N   -4.1255647    0.0019953   -4.0135168  
C   -6.5739158    0.0019521   -4.3537883  
C   -7.8496529    0.0020700   -3.6573468  
O   -8.9263750    0.0021356   -4.2395567  
C   -7.8415654    0.0022235   -2.0953801  
O   -8.9094927    0.0026302   -1.4980586  
C   -6.5557597    0.0019360   -1.4021586  
H   -3.6191803    0.0013981   -0.7548779  
H   -6.5588367    0.0018392   -0.3206253  
H   -3.8175535    0.0005033   -4.9685944  
C    0.0000000    0.0000000    0.0000000  
C    1.0541688   -0.0001722   -0.8560393  
C    0.5103135   -0.0000454   -2.1935957  
C   -0.9576374    0.0002459   -2.0455730  
N   -1.2018460   -0.0001391   -0.6915968  
C   -1.8348314    0.0008317   -3.0810607  
C   -1.2972851    0.0009737   -4.4314604  
O   -2.0050676    0.0014265   -5.4301315  
C    0.2542619    0.0004184   -4.6117571  
O    0.7184666    0.0002257   -5.7439121  
C    1.0974550    0.0000874   -3.4189130  
H    2.0940752   -0.0005483   -0.5817984  
H    2.1707276   -0.0000911   -3.5523671  
H   -2.1128194    0.0014912   -0.2706789  
C    0.0000000    0.0000000    1.4700000  
C    1.0541688    0.0001722    2.3260392  
C    0.5103138    0.0000454    3.6635956  
C   -0.9576371   -0.0002459    3.5155732  
N   -1.2018458    0.0001392    2.1615969  
C   -1.8348311   -0.0008317    4.5510609  
C   -1.2972847   -0.0009736    5.9014604  
O   -2.0050672   -0.0014265    6.9001319  
C    0.2542623   -0.0004184    6.0817573  
O    0.7184670   -0.0002256    7.2139121  
C    1.0974552   -0.0000873    4.8889129  
H    2.0940752    0.0005483    2.0517982  
H   -2.9081052   -0.0011668    4.4207061  
H    2.1707277    0.0000911    5.0223670  
H   -2.1128194   -0.0014912    1.7406791  
