64

C    2.8326037   -0.6833169   -3.3633887  
C    1.6628925    0.0340039   -3.2649298  
C    1.5245657    0.7732864   -4.4769228  
C    2.6494000    0.4640148   -5.2837844  
N    3.4243857   -0.4216253   -4.5769211  
C    2.8434623    1.0151249   -6.5539838  
C    1.8843885    1.8942270   -7.0182412  
O    2.0241860    2.4610989   -8.2519861  
C    0.7553092    2.2155784   -6.2278433  
O   -0.1091983    3.1064613   -6.8297557  
C    0.5633518    1.6724810   -4.9745581  
H    4.2836781   -0.8276226   -4.9005934  
H    1.2565215    3.0339106   -8.3778529  
H   -0.8436592    3.2698334   -6.2301885  
H   -0.3112987    1.9376388   -4.3921873  
H    3.2923186   -1.3598082   -2.6634028  
C    1.1243406    0.0100688   -0.7919002  
C    0.7474059    0.0235054   -2.1148541  
C   -0.6787399    0.0234027   -2.1414695  
C   -1.1201753    0.0097828   -0.7935544  
N    0.0000000    0.0000000    0.0000000  
C   -2.4730820    0.0062021   -0.4408240  
C   -3.3971973    0.0168663   -1.4675053  
O   -4.7313527    0.0143032   -1.1793467  
C   -2.9763671    0.0301476   -2.8186322  
O   -4.0166505    0.0392380   -3.7247624  
C   -1.6418583    0.0334141   -3.1673479  
H   -2.8160161   -0.0043035    0.5845968  
H   -5.1938832    0.0227323   -2.0274379  
H   -3.6464707    0.0479806   -4.6127339  
H   -1.3497499    0.0434950   -4.2109234  
H    2.1062463    0.0054254   -0.3505402  
C    5.0456083   -2.7942260   -7.3471165  
C    4.1571766   -1.8541237   -6.8787536  
C    4.5165107   -0.6086923   -7.4740517  
C    5.6410312   -0.8528582   -8.3033673  
N    5.9374088   -2.1894342   -8.2016734  
C    6.2641442    0.1530612   -9.0481122  
C    5.7423725    1.4286434   -8.9541890  
O    6.3120271    2.4482625   -9.6605065  
C    4.6211573    1.6921847   -8.1318509  
O    4.2205569    3.0122991   -8.1445333  
C    4.0061024    0.7003593   -7.3966531  
H    3.3501386   -2.0425803   -6.1916092  
H    6.6813645   -2.6574722   -8.6869071  
H    7.1215975   -0.0265090   -9.6819340  
H    5.8013057    3.2419358   -9.4543270  
H    3.4588003    3.1045682   -7.5641739  
H    5.1145832   -3.8480360   -7.1381040  
C    2.3971438    2.0127888    3.1728260  
C    1.9431056    1.6308205    1.9564670  
C    0.8496017    0.7127664    2.2356185  
C    0.7794028    0.6545384    3.7115134  
N    1.6840587    1.4146091    4.2663826  
C   -0.1885723   -0.1578550    4.3957118  
C   -1.0476298   -0.8789867    3.6398520  
O   -2.0015663   -1.6796266    4.1448486  
C   -1.0022026   -0.8410666    2.1483229  
O   -1.8147390   -1.5232959    1.5241687  
C    0.0000000    0.0000000    1.4700000  
H    2.3054237    1.9346118    0.9892483  
H   -0.2170646   -0.1815267    5.4753125  
H   -2.4487139   -2.0549881    3.3649027  
H    3.2048689    2.6911772    3.3971983  
