60

C    1.7986996   -4.2789719    1.6288945  
C    2.2455215   -3.4741471    0.6066052  
C    3.6665482   -3.5932919    0.5736223  
C    4.0329577   -4.4922737    1.6077886  
N    2.8751285   -4.8882505    2.2300842  
C    5.3605158   -4.8458120    1.8673862  
C    6.3359295   -4.2817880    1.0682478  
O    7.6482905   -4.5927663    1.2780461  
C    5.9902335   -3.3824529    0.0316635  
O    7.0747797   -2.9058919   -0.6754375  
C    4.6807935   -3.0330185   -0.2248289  
H    1.6238273   -2.8740517   -0.0355587  
H    2.8199668   -5.5341205    2.9967580  
H    5.6463530   -5.5302799    2.6541542  
H    8.1546162   -4.0978047    0.6208467  
H    6.7544098   -2.3059025   -1.3558639  
H    0.7974467   -4.4655012    1.9776903  
C    4.3630985   -2.0949034   -1.3110658  
C    3.1522516   -1.6320801   -1.7156888  
C    3.3924174   -0.7354490   -2.8216762  
C    4.8529073   -0.7137072   -3.0297350  
N    5.3832068   -1.5581148   -2.0817647  
C    5.4827044    0.0162383   -3.9848463  
C    4.6677385    0.8352842   -4.8666226  
O    5.1406420    1.5283997   -5.7578315  
C    3.1189441    0.8277105   -4.6641776  
O    2.4225428    1.5135518   -5.4003219  
C    2.5562217   -0.0001543   -3.6003001  
H    2.1995754   -1.8892845   -1.2880585  
H    6.5552965    0.0179184   -4.1206912  
H    6.3605512   -1.7557290   -1.9686522  
C    0.0000000    0.0000000    0.0000000  
C    1.0541688   -0.0001719   -0.8560391  
C    0.5103141   -0.0000449   -2.1935955  
C   -0.9576367    0.0002461   -2.0455733  
N   -1.2018459   -0.0001392   -0.6915970  
C   -1.8348306    0.0008319   -3.0810611  
C   -1.2972842    0.0009739   -4.4314605  
O   -2.0050664    0.0014267   -5.4301321  
C    0.2542628    0.0004190   -4.6117571  
O    0.7184677    0.0002263   -5.7439119  
C    1.0974556    0.0000880   -3.4189127  
H    2.0940752   -0.0005479   -0.5817978  
H   -2.9081050    0.0011669   -2.9507065  
H   -2.1128195    0.0014911   -0.2706793  
C    0.0000000    0.0000000    1.4700000  
C    1.0541688    0.0001722    2.3260392  
C    0.5103138    0.0000454    3.6635956  
C   -0.9576371   -0.0002459    3.5155732  
N   -1.2018458    0.0001392    2.1615969  
C   -1.8348311   -0.0008317    4.5510609  
C   -1.2972847   -0.0009736    5.9014604  
O   -2.0050672   -0.0014265    6.9001319  
C    0.2542623   -0.0004184    6.0817573  
O    0.7184670   -0.0002256    7.2139121  
C    1.0974552   -0.0000873    4.8889129  
H    2.0940752    0.0005483    2.0517982  
H   -2.9081052   -0.0011668    4.4207061  
H    2.1707277    0.0000911    5.0223670  
H   -2.1128194   -0.0014912    1.7406791  
