62

C   -5.0395340    3.6442081    1.6836441  
C   -4.1187238    3.0460985    0.8548852  
C   -2.8319523    3.5116630    1.2574639  
C   -3.0321023    4.3987570    2.3460091  
N   -4.3839331    4.4580197    2.5776504  
C   -1.9781823    5.0472593    2.9967674  
C   -0.6988846    4.7954268    2.5405266  
O    0.3667950    5.4019578    3.1400776  
C   -0.4789255    3.9137930    1.4555585  
O    0.8510061    3.7673771    1.1191263  
C   -1.5181900    3.2738922    0.8129215  
H   -4.8261508    5.0003062    3.2976163  
H   -2.1240967    5.7246176    3.8268870  
H    1.1545647    5.0930017    2.6739996  
H    0.9118766    3.1564524    0.3784037  
H   -1.3188730    2.6041579   -0.0154542  
H   -6.1121961    3.5557979    1.7068546  
C   -4.4297989    2.1087668   -0.2339402  
C   -5.6380128    1.6447699   -0.6450376  
C   -5.3911879    0.7496341   -1.7507698  
C   -3.9296547    0.7300037   -1.9515860  
N   -3.4052355    1.5747187   -1.0006228  
C   -3.2941076    0.0012878   -2.9038237  
C   -4.1035800   -0.8182215   -3.7902177  
O   -3.6253056   -1.5102279   -4.6794206  
C   -5.6534083   -0.8124880   -3.5957852  
O   -6.3452678   -1.4982644   -4.3362598  
C   -6.2225102    0.0137342   -2.5340264  
H   -6.5931621    1.9005366   -0.2220868  
H   -7.2964266    0.0119726   -2.4058679  
H   -2.4284984    1.7712471   -0.8805870  
C    0.0000000    0.0000000    0.0000000  
C    1.0541688   -0.0001723   -0.8560392  
C    0.5103136   -0.0000455   -2.1935956  
C   -0.9576373    0.0002461   -2.0455730  
N   -1.2018460   -0.0001389   -0.6915968  
C   -1.8348314    0.0008319   -3.0810607  
C   -1.2972851    0.0009739   -4.4314603  
O   -2.0050676    0.0014268   -5.4301316  
C    0.2542619    0.0004184   -4.6117572  
O    0.7184666    0.0002257   -5.7439122  
C    1.0974551    0.0000873   -3.4189129  
H    2.0940752   -0.0005484   -0.5817983  
H    2.1707276   -0.0000912   -3.5523673  
H   -2.1128194    0.0014915   -0.2706789  
C    3.3041272   -0.0001177    3.0120429  
C    2.5845372    0.0004780    1.8395852  
C    1.2040006    0.0000008    2.1983588  
C    1.1422373   -0.0006037    3.6154372  
N    2.4348639   -0.0026109    4.0777464  
C   -0.0655181   -0.0008797    4.3197917  
C   -1.2321768   -0.0002324    3.5801400  
O   -2.4392816   -0.0001146    4.2172520  
C   -1.1911209    0.0000007    2.1655264  
O   -2.4371527    0.0002320    1.5732860  
C    0.0000000    0.0000000    1.4700000  
H    3.0031534    0.0000661    0.8477417  
H    2.7054629    0.0071099    5.0445261  
H   -0.1193549   -0.0014844    5.3997470  
H   -3.1132988    0.0000648    3.5251786  
H   -2.3200282    0.0004071    0.6183591  
H    4.3686625   -0.0004071    3.1724291  
