60

C    4.7526399   -0.7387354   -7.3874713  
C    4.2114880    0.5252499   -7.3431569  
C    5.0443041    1.3629830   -8.1426712  
C    6.0864657    0.5477820   -8.6538175  
N    5.8804128   -0.7219743   -8.1743606  
C    7.0949590    1.0429521   -9.4860055  
C    7.0504155    2.3854559   -9.8083065  
O    8.0102025    2.9209758  -10.6176525  
C    6.0188577    3.2150742   -9.3078696  
O    6.1133215    4.5286513   -9.7188872  
C    5.0237808    2.7273130   -8.4866275  
H    6.4554269   -1.5194886   -8.3776131  
H    7.8920907    0.4268942   -9.8787585  
H    7.7947424    3.8577787  -10.7137798  
H    5.3797048    5.0202845   -9.3371704  
H    4.2467128    3.3869796   -8.1185482  
H    4.4241899   -1.6505987   -6.9188728  
C    2.8304417   -0.6884965   -3.3925843  
C    1.6707636   -0.0012343   -3.2725974  
C    1.5456304    0.7433279   -4.5161684  
C    2.7498706    0.3774787   -5.2924055  
N    3.5067377   -0.4616185   -4.6389091  
C    3.0025208    0.9125020   -6.6019869  
C    2.0932672    1.7735555   -7.1130437  
O    2.2014900    2.3487950   -8.3227659  
C    0.8678254    2.1620227   -6.3543962  
O    0.0833290    2.9508793   -6.8811712  
C    0.6312574    1.5996150   -5.0128827  
H    1.4067976    2.9064667   -8.4041229  
H   -0.2683269    1.9060259   -4.4960740  
H    3.2808702   -1.3606812   -2.6796642  
C    1.0965514    0.0001358   -0.8010306  
C    0.0000000    0.0000000    0.0000000  
C   -1.1546565    0.0001470   -0.8669508  
C   -0.6372019    0.0003520   -2.2486278  
N    0.7342867    0.0007338   -2.1395012  
C   -1.4147744    0.0001354   -3.3608712  
C   -2.8576052   -0.0001047   -3.1854454  
O   -3.6427785   -0.0002490   -4.1244896  
C   -3.4275841   -0.0000727   -1.7311660  
O   -4.6406832    0.0000333   -1.5710049  
C   -2.4891868   -0.0001090   -0.6116739  
H   -1.0150456    0.0001617   -4.3654239  
H   -2.8919122   -0.0002919    0.3920871  
H    2.1388270    0.0000663   -0.5261650  
C    0.0000000    0.0000000    1.4700000  
C    1.0662921    0.0000102    2.3034270  
C    0.4961870   -0.0000064    3.6418889  
C   -0.9663858    0.0000850    3.4240247  
N   -1.2632773    0.0000084    2.1528658  
C   -1.8985362    0.0000517    4.5177257  
C   -1.3925775   -0.0004564    5.7720543  
O   -2.1456383   -0.0005410    6.8851312  
C    0.0786232   -0.0009323    6.0245000  
O    0.4683759   -0.0012588    7.1921102  
C    1.0143166   -0.0008442    4.8859032  
H    2.1107198   -0.0000632    2.0421868  
H   -2.9622183    0.0003270    4.3293377  
H   -1.5042274   -0.0009692    7.6184419  
H    2.0724152   -0.0013148    5.1109744  
