64

C   -3.5733089    0.0040245   -7.0541789  
C   -4.2679603    0.0044005   -5.8667759  
C   -5.6557709    0.0049560   -6.1962947  
C   -5.7474669    0.0046045   -7.6117514  
N   -4.4648990    0.0059918   -8.1012760  
C   -6.9698381    0.0046816   -8.2904257  
C   -8.1206055    0.0048146   -7.5262829  
O   -9.3409045    0.0045437   -8.1377431  
C   -8.0496633    0.0055404   -6.1128536  
O   -9.2829002    0.0060071   -5.4944129  
C   -6.8441100    0.0057380   -5.4426544  
H   -3.8284768    0.0053934   -4.8840013  
H   -4.2147940   -0.0044545   -9.0735509  
H   -7.0464863    0.0045593   -9.3690021  
H  -10.0001456    0.0049962   -7.4315801  
H   -9.1456222    0.0064584   -4.5421745  
H   -6.8212070    0.0064802   -4.3591636  
C   -0.1387078    0.0017019   -4.3179684  
C    0.8715321    0.0021967   -5.2254322  
C    0.2617556    0.0029743   -6.5342509  
C   -1.1970048    0.0029205   -6.3133239  
N   -1.3734972    0.0017348   -4.9488690  
C   -2.1246669    0.0039286   -7.3038527  
C   -1.6550225    0.0049218   -8.6793414  
O   -2.4116501    0.0058066   -9.6415332  
C   -0.1143765    0.0047446   -8.9366640  
O    0.2928835    0.0052679  -10.0905275  
C    0.7871615    0.0038972   -7.7872816  
H    1.9238030    0.0018531   -5.0033075  
H    1.8524583    0.0039851   -7.9740077  
H   -2.2623839    0.0029669   -4.4831157  
C    3.3041272    0.0001178   -1.5420428  
C    2.5845372   -0.0004779   -0.3695851  
C    1.2040007   -0.0000007   -0.7283589  
C    1.1422375    0.0006038   -2.1454371  
N    2.4348641    0.0026111   -2.6077464  
C   -0.0655179    0.0008799   -2.8497918  
C   -1.2321766    0.0002325   -2.1101402  
O   -2.4392816    0.0001148   -2.7472523  
C   -1.1911209   -0.0000007   -0.6955266  
O   -2.4371527   -0.0002320   -0.1032863  
C    0.0000000    0.0000000    0.0000000  
H    3.0031533   -0.0000660    0.6222584  
H    2.7054632   -0.0071097   -3.5745261  
H   -3.1132986   -0.0000648   -2.0551788  
H   -2.3200284   -0.0004071    0.8516409  
H    4.3686626    0.0004072   -1.7024289  
C    2.5311839    2.1237619    3.0120429  
C    1.9795631    1.6616747    1.8395852  
C    0.9223175    0.7739173    2.1983588  
C    0.8753926    0.7337535    3.6154372  
N    1.8668922    1.5631002    4.0777464  
C   -0.0496243   -0.0427881    4.3197917  
C   -0.9437528   -0.7922060    3.5801400  
O   -1.8685244   -1.5680278    4.2172520  
C   -0.9124520   -0.7656372    2.1655264  
O   -1.8671164   -1.5663939    1.5732860  
C    0.0000000    0.0000000    1.4700000  
H    2.3005065    1.9304404    0.8477417  
H    2.0679347    1.7444845    5.0445261  
H   -0.0904770   -0.0778569    5.3997470  
H   -2.3849669   -2.0011402    3.5251786  
H   -1.7775064   -1.4909735    0.6183591  
H    3.3468514    2.8078103    3.1724291  
