64

C    0.6827532   -0.7107506   -5.1516732  
C    0.3353062   -0.4609401   -6.4590914  
C   -0.7638013    0.4477949   -6.4314647  
C   -1.0451347    0.7193736   -5.0680048  
N   -0.1496419   -0.0015610   -4.3176963  
C   -2.0711959    1.5789712   -4.6641738  
C   -2.8268260    2.1755111   -5.6548010  
O   -3.8410211    3.0239065   -5.3162069  
C   -2.5617280    1.9168005   -7.0206736  
O   -3.4017735    2.5862257   -7.8864319  
C   -1.5498284    1.0686877   -7.4197853  
H    0.8143256   -0.8827542   -7.3260446  
H   -2.2907868    1.7899961   -3.6266529  
H   -4.2338967    3.3246751   -6.1459378  
H   -3.1554898    2.3565578   -8.7876542  
H    1.4575545   -1.3398104   -4.7480328  
C    3.3003539    0.0005280   -1.4738993  
C    2.5232814    0.0003499   -2.6090749  
C    1.1623199   -0.0001318   -2.1820107  
C    1.1711883    0.0000584   -0.7636139  
N    2.4852299   -0.0014918   -0.3662363  
C    0.0000000    0.0000000    0.0000000  
C   -1.2020386    0.0000521   -0.6806478  
O   -2.3759249    0.0003494    0.0157743  
C   -1.2314659   -0.0005113   -2.0955513  
O   -2.5054393   -0.0008036   -2.6250183  
C   -0.0764519   -0.0007271   -2.8495194  
H    2.8919952   -0.0005617   -3.6205307  
H    2.8036268    0.0088183    0.5858658  
H   -3.0835640    0.0000347   -0.6418814  
H   -2.4360050   -0.0011527   -3.5845922  
H    4.3715552    0.0004897   -1.3667139  
C   -0.5099750   -2.6084355   -9.6460711  
C   -0.4523800   -2.0445999  -10.8995627  
C   -0.7512516   -0.6582758  -10.7466516  
C   -0.9842455   -0.4325728   -9.3658193  
N   -0.8315985   -1.6377739   -8.7264397  
C   -1.3066280    0.8259248   -8.8490575  
C   -1.3951233    1.8757597   -9.7424739  
O   -1.7064948    3.1258389   -9.2915154  
C   -1.1665102    1.6704392  -11.1239208  
O   -1.2923900    2.8147268  -11.8842531  
C   -0.8486968    0.4291197  -11.6344575  
H   -0.2242263   -2.5683173  -11.8120643  
H   -0.9258144   -1.7863852   -7.7379964  
H   -1.7164156    3.7013733  -10.0673552  
H   -1.1223552    2.5890551  -12.8039081  
H   -0.6792506    0.3024200  -12.6973379  
H   -0.3484860   -3.6264673   -9.3354406  
C    2.5128556    2.1077716    2.9199648  
C    1.9592212    1.6432552    4.0696553  
C    0.8915788    0.7479214    3.6910360  
C    0.8684491    0.7287414    2.2159470  
N    1.8754542    1.5738793    1.8102719  
C    0.0000000    0.0000000    1.4700000  
C   -0.9772830   -0.8200135    2.1664417  
O   -1.8021297   -1.5120829    1.5842315  
C   -0.9711318   -0.8147624    3.7284083  
O   -1.7894187   -1.5009653    4.3257297  
C    0.0140216    0.0115358    4.4216297  
H    2.2638494    1.8988021    5.0689105  
H    0.0117648    0.0094386    5.5031631  
H    3.3327358    2.7953732    2.7900019  
H    2.1123206    1.7707734    0.8551938  
