62

C   -0.3433004    0.6434119   -9.3306424  
C    0.7428813   -0.1873332   -9.4807722  
C    1.1204968   -0.1346836  -10.8552670  
C    0.2210224    0.7523171  -11.5003258  
N   -0.6559486    1.2054245  -10.5462666  
C    0.2961617    1.0451709  -12.8653835  
C    1.2977438    0.4316575  -13.5924401  
O    1.4167990    0.6824146  -14.9288387  
C    2.2045649   -0.4566742  -12.9668535  
O    3.1447266   -0.9873630  -13.8258110  
C    2.1308650   -0.7462553  -11.6202887  
H    1.2053891   -0.7615878   -8.6963547  
H   -1.4021360    1.8576528  -10.7068424  
H   -0.3864134    1.7201930  -13.3630179  
H    2.1684255    0.1605632  -15.2386672  
H    3.7172161   -1.5757674  -13.3241748  
H    2.8394242   -1.4308978  -11.1689718  
C   -0.0037894   -0.7105357   -5.1341629  
C   -1.0641734    0.0073898   -4.6315339  
C   -1.6260113    0.7376868   -5.7203886  
C   -0.8603254    0.4225624   -6.8720602  
N    0.1176067   -0.4577637   -6.4805350  
C   -1.1316213    0.9642911   -8.1321066  
C   -2.1954360    1.8398552   -8.2314162  
O   -2.5045515    2.3976109   -9.4382178  
C   -2.9709720    2.1669376   -7.0937083  
O   -3.9953199    3.0532737   -7.3553649  
C   -2.7037384    1.6330961   -5.8502753  
H    0.8069746   -0.8660654   -7.0855500  
H   -3.2684074    2.9694094   -9.2871062  
H   -4.4693360    3.2210058   -6.5351342  
H   -3.3151846    1.9024720   -4.9970178  
H    0.6764262   -1.3817976   -4.6385083  
C    1.1319248    0.0015675   -0.8009270  
C    0.7969916    0.0034959   -2.1169404  
C   -0.6453336    0.0035703   -2.1842672  
C   -1.1266831    0.0015415   -0.7896027  
N    0.0000000    0.0000000    0.0000000  
C   -2.4346129    0.0013924   -0.4276297  
C   -3.4350110    0.0031352   -1.4820184  
O   -4.6384610    0.0030897   -1.2583919  
C   -2.9478958    0.0050460   -2.9661075  
O   -3.7809377    0.0062160   -3.8623775  
C   -1.5113821    0.0053068   -3.2312125  
H    1.4821240    0.0045436   -2.9459192  
H   -2.7664565    0.0000185    0.6013447  
H    2.1104318    0.0009428   -0.3488058  
C    0.8681109    0.7263879    2.2709268  
C    0.6127770    0.5096195    3.5869401  
C   -0.4920590   -0.4175482    3.6542670  
C   -0.8620974   -0.7254003    2.2596025  
N    0.0000000    0.0000000    1.4700000  
C   -1.8641242   -1.5660088    1.8976294  
C   -2.6293522   -2.2103885    2.9520183  
O   -3.5512764   -2.9839180    2.7283916  
C   -2.2549728   -1.8987399    4.4361073  
O   -2.8923672   -2.4351063    5.3323774  
C   -1.1543735   -0.9755647    4.7012123  
H    1.1382914    0.9492124    4.4159191  
H   -2.1192137   -1.7782617    0.8686553  
H   -0.9013378   -0.7652422    5.7314848  
H    1.6172880    1.3558399    1.8188057  
