64

C   -7.4978475    3.0855748   -0.0064326  
C   -7.0359825    1.8524210   -0.4045289  
C   -8.1189286    0.9354872   -0.2594040  
C   -9.2251766    1.6728210    0.2350438  
N   -8.8132594    2.9744246    0.3791626  
C  -10.4674957    1.0876419    0.4977196  
C  -10.5954816   -0.2664806    0.2565776  
O  -11.7867533   -0.8884199    0.4954813  
C   -9.5031685   -1.0192591   -0.2363668  
O   -9.7890441   -2.3557288   -0.4246933  
C   -8.2772222   -0.4426781   -0.4954725  
H   -9.3869313    3.7322758    0.7024932  
H  -11.3145069    1.6440651    0.8747706  
H  -11.6607161   -1.8178860    0.2642430  
H   -8.9990909   -2.7915948   -0.7587556  
H   -7.4588550   -1.0448454   -0.8724964  
H   -6.9926185    4.0353337    0.0343200  
C   -4.5109071    2.0977186   -0.3577879  
C   -3.4201851    1.6341429   -1.0207351  
C   -3.9001607    0.7380705   -2.0461682  
C   -5.3704635    0.7174770   -1.9254398  
N   -5.6768568    1.5619483   -0.8833834  
C   -6.1968217   -0.0116749   -2.7173831  
C   -5.5981518   -0.8310168   -3.7579638  
O   -6.2573266   -1.5234764   -4.5223515  
C   -4.0429941   -0.8246547   -3.9037356  
O   -3.5275663   -1.5107550   -4.7760092  
C   -3.2578655    0.0024282   -2.9908505  
H   -2.3962312    1.8904974   -0.8147870  
H   -7.2728523   -0.0125174   -2.6121839  
H   -4.5610337    2.7855092    0.4706574  
C    0.0000000    0.0000000    0.0000000  
C    1.0521666   -0.0011982   -0.8862343  
C    0.4917215   -0.0011996   -2.1979132  
C   -0.9187429    0.0003215   -2.0478682  
N   -1.1833171   -0.0009323   -0.7007913  
C   -1.7951703    0.0010483   -3.1372089  
C   -1.2375841    0.0005313   -4.4010422  
O   -2.0474218    0.0015510   -5.4997578  
C    0.1673576   -0.0013585   -4.5711963  
O    0.5673520   -0.0020735   -5.8915554  
C    1.0325768   -0.0023493   -3.4969892  
H    2.0953056   -0.0030808   -0.6200564  
H   -2.0989778    0.0102529   -0.2891822  
H   -1.4634888    0.0006601   -6.2693595  
H    1.5290707   -0.0033271   -5.9180047  
H    2.1042146   -0.0039770   -3.6584456  
C    1.1243417   -0.0099156    2.2619005  
C    0.7474090   -0.0234034    3.5848544  
C   -0.6787367   -0.0234952    3.6114698  
C   -1.1201739   -0.0099357    2.2635546  
N    0.0000000    0.0000000    1.4700000  
C   -2.4730812   -0.0065396    1.9108239  
C   -3.3971947   -0.0173298    2.9375057  
O   -4.7313508   -0.0149487    2.6493466  
C   -2.9763630   -0.0305536    4.2886322  
O   -4.0166453   -0.0397858    5.1947621  
C   -1.6418541   -0.0336380    4.6373480  
H    1.4178735   -0.0310004    4.4271209  
H   -2.8160170    0.0039190    0.8854031  
H   -5.1938803   -0.0234410    3.4974381  
H   -3.6464643   -0.0484781    6.0827341  
H   -1.3497443   -0.0436789    5.6809233  
H    2.1062470   -0.0051382    1.8205408  
