60

C   -0.2326767   -0.7289041   -9.5433947  
C    0.1411844   -0.7181480  -10.8672456  
C   -0.0366372    0.6160796  -11.3392800  
C   -0.5251356    1.3814630  -10.2495616  
N   -0.6344189    0.5338004   -9.1752518  
C   -0.8143497    2.7454568  -10.3528345  
C   -0.6063555    3.3478400  -11.5784172  
O   -0.8721368    4.6774998  -11.7345498  
C   -0.1198669    2.6009203  -12.6776240  
O    0.0341019    3.3438017  -13.8299114  
C    0.1654065    1.2552137  -12.5765393  
H    0.4971187   -1.5677149  -11.4245067  
H   -1.1870363    3.3343781   -9.5261073  
H   -0.6614497    4.8920956  -12.6526044  
H    0.3660469    2.7648898  -14.5229320  
H    0.5366964    0.7092427  -13.4359207  
H   -0.2459055   -1.5377003   -8.8330206  
C    0.8291950   -0.6854812   -5.2562361  
C    0.0139741    0.0003876   -4.4216236  
C   -0.8773488    0.7460784   -5.2968311  
C   -0.4474293    0.3823395   -6.6641086  
N    0.5525090   -0.4565932   -6.6466432  
C   -1.0903942    0.9189728   -7.8318869  
C   -2.1164671    1.7795496   -7.6423720  
O   -2.8066693    2.3561391   -8.6409740  
C   -2.5739390    2.1659013   -6.2750339  
O   -3.5141075    2.9544337   -6.1774642  
C   -1.8981891    1.6018687   -5.0930214  
H   -3.4699006    2.9130223   -8.1947035  
H   -2.2596569    1.9067674   -4.1200833  
H    1.6314369   -1.3578977   -4.9969352  
C    3.2798085    0.0005853   -1.4499648  
C    2.5571144    0.0005562   -2.5996554  
C    1.1637436    0.0001546   -2.2210360  
C    1.1336965   -0.0000201   -0.7459470  
N    2.4483513   -0.0001430   -0.3402717  
C    0.0000000    0.0000000    0.0000000  
C   -1.2757367   -0.0000188   -0.6964414  
O   -2.3524597   -0.0000640   -0.1142313  
C   -1.2676494   -0.0000875   -2.2584081  
O   -2.3355762   -0.0004102   -2.8557294  
C    0.0181562    0.0001757   -2.9516296  
H    2.9547357    0.0006072   -3.5989105  
H    4.3498550    0.0008609   -1.3200021  
H    2.7563627    0.0012824    0.6148063  
C    2.5528530    2.1414826    2.8079335  
C    2.0663498    1.7338582    4.0032312  
C    0.9804344    0.8229586    3.6752840  
C    0.9495562    0.7966882    2.1971295  
N    1.8690446    1.5676019    1.6831036  
C    0.0000000    0.0000000    1.4700000  
C   -0.8785127   -0.7372425    2.1869543  
O   -1.8187535   -1.5261249    1.6395491  
C   -0.8723269   -0.7321790    3.6796354  
O   -1.7010379   -1.4274584    4.2670412  
C    0.1115397    0.0933559    4.4024240  
H    2.4028853    2.0163452    4.9860947  
H   -2.2861435   -1.9184361    2.3990168  
H    0.0832434    0.0693689    5.4835595  
H    3.3664920    2.8238276    2.6198634  
