60

C    6.3890371    0.0020110   -5.8870487  
C    7.3914330    0.0013921   -6.8292100  
C    6.7604606    0.0011253   -8.1084565  
C    5.3602472    0.0018951   -7.8819030  
N    5.1693484    0.0004684   -6.5224281  
C    4.4258554    0.0021835   -8.9219523  
C    4.9138617    0.0019928  -10.2142467  
O    4.0454509    0.0026096  -11.2672789  
C    6.3074669    0.0008522  -10.4605803  
O    6.6350398    0.0003811  -11.8007446  
C    7.2298438    0.0002939   -9.4350326  
H    8.4475088    0.0000562   -6.6201746  
H    4.2774303    0.0111581   -6.0616145  
H    3.3573816    0.0026254   -8.7559206  
H    4.5866520    0.0020472  -12.0675078  
H    7.5938957   -0.0003623  -11.8794738  
H    8.2911116   -0.0007618   -9.6545495  
C    6.4690072    0.0019754   -4.4192254  
C    7.5790601    0.0025228   -3.6450408  
C    7.0826136    0.0021759   -2.2775463  
C    5.6103549    0.0015082   -2.4155215  
N    5.2447501    0.0013071   -3.6686466  
C    4.7390840    0.0009613   -1.2727298  
C    5.3125312    0.0006873   -0.0477836  
O    4.6211392    0.0001822    1.1046130  
C    6.7952868    0.0009743    0.1242526  
O    7.2479824    0.0008233    1.2689304  
C    7.6676528    0.0015789   -1.0635611  
H    8.6077290    0.0030016   -3.9627129  
H    5.3014936    0.0000716    1.8019441  
H    8.7364287    0.0016559   -0.8963857  
C    3.2798077    0.0005856   -1.4499661  
C    2.5571132    0.0005565   -2.5996564  
C    1.1637425    0.0001547   -2.2210366  
C    1.1336959   -0.0000200   -0.7459475  
N    2.4483509   -0.0001429   -0.3402730  
C    0.0000000    0.0000000    0.0000000  
C   -1.2757370   -0.0000187   -0.6964411  
O   -2.3524597   -0.0000640   -0.1142306  
C   -1.2676502   -0.0000874   -2.2584078  
O   -2.3355774   -0.0004102   -2.8557287  
C    0.0181551    0.0001758   -2.9516297  
H    2.9547342    0.0006074   -3.5989118  
H    0.0150776    0.0003317   -4.0331632  
H    2.7563626    0.0012823    0.6148051  
C    0.0000000    0.0000000    1.4700000  
C    1.0662921    0.0000102    2.3034270  
C    0.4961870   -0.0000064    3.6418889  
C   -0.9663858    0.0000850    3.4240247  
N   -1.2632773    0.0000084    2.1528658  
C   -1.8985362    0.0000517    4.5177257  
C   -1.3925775   -0.0004564    5.7720543  
O   -2.1456383   -0.0005410    6.8851312  
C    0.0786232   -0.0009323    6.0245000  
O    0.4683759   -0.0012588    7.1921102  
C    1.0143166   -0.0008442    4.8859032  
H    2.1107198   -0.0000632    2.0421868  
H   -2.9622183    0.0003270    4.3293377  
H   -1.5042274   -0.0009692    7.6184419  
H    2.0724152   -0.0013148    5.1109744  
