60

C   10.0917441    0.7188608   -1.0810327  
C    9.1302743    0.0015974   -0.4075514  
C    9.7981140   -0.7254810    0.6219859  
C   11.1775652   -0.4091654    0.5271966  
N   11.3214565    0.4687406   -0.5183622  
C   12.1379241   -0.9477863    1.3888167  
C   11.6976729   -1.8214091    2.3640812  
O   12.5930572   -2.3761072    3.2321882  
C   10.3254786   -2.1496367    2.4743769  
O   10.0457977   -3.0337517    3.4958768  
C    9.3775432   -1.6188617    1.6245405  
H   12.1882269    0.8772005   -0.8181115  
H   13.1908003   -0.7108331    1.3217113  
H   12.0837225   -2.9469825    3.8220558  
H    9.0986364   -3.2024484    3.5013157  
H    8.3336713   -1.8890479    1.7332079  
H    9.9978213    1.3879666   -1.9191464  
C    6.6781261    0.0000524   -4.1292993  
C    7.7444182    0.0009684   -3.2958728  
C    7.1743128    0.0014027   -1.9574109  
C    5.7117403    0.0007371   -2.1752745  
N    5.4148486   -0.0001362   -3.4464332  
C    4.7795901    0.0008674   -1.0815733  
C    5.2855494    0.0012391    0.1727552  
O    4.5324883    0.0014070    1.2858322  
C    6.7567502    0.0015422    0.4252007  
O    7.1465030    0.0019990    1.5928107  
C    7.6924431    0.0014448   -0.7133963  
H    8.7888458    0.0012168   -3.5571132  
H    5.1738997    0.0016452    2.0191429  
H    6.6781258   -0.0005127   -5.2077115  
C    3.3321168    0.0004716   -1.3379341  
C    2.6974177    0.0000118   -2.5332316  
C    1.2800432   -0.0002116   -2.2052842  
C    1.2395033    0.0000644   -0.7271298  
N    2.4394059    0.0005460   -0.2131041  
C    0.0000000    0.0000000    0.0000000  
C   -1.1468704    0.0000635   -0.7169542  
O   -2.3742206    0.0000074   -0.1695488  
C   -1.1388774    0.0001608   -2.2096352  
O   -2.2206238    0.0000906   -2.7970409  
C    0.1454514    0.0001818   -2.9324241  
H    3.1367978   -0.0000649   -3.5160956  
H   -2.9844350    0.0001027   -0.9290164  
H    0.1083567    0.0003684   -4.0135594  
C    0.0000000    0.0000000    1.4700000  
C    1.0541688    0.0001722    2.3260392  
C    0.5103138    0.0000454    3.6635956  
C   -0.9576371   -0.0002459    3.5155732  
N   -1.2018458    0.0001392    2.1615969  
C   -1.8348311   -0.0008317    4.5510609  
C   -1.2972847   -0.0009736    5.9014604  
O   -2.0050672   -0.0014265    6.9001319  
C    0.2542623   -0.0004184    6.0817573  
O    0.7184670   -0.0002256    7.2139121  
C    1.0974552   -0.0000873    4.8889129  
H    2.0940752    0.0005483    2.0517982  
H   -2.9081052   -0.0011668    4.4207061  
H    2.1707277    0.0000911    5.0223670  
H   -2.1128194   -0.0014912    1.7406791  
