60

C    3.0943596   -0.7083287   -6.2932435  
C    2.4661808    0.0108488   -7.2835173  
C    3.4788618    0.7390847   -7.9754338  
C    4.7155732    0.4214705   -7.3577025  
N    4.4459307   -0.4582912   -6.3389139  
C    5.9336075    0.9607281   -7.7824175  
C    5.9026608    1.8363345   -8.8503746  
O    7.0632232    2.3917343   -9.3060501  
C    4.6786160    2.1658813   -9.4796044  
O    4.8136676    3.0519242  -10.5284288  
C    3.4765830    1.6344783   -9.0609702  
H    5.1305585   -0.8679661   -5.7294612  
H    6.8795565    0.7227922   -7.3157598  
H    6.8201689    2.9640109  -10.0454341  
H    3.9415557    3.2214133  -10.8976141  
H    2.5549444    1.9057089   -9.5624626  
H    2.6850698   -1.3787489   -5.5570521  
C   -1.0641738    0.0073911   -4.6315339  
C    0.2004553    0.0078183   -5.1262942  
C    0.0892951    0.0101562   -6.5659028  
C   -1.3541077    0.0110918   -6.8714810  
N   -1.9986529    0.0089309   -5.6559783  
C   -1.8747034    0.0136545   -8.1247478  
C   -0.9518127    0.0153967   -9.2476040  
O   -1.3222275    0.0176759  -10.4142612  
C    0.5810421    0.0141943   -8.9473384  
O    1.3676723    0.0153351   -9.8846077  
C    1.0213768    0.0116830   -7.5545176  
H    1.1076402    0.0064487   -4.5486895  
H   -2.9367621    0.0144294   -8.3270860  
H   -2.9945000    0.0104949   -5.5321491  
C    1.1319245    0.0015656   -0.8009271  
C    0.7969914    0.0034943   -2.1169404  
C   -0.6453340    0.0035712   -2.1842672  
C   -1.1266833    0.0015434   -0.7896027  
N    0.0000000    0.0000000    0.0000000  
C   -2.4346131    0.0013965   -0.4276296  
C   -3.4350110    0.0031409   -1.4820182  
O   -4.6384610    0.0030975   -1.2583916  
C   -2.9478961    0.0050507   -2.9661073  
O   -3.7809383    0.0062220   -3.8623773  
C   -1.5113824    0.0053091   -3.2312124  
H    1.4821237    0.0045409   -2.9459193  
H   -2.7664564    0.0000233    0.6013449  
H    2.1104315    0.0009392   -0.3488061  
C    2.4951002    2.0940188    2.9809380  
C    1.9440701    1.6314916    1.8291961  
C    0.8759964    0.7350050    2.2038498  
C    0.8497377    0.7130254    3.6788474  
N    1.8560616    1.5571714    4.0882609  
C   -0.0205033   -0.0168748    4.4215661  
C   -0.9962600   -0.8356168    3.7214979  
O   -1.8224391   -1.5286685    4.3006425  
C   -0.9864710   -0.8277881    2.1595606  
O   -1.8030528   -1.5133726    1.5592035  
C    0.0000000    0.0000000    1.4700000  
H    2.2509283    1.8888011    0.8310761  
H   -0.0229599   -0.0187323    5.5027230  
H    3.3143982    2.7817323    3.1139444  
H    2.0889452    1.7545833    5.0442112  
