60

C    5.5836005   -0.0003155   -1.0808165  
C    4.5679461   -0.0016852   -2.0086700  
C    5.1807163   -0.0020959   -3.2967355  
C    6.5840017   -0.0012106   -3.0900577  
N    6.7941554    0.0018109   -1.7334282  
C    7.5035526   -0.0016219   -4.1432504  
C    6.9972724   -0.0032584   -5.4284959  
O    7.8506655   -0.0040785   -6.4937341  
C    5.6003141   -0.0037866   -5.6550441  
O    5.2537722   -0.0050289   -6.9904278  
C    4.6925710   -0.0031080   -4.6165223  
H    7.6925277   -0.0074985   -1.2852979  
H    8.5742727   -0.0008079   -3.9923869  
H    7.2981730   -0.0048901   -7.2862088  
H    4.2938960   -0.0053403   -7.0555537  
H    3.6282969   -0.0033561   -4.8209686  
H    5.5402817    0.0007588   -0.0051399  
C    3.1301152   -0.0010311   -1.7028251  
C    2.5367770   -0.0002766   -0.4864665  
C    1.1089905    0.0001028   -0.7656183  
C    1.0177873   -0.0004148   -2.2415130  
N    2.1993580   -0.0011610   -2.7963820  
C   -0.2459208   -0.0002877   -2.9257119  
C   -1.3675318   -0.0000605   -2.1698523  
O   -2.6129310    0.0000866   -2.6748492  
C   -1.3083584    0.0000911   -0.6783232  
O   -2.3693259    0.0004206   -0.0541692  
C    0.0000000    0.0000000    0.0000000  
H    3.0096019   -0.0001007    0.4807529  
H   -3.1967440    0.0002093   -1.8949035  
C    2.1451943   -2.0951768   -5.9900942  
C    1.6340483   -1.6323749   -4.8202142  
C    0.5538838   -0.7357922   -5.1581773  
C    0.4770650   -0.7140557   -6.6314107  
N    1.4686372   -1.5584200   -7.0749457  
C   -0.4180283    0.0158496   -7.3439773  
C   -1.3690882    0.8348540   -6.6110029  
O   -2.2145416    1.5279316   -7.1615961  
C   -1.3057461    0.8272855   -5.0503185  
O   -2.1011630    1.5130919   -4.4224316  
C   -0.2963281   -0.0005339   -4.3948471  
H    1.9749157   -1.8895629   -3.8331593  
H   -0.4575568    0.0175264   -8.4244148  
H    2.9593513   -2.7830346   -6.1509982  
H    1.6685753   -1.7560267   -8.0382854  
C    2.4951002    2.0940188    2.9809380  
C    1.9440701    1.6314916    1.8291961  
C    0.8759964    0.7350050    2.2038498  
C    0.8497377    0.7130254    3.6788474  
N    1.8560616    1.5571714    4.0882609  
C   -0.0205033   -0.0168748    4.4215661  
C   -0.9962600   -0.8356168    3.7214979  
O   -1.8224391   -1.5286685    4.3006425  
C   -0.9864710   -0.8277881    2.1595606  
O   -1.8030528   -1.5133726    1.5592035  
C    0.0000000    0.0000000    1.4700000  
H    2.2509283    1.8888011    0.8310761  
H   -0.0229599   -0.0187323    5.5027230  
H    3.3143982    2.7817323    3.1139444  
H    2.0889452    1.7545833    5.0442112  
