64

C    3.9410088    0.8471221   -7.3699950  
C    5.0453150    0.0450963   -7.1975703  
C    5.8430819    0.1767511   -8.3726593  
C    5.1693864    1.0801282   -9.2340361  
N    4.0172065    1.4665794   -8.5954814  
C    5.6697432    1.4456785  -10.4873535  
C    6.8722453    0.8893712  -10.8781082  
O    7.4063669    1.2121723  -12.0919972  
C    7.5592048   -0.0141788  -10.0328263  
O    8.7432135   -0.4819566  -10.5644735  
C    7.0660473   -0.3754626   -8.7963815  
H    5.2500762   -0.5612086   -6.3318563  
H    3.3406481    2.1128221   -8.9596523  
H    5.1610516    2.1335523  -11.1486139  
H    8.2349958    0.7209442  -12.1650371  
H    9.1435084   -1.0855377   -9.9311826  
H    7.6145555   -1.0700384   -8.1709367  
C    2.9067044   -0.7102173   -3.3086448  
C    3.5336407   -0.4560502   -4.5064837  
C    2.7086168    0.4617620   -5.2217155  
C    1.5825617    0.7341316   -4.4033387  
N    1.7334695    0.0049281   -3.2500363  
C    0.5573849    1.6017761   -4.7919188  
C    0.6711745    2.2056971   -6.0290560  
O   -0.3012920    3.0621150   -6.4578575  
C    1.7869433    1.9463330   -6.8600841  
O    1.7545736    2.6236982   -8.0615304  
C    2.7985449    1.0902856   -6.4775001  
H    4.4698349   -0.8808543   -4.8259755  
H   -0.3035280    1.8134484   -4.1728668  
H   -0.0298857    3.3670767   -7.3334152  
H    2.5431342    2.3930078   -8.5620876  
H    3.2029011   -1.3461542   -2.4920601  
C    1.1319246    0.0015678   -0.8009268  
C    0.7969914    0.0034958   -2.1169401  
C   -0.6453340    0.0035696   -2.1842669  
C   -1.1266832    0.0015410   -0.7896025  
N    0.0000000    0.0000000    0.0000000  
C   -2.4346129    0.0013913   -0.4276292  
C   -3.4350111    0.0031335   -1.4820181  
O   -4.6384614    0.0030875   -1.2583914  
C   -2.9478961    0.0050442   -2.9661074  
O   -3.7809382    0.0062135   -3.8623773  
C   -1.5113825    0.0053055   -3.2312122  
H   -2.7664565    0.0000174    0.6013448  
H   -1.1823533    0.0068381   -4.2614848  
H    2.1104316    0.0009435   -0.3488059  
C    0.8576279    0.7185626    2.2703808  
C    0.0000000    0.0000000    1.4700000  
C   -0.8668858   -0.7285659    2.3373528  
C   -0.4876752   -0.4117774    3.6669281  
N    0.5635254    0.4678311    3.5902241  
C   -1.1297612   -0.9515493    4.7854808  
C   -2.1738724   -1.8268314    4.5576857  
O   -2.8357962   -2.3827064    5.6140350  
C   -2.5667212   -2.1555554    3.2384331  
O   -3.6226318   -3.0413663    3.1773122  
C   -1.9335634   -1.6236449    2.1344818  
H    1.0363952    0.8769718    4.3757045  
H   -0.8454472   -0.7142436    5.8013813  
H   -3.5178062   -2.9546422    5.2385129  
H   -3.8247440   -3.2102924    2.2519915  
H   -2.2566033   -1.8942483    1.1360343  
H    1.6567807    1.3889844    2.0042067  
