64

C    9.7846335    0.6590036   -0.0004749  
C   11.1263786    0.3956986    0.1507159  
C   11.2515329   -0.5161423    1.2404325  
C    9.9415742   -0.7756209    1.7185583  
N    9.0750148   -0.0448085    0.9442151  
C    9.6843790   -1.6345241    2.7913703  
C   10.7693205   -2.2427973    3.3922718  
O   10.5750193   -3.0910823    4.4437816  
C   12.0839238   -1.9962599    2.9298295  
O   13.0570383   -2.6764903    3.6324528  
C   12.3384182   -1.1488402    1.8716997  
H   11.9176849    0.8107384   -0.4497590  
H    8.6883353   -1.8363578    3.1606421  
H   11.4504498   -3.4009430    4.7099978  
H   13.9145313   -2.4546354    3.2568318  
H   13.3560745   -0.9793352    1.5398539  
H    9.2777878    1.2942755   -0.7065171  
C    5.7554373   -0.0091491   -2.0505782  
C    6.9923854   -0.0221756   -1.4487010  
C    6.7698802   -0.0218617   -0.0397681  
C    5.3656330   -0.0085417    0.1598300  
N    4.7795901    0.0008674   -1.0815733  
C    4.7823663   -0.0048626    1.4304892  
C    5.6321564   -0.0151181    2.5194934  
O    5.1157424   -0.0124420    3.7829501  
C    7.0359714   -0.0280959    2.3407450  
O    7.7467972   -0.0367933    3.5231131  
C    7.6120764   -0.0314592    1.0875018  
H    7.9386727   -0.0297332   -1.9620009  
H    3.7128509    0.0054157    1.5893381  
H    5.8701760   -0.0205768    4.3862978  
H    8.6857212   -0.0453503    3.3134661  
H    5.4920799   -0.0047651   -3.0944090  
C    3.3321168    0.0004716   -1.3379341  
C    2.6974177    0.0000118   -2.5332316  
C    1.2800432   -0.0002116   -2.2052842  
C    1.2395033    0.0000644   -0.7271298  
N    2.4394059    0.0005460   -0.2131041  
C    0.0000000    0.0000000    0.0000000  
C   -1.1468704    0.0000635   -0.7169542  
O   -2.3742206    0.0000074   -0.1695488  
C   -1.1388774    0.0001608   -2.2096352  
O   -2.2206238    0.0000906   -2.7970409  
C    0.1454514    0.0001818   -2.9324241  
H    3.1367978   -0.0000649   -3.5160956  
H   -2.9844350    0.0001027   -0.9290164  
H    0.1083567    0.0003684   -4.0135594  
C    0.8676693    0.7151171    2.2619005  
C    0.5875920    0.4624972    3.5848544  
C   -0.5048400   -0.4542819    3.6114698  
C   -0.8517165   -0.7276451    2.2635546  
N    0.0000000    0.0000000    1.4700000  
C   -1.8902865   -1.5946756    1.9108239  
C   -2.5912627   -2.1969500    2.9375057  
O   -3.6148162   -3.0527051    2.6493466  
C   -2.2603868   -1.9365747    4.2886322  
O   -3.0513550   -2.6123276    5.1947621  
C   -1.2361111   -1.0811317    4.6373480  
H    1.1060808    0.8876438    4.4271209  
H   -2.1597133   -1.8070987    0.8854031  
H   -3.9636755   -3.3565188    3.4974381  
H   -2.7621927   -2.3810384    6.0827341  
H   -1.0058879   -0.9010589    5.6809233  
H    1.6167816    1.3499334    1.8205408  
