64

C    4.7483931   -1.0487395   -4.9628833  
C    5.5833340   -1.9336180   -4.3207527  
C    6.6888548   -2.1691336   -5.1907844  
C    6.4718462   -1.3940321   -6.3587102  
N    5.2838612   -0.7275187   -6.1882155  
C    7.3648878   -1.3808727   -7.4343934  
C    8.4977827   -2.1642128   -7.3290159  
O    9.4032394   -2.1882747   -8.3500857  
C    8.7317482   -2.9447614   -6.1719419  
O    9.9039269   -3.6708046   -6.2188943  
C    7.8510398   -2.9584389   -5.1104852  
H    5.4156082   -2.3580898   -3.3457220  
H    4.8748534   -0.0920958   -6.8492236  
H    7.2051891   -0.7924174   -8.3273764  
H   10.1079552   -2.7895313   -8.0759851  
H    9.9858451   -4.1694299   -5.4001969  
H    8.0569383   -3.5664963   -4.2373594  
C    2.8434023   -0.7174912   -3.3295519  
C    3.4705478   -0.4666169   -4.5279747  
C    2.6462885    0.4502266   -5.2453271  
C    1.5204619    0.7254262   -4.4275826  
N    1.6707636   -0.0012343   -3.2725974  
C    0.4960079    1.5930242   -4.8181681  
C    0.6102992    2.1939882   -6.0566983  
O   -0.3614539    3.0502227   -6.4874790  
C    1.7258502    1.9317735   -6.8871241  
O    1.6940432    2.6063856   -8.0901332  
C    2.7367383    1.0757699   -6.5025614  
H   -0.3647271    1.8068448   -4.1996074  
H   -0.0897940    3.3529327   -7.3637399  
H    2.4824109    2.3738811   -8.5901557  
H    3.5788507    0.8942786   -7.1601222  
H    3.1390696   -1.3517850   -2.5114985  
C    1.0965514    0.0001358   -0.8010306  
C    0.0000000    0.0000000    0.0000000  
C   -1.1546565    0.0001470   -0.8669508  
C   -0.6372019    0.0003520   -2.2486278  
N    0.7342867    0.0007338   -2.1395012  
C   -1.4147744    0.0001354   -3.3608712  
C   -2.8576052   -0.0001047   -3.1854454  
O   -3.6427785   -0.0002490   -4.1244896  
C   -3.4275841   -0.0000727   -1.7311660  
O   -4.6406832    0.0000333   -1.5710049  
C   -2.4891868   -0.0001090   -0.6116739  
H   -1.0150456    0.0001617   -4.3654239  
H   -2.8919122   -0.0002919    0.3920871  
H    2.1388270    0.0000663   -0.5261650  
C    2.5311839    2.1237619    3.0120429  
C    1.9795631    1.6616747    1.8395852  
C    0.9223175    0.7739173    2.1983588  
C    0.8753926    0.7337535    3.6154372  
N    1.8668922    1.5631002    4.0777464  
C   -0.0496243   -0.0427881    4.3197917  
C   -0.9437528   -0.7922060    3.5801400  
O   -1.8685244   -1.5680278    4.2172520  
C   -0.9124520   -0.7656372    2.1655264  
O   -1.8671164   -1.5663939    1.5732860  
C    0.0000000    0.0000000    1.4700000  
H    2.3005065    1.9304404    0.8477417  
H    2.0679347    1.7444845    5.0445261  
H   -0.0904770   -0.0778569    5.3997470  
H   -2.3849669   -2.0011402    3.5251786  
H   -1.7775064   -1.4909735    0.6183591  
H    3.3468514    2.8078103    3.1724291  
