60

C   -0.7041003   -0.7313636   -9.5060948  
C   -0.3720531   -0.7211148  -10.8410512  
C   -0.5643094    0.6130100  -11.3076871  
C   -1.0181130    1.3788562  -10.2033908  
N   -1.0937623    0.5315566   -9.1259044  
C   -1.3101028    2.7428901  -10.2979542  
C   -1.1406078    3.3448383  -11.5296644  
O   -1.4108470    4.6745159  -11.6777872  
C   -0.6891070    2.5974533  -12.6433871  
O   -0.5712717    3.3399360  -13.8001843  
C   -0.4011201    1.2517068  -12.5508927  
H   -0.0340239   -1.5709450  -11.4089579  
H   -1.6564647    3.3321631   -9.4601044  
H   -1.2290829    4.8887721  -12.6020819  
H   -0.2614242    2.7607245  -14.5031155  
H   -0.0571708    0.7053742  -13.4213504  
H   -0.6951780   -1.5399345   -8.7953972  
C    0.4920766   -0.6868682   -5.2544637  
C   -0.2963293   -0.0005341   -4.3948471  
C   -1.2145546    0.7451069   -5.2418306  
C   -0.8279327    0.3808331   -6.6218351  
N    0.1718580   -0.4583450   -6.6355552  
C   -1.5071739    0.9172630   -7.7689881  
C   -2.5265720    1.7781564   -7.5475751  
O   -3.2476973    2.3546071   -8.5241627  
C   -2.9407254    2.1650499   -6.1666507  
O   -3.8771709    2.9538489   -6.0398159  
C   -2.2282744    1.6012170   -5.0062929  
H   -3.8964326    2.9117963   -8.0574343  
H   -2.5588935    1.9065102   -4.0225665  
H    1.3019141   -1.3594050   -5.0203042  
C    3.1301146   -0.0010313   -1.7028256  
C    2.5367765   -0.0002766   -0.4864669  
C    1.1089901    0.0001027   -0.7656184  
C    1.0177865   -0.0004150   -2.2415133  
N    2.1993571   -0.0011612   -2.7963824  
C   -0.2459219   -0.0002879   -2.9257116  
C   -1.3675326   -0.0000606   -2.1698520  
O   -2.6129318    0.0000865   -2.6748483  
C   -1.3083588    0.0000910   -0.6783229  
O   -2.3693264    0.0004206   -0.0541685  
C    0.0000000    0.0000000    0.0000000  
H    3.0096016   -0.0001007    0.4807518  
H   -3.1967444    0.0002093   -1.8949026  
H    4.1849275   -0.0015114   -1.9271979  
C    2.3971438    2.0127888    3.1728260  
C    1.9431056    1.6308205    1.9564670  
C    0.8496017    0.7127664    2.2356185  
C    0.7794028    0.6545384    3.7115134  
N    1.6840587    1.4146091    4.2663826  
C   -0.1885723   -0.1578550    4.3957118  
C   -1.0476298   -0.8789867    3.6398520  
O   -2.0015663   -1.6796266    4.1448486  
C   -1.0022026   -0.8410666    2.1483229  
O   -1.8147390   -1.5232959    1.5241687  
C    0.0000000    0.0000000    1.4700000  
H    2.3054237    1.9346118    0.9892483  
H   -0.2170646   -0.1815267    5.4753125  
H   -2.4487139   -2.0549881    3.3649027  
H    3.2048689    2.6911772    3.3971983  
