62

C    6.6537123    0.0938643   -4.7229561  
C    7.7313323   -0.5535134   -4.1642929  
C    8.8857422   -0.1505221   -4.8988231  
C    8.4469829    0.7513734   -5.9018188  
N    7.0863896    0.8760047   -5.7681334  
C    9.3202709    1.3505048   -6.8146152  
C   10.6609482    1.0336365   -6.7128503  
O   11.5572189    1.5905433   -7.5786254  
C   11.1179958    0.1356662   -5.7190830  
O   12.4806222   -0.0783052   -5.7475519  
C   10.2570047   -0.4559734   -4.8184262  
H    7.6902590   -1.2335103   -3.3306801  
H    6.4984357    1.4589864   -6.3359566  
H    8.9921461    2.0385967   -7.5814702  
H   12.4244041    1.2402205   -7.3366986  
H   12.7062508   -0.6959186   -5.0452351  
H   10.6362881   -1.1400137   -4.0682853  
C    4.4878226   -2.1225241   -1.5677350  
C    3.2260913   -1.6607471   -1.8631395  
C    3.3567347   -0.7724506   -2.9714994  
C    4.7330249   -0.7316532   -3.3122135  
N    5.3917971   -1.5611580   -2.4389678  
C    5.2292368    0.0455302   -4.3631886  
C    4.3194783    0.7949501   -5.0835265  
O    4.7499703    1.5713848   -6.1202720  
C    2.9423433    0.7677545   -4.7586013  
O    2.1641573    1.5685993   -5.5687973  
C    2.4521483    0.0014840   -3.7217481  
H    2.3228219   -1.9300608   -1.3429785  
H    6.3793122   -1.7421946   -2.4435516  
H    3.9654403    2.0043829   -6.4812288  
H    1.2487978    1.4927312   -5.2825022  
H    4.8146446   -2.8067985   -0.8035911  
C    0.0000000    0.0000000    0.0000000  
C    1.0662923   -0.0000101   -0.8334270  
C    0.4961873    0.0000065   -2.1718887  
C   -0.9663854   -0.0000848   -1.9540250  
N   -1.2632773   -0.0000083   -0.6828660  
C   -1.8985359   -0.0000514   -3.0477261  
C   -1.3925770    0.0004566   -4.3020547  
O   -2.1456378    0.0005414   -5.4151314  
C    0.0786240    0.0009326   -4.5545000  
O    0.4683767    0.0012591   -5.7221100  
C    1.0143171    0.0008444   -3.4159031  
H    2.1107200    0.0000633   -0.5721865  
H   -2.9622181   -0.0003268   -2.8593381  
H   -1.5042265    0.0009697   -6.1484419  
C    3.2573670    0.0002920    2.9809380  
C    2.5379467    0.0001709    1.8291961  
C    1.1435042   -0.0000331    2.2038498  
C    1.1092607    0.0000083    3.6788474  
N    2.4227561   -0.0001909    4.0882609  
C   -0.0265533    0.0002524    4.4215661  
C   -1.3003036    0.0002640    3.7214979  
O   -2.3786784    0.0004133    4.3006425  
C   -1.2877726   -0.0000311    2.1595606  
O   -2.3539958   -0.0003306    1.5592035  
C    0.0000000    0.0000000    1.4700000  
H    2.9384090    0.0000368    0.8310761  
H   -0.0296291    0.0004086    5.5027230  
H    4.3270393    0.0004765    3.1139444  
H    2.7280493    0.0013407    5.0442112  
