60

C    2.3180296   -3.2464384   -8.8649377  
C    2.6069177   -3.2008071  -10.2091592  
C    2.4005772   -1.8548482  -10.6339143  
C    1.9830581   -1.1185811   -9.4957077  
N    1.9416131   -1.9941028   -8.4391276  
C    1.6890369    0.2474129   -9.5447095  
C    1.8191569    0.8817695  -10.7648896  
O    1.5451287    2.2148409  -10.8690158  
C    2.2340824    0.1642060  -11.9119544  
O    2.3150711    0.9370542  -13.0519059  
C    2.5240475   -1.1834534  -11.8644053  
H    2.9259440   -4.0352435  -10.8099349  
H    1.3702111    0.8142405   -8.6808475  
H    1.6971666    2.4535118  -11.7926954  
H    2.6017532    0.3767080  -13.7795245  
H    2.8394391   -1.7064933  -12.7596342  
H    2.3493243   -4.0735242   -8.1765283  
C    2.1650264   -2.1089225   -5.9297635  
C    1.5723604   -1.6445161   -7.0598730  
C    0.5184570   -0.7489598   -6.6450207  
C    0.5459257   -0.7295295   -5.1700098  
N    1.5661287   -1.5747495   -4.7989582  
C   -0.2963293   -0.0005341   -4.3948471  
C   -1.2968019    0.8195084   -5.0575088  
O   -2.1010999    1.5117980   -4.4474755  
C   -1.3442161    0.8139948   -6.6187671  
O   -2.1824061    1.5002194   -7.1877956  
C   -0.3835315   -0.0125661   -7.3452196  
H   -0.4228732   -0.0106495   -8.4260400  
H    2.9887823   -2.7966239   -5.8278731  
H    1.8355780   -1.7715191   -3.8525303  
C    3.1301146   -0.0010313   -1.7028256  
C    2.5367765   -0.0002766   -0.4864669  
C    1.1089901    0.0001027   -0.7656184  
C    1.0177865   -0.0004150   -2.2415133  
N    2.1993571   -0.0011612   -2.7963824  
C   -0.2459219   -0.0002879   -2.9257116  
C   -1.3675326   -0.0000606   -2.1698520  
O   -2.6129318    0.0000865   -2.6748483  
C   -1.3083588    0.0000910   -0.6783229  
O   -2.3693264    0.0004206   -0.0541685  
C    0.0000000    0.0000000    0.0000000  
H    3.0096016   -0.0001007    0.4807518  
H   -3.1967444    0.0002093   -1.8949026  
H    4.1849275   -0.0015114   -1.9271979  
C    2.3971438    2.0127888    3.1728260  
C    1.9431056    1.6308205    1.9564670  
C    0.8496017    0.7127664    2.2356185  
C    0.7794028    0.6545384    3.7115134  
N    1.6840587    1.4146091    4.2663826  
C   -0.1885723   -0.1578550    4.3957118  
C   -1.0476298   -0.8789867    3.6398520  
O   -2.0015663   -1.6796266    4.1448486  
C   -1.0022026   -0.8410666    2.1483229  
O   -1.8147390   -1.5232959    1.5241687  
C    0.0000000    0.0000000    1.4700000  
H    2.3054237    1.9346118    0.9892483  
H   -0.2170646   -0.1815267    5.4753125  
H   -2.4487139   -2.0549881    3.3649027  
H    3.2048689    2.6911772    3.3971983  
