62

C    3.8515788    0.6846486   -8.6197817  
C    4.9468059   -0.1326749   -8.7776653  
C    5.3370718   -0.0460069  -10.1468918  
C    4.4356352    0.8469573  -10.7808892  
N    3.5453970    1.2707417   -9.8256411  
C    4.5211337    1.1708103  -12.1383127  
C    5.5352836    0.5827390  -12.8689625  
O    5.6648102    0.8642667  -14.1982399  
C    6.4442660   -0.3110559  -12.2543908  
O    7.3974974   -0.8139448  -13.1156684  
C    6.3603529   -0.6312117  -10.9153673  
H    5.4070801   -0.7200453   -8.0016910  
H    2.7947672    1.9195989   -9.9790036  
H    3.8371292    1.8505381  -12.6275057  
H    6.4241783    0.3562744  -14.5121980  
H    7.9705836   -1.4081666  -12.6216273  
H    7.0708729   -1.3192908  -10.4724370  
C    4.1166483   -0.7277114   -4.4446878  
C    4.3274839   -0.5121308   -5.7687529  
C    3.3125445    0.4146616   -6.2112336  
C    2.4872314    0.7235882   -5.0279274  
N    3.0267438   -0.0008951   -3.9901699  
C    1.4218503    1.5642147   -5.0317828  
C    1.0640338    2.2074812   -6.2850626  
O    0.1212920    2.9809344   -6.3914037  
C    1.9240525    1.8946835   -7.5508950  
O    1.6321824    2.4301073   -8.6117409  
C    3.0488666    0.9716007   -7.4221954  
H    5.1051250   -0.9522745   -6.3672188  
H    0.8297777    1.7772656   -4.1525962  
H    4.6656562   -1.3565649   -3.7627611  
C    3.3003547    0.0005277   -1.4738986  
C    2.5232816    0.0003497   -2.6090746  
C    1.1623203   -0.0001319   -2.1820102  
C    1.1711884    0.0000584   -0.7636141  
N    2.4852301   -0.0014919   -0.3662359  
C    0.0000000    0.0000000    0.0000000  
C   -1.2020383    0.0000520   -0.6806479  
O   -2.3759248    0.0003493    0.0157745  
C   -1.2314655   -0.0005115   -2.0955511  
O   -2.5054388   -0.0008040   -2.6250184  
C   -0.0764513   -0.0007274   -2.8495195  
H    2.8036266    0.0088183    0.5858662  
H   -3.0835639    0.0000346   -0.6418822  
H   -2.4360043   -0.0011529   -3.5845924  
H   -0.1304091   -0.0013423   -3.9319089  
H    4.3715553    0.0004897   -1.3667133  
C    2.5528530    2.1414826    2.8079335  
C    2.0663498    1.7338582    4.0032312  
C    0.9804344    0.8229586    3.6752840  
C    0.9495562    0.7966882    2.1971295  
N    1.8690446    1.5676019    1.6831036  
C    0.0000000    0.0000000    1.4700000  
C   -0.8785127   -0.7372425    2.1869543  
O   -1.8187535   -1.5261249    1.6395491  
C   -0.8723269   -0.7321790    3.6796354  
O   -1.7010379   -1.4274584    4.2670412  
C    0.1115397    0.0933559    4.4024240  
H    2.4028853    2.0163452    4.9860947  
H   -2.2861435   -1.9184361    2.3990168  
H    0.0832434    0.0693689    5.4835595  
H    3.3664920    2.8238276    2.6198634  
