62

C    4.0734074    0.0863633   -8.1669317  
C    5.0919850   -0.5634204   -8.8247678  
C    5.0256258   -0.1641972  -10.1925458  
C    3.9374683    0.7379853  -10.3104708  
N    3.3800121    0.8664037   -9.0625261  
C    3.5771463    1.3339475  -11.5228189  
C    4.3291973    1.0135557  -12.6363480  
O    4.0210834    1.5672732  -13.8452632  
C    5.4183935    0.1152409  -12.5388898  
O    6.0682205   -0.1024293  -13.7362574  
C    5.7742617   -0.4732733  -11.3432583  
H    5.7955228   -1.2425622   -8.3744412  
H    2.5958898    1.4504633   -8.8344736  
H    2.7488112    2.0222387  -11.6193510  
H    4.6604490    1.2148288  -14.4779238  
H    6.7897750   -0.7200237  -13.5828294  
H    6.6134081   -1.1576659  -11.2994611  
C    5.7258289   -2.1256349   -4.6503671  
C    5.5043005   -1.6279379   -5.9135734  
C    4.3814511   -0.7527181   -5.8252547  
C    3.9565273   -0.7561091   -4.4719793  
N    4.7930958   -1.6014630   -3.7863066  
C    2.8699641   -0.0020530   -4.0185824  
C    2.2003454    0.7697161   -4.9481847  
O    1.1324736    1.5256768   -4.5593570  
C    2.6089835    0.7860436   -6.3030157  
O    1.8406945    1.6040254   -7.1055001  
C    3.6806470    0.0421904   -6.7510614  
H    6.0803753   -1.8672192   -6.7909988  
H    4.7419877   -1.7968041   -2.8028377  
H    0.8162312    1.9793601   -5.3514599  
H    2.1830477    1.5576558   -8.0034137  
H    6.4744885   -2.8141553   -4.2976530  
C    3.2573670   -0.0002921   -1.5109382  
C    2.5379468   -0.0001711   -0.3591962  
C    1.1435043    0.0000330   -0.7338498  
C    1.1092608   -0.0000085   -2.2088474  
N    2.4227562    0.0001906   -2.6182610  
C   -0.0265533   -0.0002525   -2.9515663  
C   -1.3003033   -0.0002641   -2.2514979  
O   -2.3786785   -0.0004132   -2.8306425  
C   -1.2877724    0.0000310   -0.6895608  
O   -2.3539956    0.0003306   -0.0892035  
C    0.0000000    0.0000000    0.0000000  
H    2.9384091   -0.0000370    0.6389240  
H   -0.0296290   -0.0004088   -4.0327231  
H    4.3270394   -0.0004767   -1.6439445  
C    2.4951002    2.0940188    2.9809380  
C    1.9440701    1.6314916    1.8291961  
C    0.8759964    0.7350050    2.2038498  
C    0.8497377    0.7130254    3.6788474  
N    1.8560616    1.5571714    4.0882609  
C   -0.0205033   -0.0168748    4.4215661  
C   -0.9962600   -0.8356168    3.7214979  
O   -1.8224391   -1.5286685    4.3006425  
C   -0.9864710   -0.8277881    2.1595606  
O   -1.8030528   -1.5133726    1.5592035  
C    0.0000000    0.0000000    1.4700000  
H    2.2509283    1.8888011    0.8310761  
H   -0.0229599   -0.0187323    5.5027230  
H    3.3143982    2.7817323    3.1139444  
H    2.0889452    1.7545833    5.0442112  
