60

C    4.0598274    0.6903953   -8.5685098  
C    5.1593819   -0.1265597   -8.6951224  
C    5.5893583   -0.0386114  -10.0523200  
C    4.7065679    0.8547183  -10.7115385  
N    3.7887739    1.2774794   -9.7822682  
C    4.8315070    1.1797772  -12.0656133  
C    5.8666545    0.5925586  -12.7669129  
O    6.0347922    0.8752770  -14.0916057  
C    6.7575537   -0.3015831  -12.1268927  
O    7.7355945   -0.8035179  -12.9604647  
C    6.6347350   -0.6229286  -10.7911615  
H    5.5969882   -0.7145125   -7.9065766  
H    3.0427792    1.9263131   -9.9568747  
H    4.1618869    1.8597894  -12.5739377  
H    6.8031055    0.3677190  -14.3837449  
H    8.2941821   -1.3980516  -12.4504519  
H    7.3322090   -1.3112460  -10.3283139  
C    4.2034620   -0.7255631   -4.3886932  
C    4.4527382   -0.5087794   -5.7058649  
C    3.4509045    0.4181870   -6.1769255  
C    2.5913899    0.7259045   -5.0179025  
N    3.1006054    0.0006263   -3.9654951  
C    1.5263758    1.5663104   -5.0520694  
C    1.2050784    2.2105984   -6.3146843  
O    0.2656532    2.9839467   -6.4477777  
C    2.1016893    1.8990895   -7.5551905  
O    1.8407279    2.4353805   -8.6236246  
C    3.2224930    0.9761305   -7.3945729  
H    5.2475909   -0.9482359   -6.2817997  
H    0.9088865    1.7784673   -4.1903229  
H    4.7325147   -1.3548981   -3.6916055  
C    3.2798083    0.0005857   -1.4499652  
C    2.5571142    0.0005565   -2.5996556  
C    1.1637432    0.0001548   -2.2210361  
C    1.1336964   -0.0000200   -0.7459473  
N    2.4483512   -0.0001428   -0.3402723  
C    0.0000000    0.0000000    0.0000000  
C   -1.2757368   -0.0000186   -0.6964415  
O   -2.3524598   -0.0000639   -0.1142311  
C   -1.2676497   -0.0000872   -2.2584083  
O   -2.3355766   -0.0004101   -2.8557295  
C    0.0181558    0.0001758   -2.9516296  
H    0.0150788    0.0003319   -4.0331631  
H    4.3498547    0.0008612   -1.3200026  
H    2.7563626    0.0012823    0.6148059  
C    2.4951002    2.0940188    2.9809380  
C    1.9440701    1.6314916    1.8291961  
C    0.8759964    0.7350050    2.2038498  
C    0.8497377    0.7130254    3.6788474  
N    1.8560616    1.5571714    4.0882609  
C   -0.0205033   -0.0168748    4.4215661  
C   -0.9962600   -0.8356168    3.7214979  
O   -1.8224391   -1.5286685    4.3006425  
C   -0.9864710   -0.8277881    2.1595606  
O   -1.8030528   -1.5133726    1.5592035  
C    0.0000000    0.0000000    1.4700000  
H    2.2509283    1.8888011    0.8310761  
H   -0.0229599   -0.0187323    5.5027230  
H    3.3143982    2.7817323    3.1139444  
H    2.0889452    1.7545833    5.0442112  
