64

C   -8.0056944   -0.6220565   -3.2627695  
C   -8.3763265    0.2091699   -2.2311873  
C   -9.7994149    0.1599127   -2.1475538  
C  -10.2455465   -0.7256100   -3.1618231  
N   -9.1311257   -1.1811372   -3.8215024  
C  -11.5971063   -1.0151262   -3.3721936  
C  -12.5150000   -0.3997333   -2.5433742  
O  -13.8475542   -0.6472183   -2.7048136  
C  -12.0894392    0.4871683   -1.5259657  
O  -13.1237843    1.0200518   -0.7846763  
C  -10.7562754    0.7734576   -1.3180329  
H   -7.7038033    0.7815603   -1.6154972  
H   -9.1346556   -1.8330524   -4.5850306  
H  -11.9436092   -1.6890070   -4.1435716  
H  -14.3055966   -0.1245316   -2.0337989  
H  -12.7506915    1.6072936   -0.1201823  
H  -10.4604562    1.4570741   -0.5308622  
C   -3.9682054    0.7216918   -2.0578207  
C   -3.2578655    0.0024282   -2.9908505  
C   -4.2079031   -0.7252728   -3.7670463  
C   -5.4928184   -0.4072582   -3.2573538  
N   -5.3110076    0.4722167   -2.2190445  
C   -6.6702479   -0.9459424   -3.7848634  
C   -6.5483633   -1.8213770   -4.8464353  
O   -7.6658888   -2.3762215   -5.3998768  
C   -5.2750889   -2.1513164   -5.3686701  
O   -5.3202344   -3.0371228   -6.4253884  
C   -4.1130836   -1.6204794   -4.8485906  
H   -6.0451197    0.8820670   -1.6703337  
H   -7.3606741   -2.9484699   -6.1158662  
H   -4.4197934   -3.2069057   -6.7186186  
H   -3.1520148   -1.8920011   -5.2694247  
H   -3.6231571    1.3918169   -1.2891636  
C    0.0000000    0.0000000    0.0000000  
C    1.0521666   -0.0011982   -0.8862343  
C    0.4917215   -0.0011996   -2.1979132  
C   -0.9187429    0.0003215   -2.0478682  
N   -1.1833171   -0.0009323   -0.7007913  
C   -1.7951703    0.0010483   -3.1372089  
C   -1.2375841    0.0005313   -4.4010422  
O   -2.0474218    0.0015510   -5.4997578  
C    0.1673576   -0.0013585   -4.5711963  
O    0.5673520   -0.0020735   -5.8915554  
C    1.0325768   -0.0023493   -3.4969892  
H    2.0953056   -0.0030808   -0.6200564  
H   -2.0989778    0.0102529   -0.2891822  
H   -1.4634888    0.0006601   -6.2693595  
H    1.5290707   -0.0033271   -5.9180047  
H    2.1042146   -0.0039770   -3.6584456  
C    1.0672568    0.0000697    2.3021913  
C    0.0000000    0.0000000    1.4700000  
C   -1.1601224    0.0000736    2.3478473  
C   -0.5938729    0.0000769    3.7138435  
N    0.7113367    0.0001554    3.6934124  
C   -1.4286986    0.0001879    4.8835240  
C   -2.7683114    0.0006799    4.6970523  
O   -3.6653903    0.0008304    5.6976972  
C   -3.3702025    0.0010610    3.3310774  
O   -4.5974910    0.0013779    3.2362962  
C   -2.4926826    0.0008943    2.1470656  
H   -0.9878360   -0.0000190    5.8697035  
H   -4.5324246    0.0012261    5.2533954  
H   -2.9677772    0.0012974    1.1752040  
H    2.1134392    0.0000545    2.0405121  
