64

C    5.4344911   -3.6311459   -1.0745419  
C    6.5284145   -4.4425008   -0.8808867  
C    7.3177614   -4.3671994   -2.0665765  
C    6.6498707   -3.4869983   -2.9560112  
N    5.5090647   -3.0595672   -2.3231753  
C    7.1445887   -3.1765025   -4.2263010  
C    8.3353837   -3.7650536   -4.6055033  
O    8.8635794   -3.4962889   -5.8350505  
C    9.0163928   -4.6462326   -3.7322522  
O   10.1887656   -5.1513659   -4.2554426  
C    8.5287895   -4.9532097   -2.4790430  
H    6.7318197   -5.0187069    0.0054583  
H    6.6402693   -2.5065429   -4.9089557  
H    9.6842716   -4.0022448   -5.8961929  
H   10.5856912   -5.7365384   -3.6030418  
H    9.0725104   -5.6318122   -1.8322471  
H    4.6062258   -3.4160589   -0.4213405  
C    4.5278027   -2.1194571   -2.8837265  
C    3.3823329   -1.6458105   -2.3290795  
C    2.7856145   -0.7523485   -3.2936976  
C    3.6837616   -0.7442612   -4.4641918  
N    4.7207730   -1.5927448   -4.1518260  
C    3.4699941   -0.0209495   -5.5923882  
C    2.2757340    0.8048556   -5.6581402  
O    1.9943433    1.4928400   -6.6306611  
C    1.3106478    0.8117466   -4.4299839  
O    0.3021851    1.5033786   -4.4736755  
C    1.6478437   -0.0100096   -3.2702997  
H    2.9992254   -1.8938567   -1.3552646  
H    4.1413736   -0.0292827   -6.4397904  
H    5.4970599   -1.7992790   -4.7532993  
C    1.1188642    0.0008224   -0.8003808  
C    0.0000000    0.0000000    0.0000000  
C   -1.1323861    0.0008899   -0.8673529  
C   -0.6382661    0.0019681   -2.1969282  
N    0.7324017    0.0038483   -2.1202240  
C   -1.4770912    0.0027320   -3.3154810  
C   -2.8395474    0.0020946   -3.0876860  
O   -3.7039199    0.0024426   -4.1440353  
C   -3.3517867    0.0013927   -1.7684331  
O   -4.7300496    0.0012363   -1.7073125  
C   -2.5248543    0.0009121   -0.6644818  
H   -1.1067568    0.0036992   -4.3313814  
H   -4.5940031    0.0021828   -3.7685133  
H   -4.9934602    0.0007260   -0.7819919  
H   -2.9462579    0.0005600    0.3339656  
H    2.1619896    0.0009357   -0.5342065  
C    0.8676693    0.7151171    2.2619005  
C    0.5875920    0.4624972    3.5848544  
C   -0.5048400   -0.4542819    3.6114698  
C   -0.8517165   -0.7276451    2.2635546  
N    0.0000000    0.0000000    1.4700000  
C   -1.8902865   -1.5946756    1.9108239  
C   -2.5912627   -2.1969500    2.9375057  
O   -3.6148162   -3.0527051    2.6493466  
C   -2.2603868   -1.9365747    4.2886322  
O   -3.0513550   -2.6123276    5.1947621  
C   -1.2361111   -1.0811317    4.6373480  
H    1.1060808    0.8876438    4.4271209  
H   -2.1597133   -1.8070987    0.8854031  
H   -3.9636755   -3.3565188    3.4974381  
H   -2.7621927   -2.3810384    6.0827341  
H   -1.0058879   -0.9010589    5.6809233  
H    1.6167816    1.3499334    1.8205408  
