62

C    3.2781708   -0.7090058   -6.3922030  
C    2.6048803    0.0088085   -7.3533951  
C    3.5842966    0.7376264   -8.0910727  
C    4.8481333    0.4217557   -7.5299420  
N    4.6259998   -0.4575718   -6.4993800  
C    6.0450331    0.9620006   -8.0098967  
C    5.9646588    1.8368206   -9.0759202  
O    7.1027220    2.3931253   -9.5842040  
C    4.7129400    2.1646286   -9.6491209  
O    4.7992507    3.0500744  -10.7035776  
C    3.5317413    1.6322511   -9.1759732  
H    5.3380475   -0.8660927   -5.9213837  
H    7.0114597    0.7253943   -7.5865295  
H    6.8257129    2.9646226  -10.3121606  
H    3.9110867    3.2183808  -11.0328824  
H    2.5879816    1.9021534   -9.6352650  
H    2.9034713   -1.3793388   -5.6377414  
C   -0.9736295    0.0040466   -4.6965763  
C    0.3136158    0.0047601   -5.1144025  
C    0.2364012    0.0059846   -6.5671705  
C   -1.2123330    0.0057273   -6.8634014  
N   -1.9266294    0.0046735   -5.7708042  
C   -1.7135251    0.0067567   -8.2102097  
C   -0.8085700    0.0083763   -9.2153901  
O   -1.1348676    0.0094710  -10.5190657  
C    0.6601147    0.0090487   -8.9486949  
O    1.4261914    0.0104112   -9.9122017  
C    1.1492587    0.0079241   -7.5584925  
H    1.2054050    0.0045794   -4.5112544  
H   -2.7773983    0.0063342   -8.3975174  
H   -0.2810960    0.0105416  -10.9883483  
C    1.1188642    0.0008216   -0.8003808  
C    0.0000000    0.0000000    0.0000000  
C   -1.1323861    0.0008904   -0.8673528  
C   -0.6382661    0.0019681   -2.1969280  
N    0.7324017    0.0038477   -2.1202241  
C   -1.4770913    0.0027323   -3.3154808  
C   -2.8395472    0.0020956   -3.0876858  
O   -3.7039201    0.0024441   -4.1440350  
C   -3.3517867    0.0013945   -1.7684332  
O   -4.7300494    0.0012387   -1.7073122  
C   -2.5248543    0.0009134   -0.6644817  
H    1.3576316   -0.0056175   -2.9057045  
H   -4.5940031    0.0021847   -3.7685129  
H   -4.9934602    0.0007284   -0.7819915  
H   -2.9462576    0.0005617    0.3339659  
H    2.1619896    0.0009343   -0.5342067  
C    2.5128556    2.1077716    2.9199648  
C    1.9592212    1.6432552    4.0696553  
C    0.8915788    0.7479214    3.6910360  
C    0.8684491    0.7287414    2.2159470  
N    1.8754542    1.5738793    1.8102719  
C    0.0000000    0.0000000    1.4700000  
C   -0.9772830   -0.8200135    2.1664417  
O   -1.8021297   -1.5120829    1.5842315  
C   -0.9711318   -0.8147624    3.7284083  
O   -1.7894187   -1.5009653    4.3257297  
C    0.0140216    0.0115358    4.4216297  
H    2.2638494    1.8988021    5.0689105  
H    0.0117648    0.0094386    5.5031631  
H    3.3327358    2.7953732    2.7900019  
H    2.1123206    1.7707734    0.8551938  
