62

C   10.2118241   -2.0686764   -0.7774680  
C   11.4181483   -1.5573543   -1.1967512  
C   11.1426475   -0.6838592   -2.2902345  
C    9.7390953   -0.7022959   -2.4942629  
N    9.2046165   -1.5545597   -1.5601341  
C    9.1102918    0.0460788   -3.4939281  
C    9.9129581    0.8275310   -4.3021593  
O    9.3508521    1.5785271   -5.2936512  
C   11.3153117    0.8589102   -4.1144425  
O   11.9762747    1.6851216   -4.9997925  
C   11.9363487    0.1206699   -3.1286230  
H   12.3786579   -1.7866767   -0.7680026  
H    8.2277419   -1.7606607   -1.4542134  
H   10.0775091    2.0406337   -5.7314760  
H   12.9176952    1.6487757   -4.8048309  
H   13.0125478    0.1648150   -3.0089303  
H    9.9903313   -2.7605350    0.0170323  
C    5.6407192    0.0091026   -0.6742914  
C    6.9070543    0.0224092   -1.2115854  
C    6.7574900    0.0226664   -2.6301166  
C    5.3654025    0.0093900   -2.9018581  
N    4.7161325   -0.0005435   -1.6923264  
C    4.8484273    0.0062156   -4.2009017  
C    5.7532359    0.0169402   -5.2446379  
O    5.3026531    0.0147677   -6.5330413  
C    7.1459667    0.0298829   -4.9937407  
O    7.9168099    0.0390839   -6.1378821  
C    7.6566883    0.0327485   -3.7124593  
H    7.8256166    0.0297822   -0.6501741  
H    3.7885253   -0.0040267   -4.4146879  
H    6.0871916    0.0231701   -7.0966844  
H    8.8436750    0.0475806   -5.8800996  
H    5.3238920    0.0042838    0.3545704  
C    3.2573665   -0.0002920   -1.5109385  
C    2.5379463   -0.0001709   -0.3591964  
C    1.1435038    0.0000331   -0.7338500  
C    1.1092599   -0.0000083   -2.2088477  
N    2.4227553    0.0001909   -2.6182613  
C   -0.0265539   -0.0002524   -2.9515660  
C   -1.3003040   -0.0002640   -2.2514977  
O   -2.3786790   -0.0004133   -2.8306421  
C   -1.2877727    0.0000311   -0.6895603  
O   -2.3539959    0.0003306   -0.0892030  
C    0.0000000    0.0000000    0.0000000  
H    2.9384091   -0.0000367    0.6389234  
H   -0.0296303   -0.0004086   -4.0327229  
H    2.7280482   -0.0013407   -3.5742119  
C    0.8400945    0.7047457    2.2710304  
C    0.0000000    0.0000000    1.4700000  
C   -0.8844236   -0.7423113    2.3369512  
C   -0.4878984   -0.4098547    3.7186280  
N    0.5629682    0.4714286    3.6095011  
C   -1.0836927   -0.9095027    4.8308716  
C   -2.1891196   -1.8367527    4.6554461  
O   -2.7906899   -2.3413415    5.5944904  
C   -2.6257283   -2.2031529    3.2011665  
O   -3.5549479   -2.9829990    3.0410059  
C   -1.9068976   -1.5999348    2.0816745  
H   -0.7774656   -0.6525820    5.8354244  
H   -2.2155208   -1.8586617    1.0779135  
H    1.6384792    1.3747609    1.9961646  
H    1.0518368    0.8833920    4.3830260  
