62

C    4.3949755    0.1042338   -6.6517154  
C    5.5858926   -0.5438213   -6.8845432  
C    6.0332257   -0.1410087   -8.1776923  
C    5.0663508    0.7614809   -8.6901295  
N    4.0841685    0.8866230   -7.7391960  
C    5.1827918    1.3606239   -9.9480078  
C    6.2957107    1.0431559  -10.7021991  
O    6.4593687    1.6000454  -11.9375548  
C    7.2711668    0.1445879  -10.2083607  
O    8.3203314   -0.0699386  -11.0781762  
C    7.1568097   -0.4470633   -8.9676370  
H    6.0718151   -1.2241433   -6.2062848  
H    3.2709467    1.4700823   -7.8181013  
H    4.4492976    2.0491667  -10.3443632  
H    7.2886794    1.2492629  -12.2874982  
H    8.9334683   -0.6879341  -10.6686051  
H    7.9199703   -1.1315691   -8.6161888  
C    4.6212876   -2.1169894   -2.7781369  
C    4.8855750   -1.6159777   -4.0317740  
C    3.8097322   -0.7409923   -4.3657838  
C    2.9114594   -0.7479356   -3.2680664  
N    3.4333737   -1.5950871   -2.3222562  
C    1.7334695    0.0049281   -3.2500363  
C    1.4574012    0.7791354   -4.3602465  
O    0.3208000    1.5340734   -4.3951777  
C    2.3411259    0.7990194   -5.4654406  
O    1.9261037    1.6191054   -6.4943034  
C    3.5032850    0.0563443   -5.4840273  
H    5.7471774   -1.8529552   -4.6321714  
H    3.0199243   -1.7930094   -1.4290217  
H    0.3218064    1.9898347   -5.2469672  
H    2.5782320    1.5750930   -7.2002742  
H    5.1854433   -2.8064337   -2.1736923  
C    1.1319246    0.0015678   -0.8009268  
C    0.7969914    0.0034958   -2.1169401  
C   -0.6453340    0.0035696   -2.1842669  
C   -1.1266832    0.0015410   -0.7896025  
N    0.0000000    0.0000000    0.0000000  
C   -2.4346129    0.0013913   -0.4276292  
C   -3.4350111    0.0031335   -1.4820181  
O   -4.6384614    0.0030875   -1.2583914  
C   -2.9478961    0.0050442   -2.9661074  
O   -3.7809382    0.0062135   -3.8623773  
C   -1.5113825    0.0053055   -3.2312122  
H   -2.7664565    0.0000174    0.6013448  
H   -1.1823533    0.0068381   -4.2614848  
H    2.1104316    0.0009435   -0.3488059  
C    0.8681109    0.7263879    2.2709268  
C    0.6127770    0.5096195    3.5869401  
C   -0.4920590   -0.4175482    3.6542670  
C   -0.8620974   -0.7254003    2.2596025  
N    0.0000000    0.0000000    1.4700000  
C   -1.8641242   -1.5660088    1.8976294  
C   -2.6293522   -2.2103885    2.9520183  
O   -3.5512764   -2.9839180    2.7283916  
C   -2.2549728   -1.8987399    4.4361073  
O   -2.8923672   -2.4351063    5.3323774  
C   -1.1543735   -0.9755647    4.7012123  
H    1.1382914    0.9492124    4.4159191  
H   -2.1192137   -1.7782617    0.8686553  
H   -0.9013378   -0.7652422    5.7314848  
H    1.6172880    1.3558399    1.8188057  
