62

C    3.3502832   -3.0777424   -7.8241468  
C    4.1393369   -2.9731726   -8.9461648  
C    4.0933327   -1.6094862   -9.3619091  
C    3.2536124   -0.9236473   -8.4473490  
N    2.8177467   -1.8449276   -7.5276313  
C    2.9801399    0.4435759   -8.5508025  
C    3.5652582    1.1310328   -9.5963727  
O    3.3321997    2.4677732   -9.7440938  
C    4.4057424    0.4642741  -10.5193215  
O    4.9121467    1.2866104  -11.5045433  
C    4.6757539   -0.8845626  -10.4180319  
H    4.6805249   -3.7806897   -9.4087945  
H    2.3409022    0.9721247   -7.8571074  
H    3.8282934    2.7468042  -10.5246688  
H    5.4685951    0.7585619  -12.0851748  
H    5.3233517   -1.3679767  -11.1401172  
H    3.1240794   -3.9344705   -7.2127486  
C    2.0663728   -2.0930016   -5.1167678  
C    1.0931325   -1.6308353   -4.2901601  
C    0.2706809   -0.7345480   -5.0680274  
C    0.8486731   -0.7122923   -6.4253114  
N    1.9347262   -1.5561043   -6.3884398  
C    0.3570941    0.0175291   -7.4584694  
C   -0.8196664    0.8358894   -7.2175211  
O   -1.3377660    1.5288420   -8.0833671  
C   -1.4481802    0.8277638   -5.7875877  
O   -2.4388904    1.5130257   -5.5727154  
C   -0.8287665    0.0000939   -4.7555305  
H    0.9660024   -1.8882582   -3.2537308  
H    0.7960888    0.0195932   -8.4464916  
H    2.8688295   -2.7804818   -4.9038726  
C    1.0672569   -0.0000698   -0.8321910  
C    0.0000000    0.0000000    0.0000000  
C   -1.1601223   -0.0000736   -0.8778472  
C   -0.5938729   -0.0000768   -2.2438435  
N    0.7113367   -0.0001553   -2.2234123  
C   -1.4286985   -0.0001877   -3.4135239  
C   -2.7683113   -0.0006798   -3.2270524  
O   -3.6653902   -0.0008302   -4.2276970  
C   -3.3702024   -0.0010610   -1.8610774  
O   -4.5974910   -0.0013779   -1.7662963  
C   -2.4926825   -0.0008943   -0.6770658  
H   -4.5324245   -0.0012258   -3.7833954  
H   -2.9677772   -0.0012974    0.2947961  
H    2.1134391   -0.0000547   -0.5705119  
C    2.5285572    2.1210227    2.9438989  
C    1.9331703    1.6216660    4.0790748  
C    0.8903039    0.7472258    3.6520102  
C    0.8972198    0.7527806    2.2336141  
N    1.9028376    1.5986179    1.8362361  
C    0.0000000    0.0000000    1.4700000  
C   -0.9207814   -0.7726952    2.1506477  
O   -1.8198395   -1.5274828    1.4542253  
C   -0.9436862   -0.7911793    3.5655508  
O   -1.9197945   -1.6098497    4.0950179  
C   -0.0590329   -0.0485852    4.3195194  
H    2.2150357    1.8593692    5.0905303  
H    2.1533708    1.7953814    0.8841339  
H   -2.3621246   -1.9821033    2.1118817  
H   -1.8668290   -1.5649508    5.0545920  
H   -0.1007624   -0.0827977    5.4019087  
H    3.3491200    2.8096064    2.8367138  
