62

C    0.3179156    0.1980488   -8.9033285  
C    1.3678501   -0.4586751   -9.5023427  
C    1.3745494   -0.0686728  -10.8743685  
C    0.2965872    0.8352961  -11.0553765  
N   -0.3253097    0.9736015   -9.8393459  
C    0.0021074    1.4238040  -12.2889603  
C    0.8107371    1.0939832  -13.3592484  
O    0.5680965    1.6401452  -14.5863773  
C    1.8908232    0.1937390  -13.1986502  
O    2.6020588   -0.0336914  -14.3587208  
C    2.1817538   -0.3874248  -11.9820431  
H    2.0448774   -1.1364064   -9.0111125  
H   -1.1187145    1.5610945   -9.6567478  
H   -0.8181071    2.1134087  -12.4335148  
H    1.2388432    1.2818380  -15.1821789  
H    3.3128463   -0.6519544  -14.1634368  
H    3.0155460   -1.0735184  -11.8896076  
C    1.8623197   -2.0072651   -5.4771202  
C    1.0190394   -1.6263760   -4.4895066  
C    0.0870117   -0.7080514   -5.1255131  
C    0.5265223   -0.6485023   -6.5361401  
N    1.5667222   -1.4080940   -6.7482583  
C   -0.1488130    0.1645215   -7.5097935  
C   -1.2149984    0.8849935   -7.0932569  
O   -1.9385161    1.6861033   -7.8937482  
C   -1.6831429    0.8457385   -5.6764077  
O   -2.6605019    1.5274253   -5.3677109  
C   -0.9736297    0.0040464   -4.6965763  
H    1.0282686   -1.9310391   -3.4569513  
H   -2.6258530    2.0607756   -7.3137985  
H    2.6982351   -2.6854681   -5.4118586  
C    1.1188642    0.0008222   -0.8003808  
C    0.0000000    0.0000000    0.0000000  
C   -1.1323862    0.0008899   -0.8673528  
C   -0.6382663    0.0019679   -2.1969280  
N    0.7324016    0.0038481   -2.1202242  
C   -1.4770914    0.0027318   -3.3154808  
C   -2.8395473    0.0020945   -3.0876857  
O   -3.7039201    0.0024425   -4.1440349  
C   -3.3517868    0.0013931   -1.7684331  
O   -4.7300497    0.0012366   -1.7073121  
C   -2.5248543    0.0009123   -0.6644817  
H    1.3576314   -0.0056167   -2.9057046  
H   -4.5940032    0.0021826   -3.7685128  
H   -4.9934602    0.0007259   -0.7819913  
H   -2.9462577    0.0005603    0.3339659  
H    2.1619895    0.0009355   -0.5342068  
C    2.5128556    2.1077716    2.9199648  
C    1.9592212    1.6432552    4.0696553  
C    0.8915788    0.7479214    3.6910360  
C    0.8684491    0.7287414    2.2159470  
N    1.8754542    1.5738793    1.8102719  
C    0.0000000    0.0000000    1.4700000  
C   -0.9772830   -0.8200135    2.1664417  
O   -1.8021297   -1.5120829    1.5842315  
C   -0.9711318   -0.8147624    3.7284083  
O   -1.7894187   -1.5009653    4.3257297  
C    0.0140216    0.0115358    4.4216297  
H    2.2638494    1.8988021    5.0689105  
H    0.0117648    0.0094386    5.5031631  
H    3.3327358    2.7953732    2.7900019  
H    2.1123206    1.7707734    0.8551938  
