62

C    6.2051227   -4.6214661   -5.7737543  
C    5.4413831   -3.5148924   -5.4827827  
C    5.9048425   -2.4572306   -6.3201341  
C    6.9614358   -2.9822445   -7.1074695  
N    7.1190671   -4.2980732   -6.7491880  
C    7.6553972   -2.2165519   -8.0492349  
C    7.2756165   -0.8969023   -8.1991311  
O    7.9195278   -0.1044065   -9.1048597  
C    6.2240593   -0.3547341   -7.4225387  
O    5.9648849    0.9740228   -7.6882005  
C    5.5391904   -1.1094507   -6.4930844  
H    4.6485667   -3.4746206   -4.7555874  
H    7.7883925   -4.9317544   -7.1472233  
H    8.4616917   -2.6107236   -8.6523267  
H    7.5045706    0.7662345   -9.0495427  
H    5.2422032    1.2620203   -7.1221692  
H    6.1711873   -5.6154374   -5.3616527  
C    4.2034632   -0.7255611   -4.3886927  
C    4.4527392   -0.5087782   -5.7058645  
C    3.4509038    0.4181860   -6.1769258  
C    2.5913884    0.7259028   -5.0179026  
N    3.1006054    0.0006263   -3.9654951  
C    1.5263726    1.5663063   -5.0520706  
C    1.2050739    2.2105929   -6.3146855  
O    0.2656473    2.9839394   -6.4477796  
C    2.1016856    1.8990847   -7.5551920  
O    1.8407233    2.4353745   -8.6236264  
C    3.2224910    0.9761281   -7.3945737  
H    0.9088831    1.7784629   -4.1903242  
H    3.8385514    0.7659019   -8.2582846  
H    4.7325171   -1.3548943   -3.6916046  
C    3.2798083    0.0005857   -1.4499652  
C    2.5571142    0.0005565   -2.5996556  
C    1.1637432    0.0001548   -2.2210361  
C    1.1336964   -0.0000200   -0.7459473  
N    2.4483512   -0.0001428   -0.3402723  
C    0.0000000    0.0000000    0.0000000  
C   -1.2757368   -0.0000186   -0.6964415  
O   -2.3524598   -0.0000639   -0.1142311  
C   -1.2676497   -0.0000872   -2.2584083  
O   -2.3355766   -0.0004101   -2.8557295  
C    0.0181558    0.0001758   -2.9516296  
H    0.0150788    0.0003319   -4.0331631  
H    4.3498547    0.0008612   -1.3200026  
H    2.7563626    0.0012823    0.6148059  
C    2.5285572    2.1210227    2.9438989  
C    1.9331703    1.6216660    4.0790748  
C    0.8903039    0.7472258    3.6520102  
C    0.8972198    0.7527806    2.2336141  
N    1.9028376    1.5986179    1.8362361  
C    0.0000000    0.0000000    1.4700000  
C   -0.9207814   -0.7726952    2.1506477  
O   -1.8198395   -1.5274828    1.4542253  
C   -0.9436862   -0.7911793    3.5655508  
O   -1.9197945   -1.6098497    4.0950179  
C   -0.0590329   -0.0485852    4.3195194  
H    2.2150357    1.8593692    5.0905303  
H    2.1533708    1.7953814    0.8841339  
H   -2.3621246   -1.9821033    2.1118817  
H   -1.8668290   -1.5649508    5.0545920  
H   -0.1007624   -0.0827977    5.4019087  
H    3.3491200    2.8096064    2.8367138  
