60

C    3.7052292    2.1164127   -6.2801942  
C    3.8308320    1.6163020   -7.5555686  
C    4.9576983    0.7418024   -7.5507771  
C    5.4838235    0.7480995   -6.2335540  
N    4.7010151    1.5944168   -5.4881840  
C    6.6020619   -0.0045253   -5.8622221  
C    7.1998912   -0.7778250   -6.8383293  
O    8.2946057   -1.5324922   -6.5299629  
C    6.6898961   -0.7970539   -8.1583111  
O    7.3957625   -1.6162651   -9.0150428  
C    5.5869252   -0.0546141   -8.5254148  
H    3.1898503    1.8535537   -8.3873423  
H    4.8262859    1.7917451   -4.5117876  
H    8.5502785   -1.9876031   -7.3428410  
H    6.9864035   -1.5718528   -9.8845588  
H    5.2192187   -0.0894030   -9.5442674  
H    2.9849770    2.8052741   -5.8731748  
C    4.5679461   -0.0016854   -2.0086701  
C    5.6049857   -0.0016933   -1.1391135  
C    6.7955419   -0.0024716   -1.9752200  
C    6.2781456   -0.0029782   -3.3604582  
N    4.9730338   -0.0024399   -3.3863782  
C    7.1539712   -0.0037579   -4.4997628  
C    8.4861197   -0.0036308   -4.2658492  
O    9.4181585   -0.0043053   -5.2340147  
C    9.0391356   -0.0027522   -2.8793671  
O   10.2622855   -0.0028086   -2.7410741  
C    8.1201339   -0.0020062   -1.7272562  
H    5.5667635   -0.0011380   -0.0631887  
H   10.2688725   -0.0039791   -4.7592114  
H    8.5604265   -0.0012651   -0.7391404  
C    3.1301149   -0.0010311   -1.7028252  
C    2.5367768   -0.0002767   -0.4864665  
C    1.1089904    0.0001028   -0.7656183  
C    1.0177872   -0.0004148   -2.2415132  
N    2.1993578   -0.0011611   -2.7963820  
C   -0.2459209   -0.0002877   -2.9257118  
C   -1.3675319   -0.0000605   -2.1698524  
O   -2.6129313    0.0000867   -2.6748490  
C   -1.3083584    0.0000910   -0.6783232  
O   -2.3693261    0.0004206   -0.0541692  
C    0.0000000    0.0000000    0.0000000  
H    3.0096017   -0.0001007    0.4807525  
H   -0.2829630   -0.0004687   -4.0053125  
H   -3.1967441    0.0002094   -1.8949034  
C    0.8681109    0.7263879    2.2709268  
C    0.6127770    0.5096195    3.5869401  
C   -0.4920590   -0.4175482    3.6542670  
C   -0.8620974   -0.7254003    2.2596025  
N    0.0000000    0.0000000    1.4700000  
C   -1.8641242   -1.5660088    1.8976294  
C   -2.6293522   -2.2103885    2.9520183  
O   -3.5512764   -2.9839180    2.7283916  
C   -2.2549728   -1.8987399    4.4361073  
O   -2.8923672   -2.4351063    5.3323774  
C   -1.1543735   -0.9755647    4.7012123  
H    1.1382914    0.9492124    4.4159191  
H   -2.1192137   -1.7782617    0.8686553  
H   -0.9013378   -0.7652422    5.7314848  
H    1.6172880    1.3558399    1.8188057  
