62

C   -1.1161981    0.1354435   -0.7919011  
C   -0.7441679    0.0733656   -2.1148550  
C    0.6700108   -0.1109971   -2.1414706  
C    1.1094998   -0.1545893   -0.7935551  
N    0.0000000    0.0000000    0.0000000  
C    2.4515050   -0.3260304   -0.4408249  
C    3.3664775   -0.4561343   -1.4675063  
O    4.6897574   -0.6261590   -1.1793473  
C    2.9474649   -0.4148716   -2.8186330  
O    3.9778337   -0.5584406   -3.7247629  
C    1.6237441   -0.2454987   -3.1673488  
H   -1.4099939    0.1524629   -2.9571211  
H    2.7929174   -0.3599703    0.5845955  
H    5.1473126   -0.6943433   -2.0274392  
H    3.6096329   -0.5192289   -4.6127349  
H   -2.0892548    0.2670523   -0.3505407  
C    1.2290815   -0.2078080   -4.5828772  
C   -0.0069890   -0.0516188   -5.1230711  
C    0.1530310   -0.0866173   -6.5576454  
C    1.5939785   -0.2773961   -6.8107563  
N    2.1906524   -0.3427887   -5.5727768  
C    2.1532295   -0.3629890   -8.0442944  
C    1.2775393   -0.2601401   -9.1997704  
O    1.6849788   -0.3249993  -10.3521965  
C   -0.2518360   -0.0576403   -8.9552088  
O   -0.9988798    0.0306170   -9.9202980  
C   -0.7364171    0.0193411   -7.5793066  
H   -0.9259636    0.0739784   -4.5787136  
H   -1.7967243    0.1594390   -7.4185425  
H    3.1730258   -0.4710556   -5.4129719  
C    5.1219445   -2.8561372   -5.9817033  
C    6.2249153   -2.5391827   -6.7076993  
C    5.8082525   -1.5918700   -7.7145889  
C    4.3617599   -1.3813783   -7.5142316  
N    4.0071960   -2.1766404   -6.4489934  
C    3.5937185   -0.5535765   -8.2669344  
C    4.2344562    0.1787844   -9.3465816  
O    3.6287144    0.9485684  -10.0806184  
C    5.7653161   -0.0289936   -9.5770179  
O    6.3156595    0.5819814  -10.4831595  
C    6.4867205   -0.9478349   -8.7000013  
H    7.2171227   -2.9251083   -6.5553858  
H    7.5464715   -1.0859556   -8.8660570  
H    5.0296372   -3.5291082   -5.1447572  
H    3.0816445   -2.2503635   -6.0682491  
C    2.5311839    2.1237619    3.0120429  
C    1.9795631    1.6616747    1.8395852  
C    0.9223175    0.7739173    2.1983588  
C    0.8753926    0.7337535    3.6154372  
N    1.8668922    1.5631002    4.0777464  
C   -0.0496243   -0.0427881    4.3197917  
C   -0.9437528   -0.7922060    3.5801400  
O   -1.8685244   -1.5680278    4.2172520  
C   -0.9124520   -0.7656372    2.1655264  
O   -1.8671164   -1.5663939    1.5732860  
C    0.0000000    0.0000000    1.4700000  
H    2.3005065    1.9304404    0.8477417  
H    2.0679347    1.7444845    5.0445261  
H   -0.0904770   -0.0778569    5.3997470  
H   -2.3849669   -2.0011402    3.5251786  
H   -1.7775064   -1.4909735    0.6183591  
H    3.3468514    2.8078103    3.1724291  
