62

C    3.7931237   -3.6180405    0.4681524  
C    4.4688656   -4.4246180    1.3543090  
C    5.8536513   -4.3381210    1.0234224  
C    5.9631049   -3.4563281   -0.0821940  
N    4.6933491   -3.0387594   -0.3951994  
C    7.1878485   -3.1357337   -0.6755012  
C    8.3228044   -3.7156351   -0.1428016  
O    9.5446557   -3.4368290   -0.6835008  
C    8.2339844   -4.5982400    0.9598934  
O    9.4528224   -5.0939814    1.3746464  
C    7.0260534   -4.9151774    1.5455373  
H    4.0189277   -5.0049065    2.1415924  
H    7.2779770   -2.4645077   -1.5184329  
H   10.1913507   -3.9379941   -0.1698029  
H    9.3039678   -5.6808235    2.1223510  
H    6.9892647   -5.5946238    2.3890287  
H    2.7400813   -3.4112466    0.3827331  
C    4.3489003   -2.1006738   -1.4732768  
C    3.1285974   -1.6364578   -1.8466932  
C    3.3412599   -0.7405808   -2.9589047  
C    4.7959153   -0.7207993   -3.2046241  
N    5.3494458   -1.5655063   -2.2702989  
C    5.4017633    0.0079523   -4.1760004  
C    4.5653390    0.8276900   -5.0367904  
O    5.0159492    1.5198389   -5.9402175  
C    3.0222816    0.8221878   -4.7944084  
O    2.3079739    1.5086269   -5.5126188  
C    2.4861704   -0.0045255   -3.7159919  
H    2.1869569   -1.8922660   -1.3944885  
H    6.4704902    0.0081996   -4.3395029  
H    6.3291330   -1.7643306   -2.1823805  
C    0.0000000    0.0000000    0.0000000  
C    1.0521669   -0.0011848   -0.8862341  
C    0.4917221   -0.0011931   -2.1979130  
C   -0.9187427    0.0003100   -2.0478683  
N   -1.1833170   -0.0009472   -0.7007915  
C   -1.7951698    0.0010259   -3.1372090  
C   -1.2375835    0.0005161   -4.4010425  
O   -2.0474208    0.0015256   -5.4997580  
C    0.1673584   -0.0013557   -4.5711962  
O    0.5673529   -0.0020659   -5.8915551  
C    1.0325773   -0.0023359   -3.4969890  
H    2.0953059   -0.0030542   -0.6200560  
H   -2.0989777    0.0102265   -0.2891825  
H   -2.8710930    0.0020274   -3.0295514  
H   -1.4634881    0.0006427   -6.2693593  
H    1.5290715   -0.0033076   -5.9180042  
C    3.2573670    0.0002920    2.9809380  
C    2.5379467    0.0001709    1.8291961  
C    1.1435042   -0.0000331    2.2038498  
C    1.1092607    0.0000083    3.6788474  
N    2.4227561   -0.0001909    4.0882609  
C   -0.0265533    0.0002524    4.4215661  
C   -1.3003036    0.0002640    3.7214979  
O   -2.3786784    0.0004133    4.3006425  
C   -1.2877726   -0.0000311    2.1595606  
O   -2.3539958   -0.0003306    1.5592035  
C    0.0000000    0.0000000    1.4700000  
H    2.9384090    0.0000368    0.8310761  
H   -0.0296291    0.0004086    5.5027230  
H    4.3270393    0.0004765    3.1139444  
H    2.7280493    0.0013407    5.0442112  
