60

C   -3.3330910    0.0000654   -7.3160011  
C   -4.0827222    0.0013089   -6.1625197  
C   -5.4535324    0.0016883   -6.5568301  
C   -5.4786752    0.0003405   -7.9750299  
N   -4.1745395    0.0013294   -8.4038018  
C   -6.6678365   -0.0000118   -8.7103426  
C   -7.8532096    0.0007081   -8.0010692  
O   -9.0434566    0.0000551   -8.6691449  
C   -7.8487025    0.0024296   -6.5858682  
O   -9.1096138    0.0033838   -6.0260073  
C   -6.6759427    0.0030514   -5.8598107  
H   -3.6898618    0.0029781   -5.1601969  
H   -3.8790650   -0.0098140   -9.3632561  
H   -6.6937638   -0.0008931   -9.7913277  
H   -9.7351233    0.0010336   -7.9947102  
H   -9.0171923    0.0045023   -5.0683746  
H   -6.7039320    0.0045582   -4.7764401  
C   -0.0307354   -0.0004645   -4.4215603  
C    1.0209938   -0.0006522   -5.2805949  
C    0.4733355   -0.0007744   -6.6165991  
C   -0.9941885   -0.0006124   -6.4644009  
N   -1.2345441   -0.0008268   -5.1097353  
C   -1.8743248   -0.0002661   -7.4973884  
C   -1.3406225   -0.0002640   -8.8493122  
O   -2.0512433   -0.0000281   -9.8459652  
C    0.2104054   -0.0006861   -9.0340223  
O    0.6713873   -0.0009947  -10.1674938  
C    1.0569887   -0.0007583   -7.8435816  
H    2.0616762   -0.0008820   -5.0093140  
H    2.1298771   -0.0008460   -7.9800887  
H   -2.1443165    0.0007708   -4.6862276  
C    3.2573669   -0.0002919   -1.5109381  
C    2.5379467   -0.0001709   -0.3591962  
C    1.1435042    0.0000332   -0.7338501  
C    1.1092607   -0.0000081   -2.2088477  
N    2.4227561    0.0001910   -2.6182614  
C   -0.0265534   -0.0002522   -2.9515663  
C   -1.3003036   -0.0002639   -2.2514981  
O   -2.3786785   -0.0004131   -2.8306428  
C   -1.2877726    0.0000312   -0.6895608  
O   -2.3539957    0.0003306   -0.0892035  
C    0.0000000    0.0000000    0.0000000  
H    2.9384091   -0.0000368    0.6389238  
H    4.3270391   -0.0004764   -1.6439447  
H    2.7280492   -0.0013405   -3.5742114  
C    0.8175213    0.6860729    2.3021913  
C    0.0000000    0.0000000    1.4700000  
C   -0.8887526   -0.7456559    2.3478473  
C   -0.4549825   -0.3816753    3.7138435  
N    0.5448156    0.4573574    3.6934124  
C   -1.0945674   -0.9182058    4.8835240  
C   -2.1210866   -1.7789155    4.6970523  
O   -2.8083856   -2.3554314    5.6976972  
C   -2.5824069   -2.1655116    3.3310774  
O   -3.5227682   -2.9541547    3.2362962  
C   -1.9100805   -1.6015804    2.1470656  
H   -0.7567140   -0.6349833    5.8697035  
H   -3.4728268   -2.9124471    5.2533954  
H   -2.2742832   -1.9066565    1.1752040  
H    1.6189533    1.3585343    2.0405121  
