62

C    6.8242361   -3.0369665   -4.5274151  
C    7.2750512   -3.6855733   -3.4011193  
C    8.3923474   -4.4791160   -3.7967691  
C    8.5780956   -4.2722331   -5.1876763  
N    7.6079968   -3.3927470   -5.6000225  
C    9.5935815   -4.8986719   -5.9164775  
C   10.4371066   -5.7492212   -5.2285757  
O   11.4457898   -6.3866092   -5.8913776  
C   10.2676108   -5.9687907   -3.8408167  
O   11.1874539   -6.8432871   -3.2999949  
C    9.2658592   -5.3513405   -3.1212508  
H    6.8501210   -3.5984300   -2.4158106  
H    7.4956564   -3.0500799   -6.5370075  
H    9.7403585   -4.7453086   -6.9767317  
H   11.9072808   -6.9240366   -5.2345192  
H   11.0029251   -6.9360961   -2.3603463  
H    9.1605678   -5.5391778   -2.0591258  
C    5.7052414   -2.0986832   -4.6958680  
C    4.8302126   -1.6343308   -3.7670099  
C    3.9272648   -0.7382851   -4.4501080  
C    4.3509914   -0.7185532   -5.8632098  
N    5.4336782   -1.5634475   -5.9458741  
C    3.7483765    0.0103197   -6.8365049  
C    2.6063696    0.8302497   -6.4676277  
O    1.9959432    1.5225187   -7.2716453  
C    2.1405130    0.8248035   -4.9767376  
O    1.1803930    1.5114043   -4.6542318  
C    2.8699641   -0.0020530   -4.0185824  
H    4.8187254   -1.8901546   -2.7224838  
H    4.0749498    0.0105278   -7.8671645  
H    5.9462301   -1.7623466   -6.7853838  
C    3.2573670   -0.0002921   -1.5109382  
C    2.5379468   -0.0001711   -0.3591962  
C    1.1435043    0.0000330   -0.7338498  
C    1.1092608   -0.0000085   -2.2088474  
N    2.4227562    0.0001906   -2.6182610  
C   -0.0265533   -0.0002525   -2.9515663  
C   -1.3003033   -0.0002641   -2.2514979  
O   -2.3786785   -0.0004132   -2.8306425  
C   -1.2877724    0.0000310   -0.6895608  
O   -2.3539956    0.0003306   -0.0892035  
C    0.0000000    0.0000000    0.0000000  
H    2.9384091   -0.0000370    0.6389240  
H   -0.0296290   -0.0004088   -4.0327231  
H    4.3270394   -0.0004767   -1.6439445  
C    2.5285572    2.1210227    2.9438989  
C    1.9331703    1.6216660    4.0790748  
C    0.8903039    0.7472258    3.6520102  
C    0.8972198    0.7527806    2.2336141  
N    1.9028376    1.5986179    1.8362361  
C    0.0000000    0.0000000    1.4700000  
C   -0.9207814   -0.7726952    2.1506477  
O   -1.8198395   -1.5274828    1.4542253  
C   -0.9436862   -0.7911793    3.5655508  
O   -1.9197945   -1.6098497    4.0950179  
C   -0.0590329   -0.0485852    4.3195194  
H    2.2150357    1.8593692    5.0905303  
H    2.1533708    1.7953814    0.8841339  
H   -2.3621246   -1.9821033    2.1118817  
H   -1.8668290   -1.5649508    5.0545920  
H   -0.1007624   -0.0827977    5.4019087  
H    3.3491200    2.8096064    2.8367138  
