64

C    0.1741724    0.7212893   -7.3443371  
C    1.1793678    0.0025944   -7.9489253  
C    0.5838542   -0.7248480   -9.0216741  
C   -0.7985598   -0.4072693   -9.0230276  
N   -1.0137956    0.4717080   -7.9907048  
C   -1.6973581   -0.9458522   -9.9487048  
C   -1.1913463   -1.8207352  -10.8903566  
O   -2.0248924   -2.3754572  -11.8179877  
C    0.1848931   -2.1502346  -10.9049671  
O    0.5339176   -3.0355150  -11.9038681  
C    1.0721084   -1.6194970   -9.9918992  
H   -1.8988895    0.8811797   -7.7521218  
H   -2.7521376   -0.7079395   -9.9549646  
H   -1.4764063   -2.9473024  -12.3706374  
H    1.4790229   -3.2050246  -11.8434782  
H    2.1207554   -1.8906731  -10.0276984  
H    0.2103698    1.3910754   -6.5022948  
C    3.1006060    0.0006268   -3.9654947  
C    4.4058790   -0.0003346   -4.3999234  
C    4.3701024   -0.0003774   -5.8258687  
C    3.0041049    0.0008756   -6.2079354  
N    2.2602341   -0.0004912   -5.0541280  
C    2.5925321    0.0014921   -7.5441226  
C    3.5778761    0.0011383   -8.5122515  
O    3.2316408    0.0020604   -9.8325298  
C    4.9461768   -0.0004834   -8.1509106  
O    5.8059950   -0.0010616   -9.2298265  
C    5.3529312   -0.0013652   -6.8329293  
H    5.2766923   -0.0020369   -3.7669344  
H    1.2572718    0.0105050   -5.0102246  
H    4.0587365    0.0013142  -10.3317066  
H    6.7093478   -0.0021360   -8.8988329  
H    6.4083295   -0.0027870   -6.5867369  
C    3.2798085    0.0005859   -1.4499648  
C    2.5571146    0.0005569   -2.5996553  
C    1.1637437    0.0001551   -2.2210359  
C    1.1336966   -0.0000198   -0.7459471  
N    2.4483513   -0.0001427   -0.3402720  
C    0.0000000    0.0000000    0.0000000  
C   -1.2757366   -0.0000185   -0.6964416  
O   -2.3524595   -0.0000640   -0.1142313  
C   -1.2676493   -0.0000870   -2.2584084  
O   -2.3355759   -0.0004098   -2.8557296  
C    0.0181563    0.0001763   -2.9516295  
H    0.0150795    0.0003323   -4.0331630  
H    4.3498549    0.0008614   -1.3200020  
H    2.7563627    0.0012824    0.6148062  
C    0.8676693    0.7151171    2.2619005  
C    0.5875920    0.4624972    3.5848544  
C   -0.5048400   -0.4542819    3.6114698  
C   -0.8517165   -0.7276451    2.2635546  
N    0.0000000    0.0000000    1.4700000  
C   -1.8902865   -1.5946756    1.9108239  
C   -2.5912627   -2.1969500    2.9375057  
O   -3.6148162   -3.0527051    2.6493466  
C   -2.2603868   -1.9365747    4.2886322  
O   -3.0513550   -2.6123276    5.1947621  
C   -1.2361111   -1.0811317    4.6373480  
H    1.1060808    0.8876438    4.4271209  
H   -2.1597133   -1.8070987    0.8854031  
H   -3.9636755   -3.3565188    3.4974381  
H   -2.7621927   -2.3810384    6.0827341  
H   -1.0058879   -0.9010589    5.6809233  
H    1.6167816    1.3499334    1.8205408  
