64

C    1.2159527   -1.0676903   -7.6952661  
C    2.2676896   -1.9534862   -7.7362745  
C    2.5432937   -2.2091700   -9.1122351  
C    1.6199646   -1.4448588   -9.8706671  
N    0.8274510   -0.7650948   -8.9793421  
C    1.6004920   -1.4520991  -11.2686504  
C    2.5302457   -2.2451229  -11.9127384  
O    2.5556724   -2.2891012  -13.2767148  
C    3.4594209   -3.0151634  -11.1734901  
O    4.3201324   -3.7529437  -11.9597461  
C    3.4790327   -3.0087155   -9.7943241  
H    2.7732604   -2.3656105   -6.8798025  
H    0.0872932   -0.1330409   -9.2256246  
H    0.8992567   -0.8719534  -11.8525189  
H    3.2694373   -2.8940840  -13.5171348  
H    4.9139979   -4.2433332  -11.3831659  
H    4.2025002   -3.6091245   -9.2552672  
C    0.8246863   -0.7190548   -5.2242741  
C   -0.0307352   -0.0004646   -4.4215603  
C   -0.9001599    0.7278870   -5.2865486  
C   -0.5247006    0.4109453   -6.6171514  
N    0.5268045   -0.4685443   -6.5433115  
C   -1.1700219    0.9504898   -7.7339512  
C   -2.2135710    1.8256978   -7.5033123  
O   -2.8785543    2.3813521   -8.5578538  
C   -2.6026991    2.1545720   -6.1829954  
O   -3.6585226    3.0402833   -6.1189984  
C   -1.9663483    1.6228859   -5.0807725  
H   -0.8885748    0.7130665   -8.7506223  
H   -3.5595519    2.9532719   -8.1804769  
H   -3.8580189    3.2093225   -5.1931309  
H   -2.2865745    1.8936005   -4.0814492  
H    1.6246620   -1.3893560   -4.9602777  
C    3.2573670   -0.0002920   -1.5109380  
C    2.5379468   -0.0001709   -0.3591961  
C    1.1435043    0.0000332   -0.7338500  
C    1.1092609   -0.0000082   -2.2088477  
N    2.4227562    0.0001909   -2.6182613  
C   -0.0265532   -0.0002522   -2.9515663  
C   -1.3003035   -0.0002639   -2.2514981  
O   -2.3786784   -0.0004131   -2.8306429  
C   -1.2877725    0.0000312   -0.6895608  
O   -2.3539958    0.0003307   -0.0892036  
C    0.0000000    0.0000000    0.0000000  
H    2.9384091   -0.0000369    0.6389239  
H    4.3270394   -0.0004765   -1.6439446  
H    2.7280494   -0.0013406   -3.5742113  
C    2.5311839    2.1237619    3.0120429  
C    1.9795631    1.6616747    1.8395852  
C    0.9223175    0.7739173    2.1983588  
C    0.8753926    0.7337535    3.6154372  
N    1.8668922    1.5631002    4.0777464  
C   -0.0496243   -0.0427881    4.3197917  
C   -0.9437528   -0.7922060    3.5801400  
O   -1.8685244   -1.5680278    4.2172520  
C   -0.9124520   -0.7656372    2.1655264  
O   -1.8671164   -1.5663939    1.5732860  
C    0.0000000    0.0000000    1.4700000  
H    2.3005065    1.9304404    0.8477417  
H    2.0679347    1.7444845    5.0445261  
H   -0.0904770   -0.0778569    5.3997470  
H   -2.3849669   -2.0011402    3.5251786  
H   -1.7775064   -1.4909735    0.6183591  
H    3.3468514    2.8078103    3.1724291  
