60

C    5.1970289   -2.9739586   -7.0470745  
C    4.3073894   -1.9893015   -6.6845019  
C    4.7470930   -0.7821429   -7.3042025  
C    5.9196403   -1.0945015   -8.0387028  
N    6.1659749   -2.4330846   -7.8594475  
C    6.6254634   -0.1405990   -8.7780762  
C    6.1385688    1.1521142   -8.7761829  
O    6.7887862    2.1229112   -9.4817200  
C    4.9704210    1.4834187   -8.0492132  
O    4.6133215    2.8124528   -8.1466373  
C    4.2737533    0.5429397   -7.3193633  
H    3.4479299   -2.1242352   -6.0503763  
H    6.9275761   -2.9429999   -8.2692393  
H    7.5198487   -0.3722406   -9.3398744  
H    6.2898026    2.9390497   -9.3468224  
H    3.8154150    2.9518420   -7.6274850  
H    5.2178675   -4.0189867   -6.7893128  
C    2.8937202   -0.6810877   -3.3716097  
C    1.7334695    0.0049281   -3.2500363  
C    1.6077152    0.7522586   -4.4918828  
C    2.8122600    0.3892091   -5.2689615  
N    3.5698266   -0.4507651   -4.6174054  
C    3.0644636    0.9274691   -6.5773021  
C    2.1544923    1.7889433   -7.0863685  
O    2.2622353    2.3670678   -8.2947574  
C    0.9287272    2.1746337   -6.3268272  
O    0.1435732    2.9640514   -6.8517783  
C    0.6926284    1.6089291   -4.9866179  
H    1.4670782    2.9242634   -8.3748263  
H   -0.2072109    1.9133942   -4.4691038  
H    3.3447091   -1.3545428   -2.6602446  
C    1.1319246    0.0015678   -0.8009268  
C    0.7969914    0.0034958   -2.1169401  
C   -0.6453340    0.0035696   -2.1842669  
C   -1.1266832    0.0015410   -0.7896025  
N    0.0000000    0.0000000    0.0000000  
C   -2.4346129    0.0013913   -0.4276292  
C   -3.4350111    0.0031335   -1.4820181  
O   -4.6384614    0.0030875   -1.2583914  
C   -2.9478961    0.0050442   -2.9661074  
O   -3.7809382    0.0062135   -3.8623773  
C   -1.5113825    0.0053055   -3.2312122  
H   -2.7664565    0.0000174    0.6013448  
H   -1.1823533    0.0068381   -4.2614848  
H    2.1104316    0.0009435   -0.3488059  
C    0.0000000    0.0000000    1.4700000  
C    1.0541688    0.0001722    2.3260392  
C    0.5103138    0.0000454    3.6635956  
C   -0.9576371   -0.0002459    3.5155732  
N   -1.2018458    0.0001392    2.1615969  
C   -1.8348311   -0.0008317    4.5510609  
C   -1.2972847   -0.0009736    5.9014604  
O   -2.0050672   -0.0014265    6.9001319  
C    0.2542623   -0.0004184    6.0817573  
O    0.7184670   -0.0002256    7.2139121  
C    1.0974552   -0.0000873    4.8889129  
H    2.0940752    0.0005483    2.0517982  
H   -2.9081052   -0.0011668    4.4207061  
H    2.1707277    0.0000911    5.0223670  
H   -2.1128194   -0.0014912    1.7406791  
