60

C    5.8376661   -4.6292738   -6.0318244  
C    5.0968618   -3.5216458   -5.6900101  
C    5.5017948   -2.4655168   -6.5590442  
C    6.5006805   -2.9925088   -7.4171998  
N    6.6818257   -4.3079899   -7.0688975  
C    7.1280724   -2.2286898   -8.4060119  
C    6.7398082   -0.9089138   -8.5309946  
O    7.3197974   -0.1181994   -9.4804138  
C    5.7452123   -0.3647864   -7.6839289  
O    5.4692203    0.9638359   -7.9327954  
C    5.1260436   -1.1176540   -6.7080462  
H    4.3565575   -3.4797048   -4.9095075  
H    7.3213654   -4.9427883   -7.5116157  
H    7.8901773   -2.6243743   -9.0631510  
H    6.9103634    0.7528752   -9.3976025  
H    4.7878667    1.2532237   -7.3182905  
H    5.8316984   -5.6226587   -5.6169637  
C    3.9401662   -0.7297680   -4.5164158  
C    4.0974221   -0.5149774   -5.8480354  
C    3.0659746    0.4122206   -6.2496016  
C    2.2893655    0.7222460   -5.0340560  
N    2.8699641   -0.0020530   -4.0185824  
C    1.2252011    1.5635274   -4.9952717  
C    0.8173872    2.2063902   -6.2333953  
O   -0.1284219    2.9803718   -6.3019358  
C    1.6253347    1.8924311   -7.5328016  
O    1.2911293    2.4275067   -8.5812588  
C    2.7538819    0.9687189   -7.4492039  
H    0.6692881    1.7773818   -4.0929764  
H    3.3082345    0.7567935   -8.3533637  
H    4.5159220   -1.3586198   -3.8569165  
C    3.2573670   -0.0002921   -1.5109382  
C    2.5379468   -0.0001711   -0.3591962  
C    1.1435043    0.0000330   -0.7338498  
C    1.1092608   -0.0000085   -2.2088474  
N    2.4227562    0.0001906   -2.6182610  
C   -0.0265533   -0.0002525   -2.9515663  
C   -1.3003033   -0.0002641   -2.2514979  
O   -2.3786785   -0.0004132   -2.8306425  
C   -1.2877724    0.0000310   -0.6895608  
O   -2.3539956    0.0003306   -0.0892035  
C    0.0000000    0.0000000    0.0000000  
H    2.9384091   -0.0000370    0.6389240  
H   -0.0296290   -0.0004088   -4.0327231  
H    4.3270394   -0.0004767   -1.6439445  
C    0.0000000    0.0000000    1.4700000  
C    1.0541688    0.0001722    2.3260392  
C    0.5103138    0.0000454    3.6635956  
C   -0.9576371   -0.0002459    3.5155732  
N   -1.2018458    0.0001392    2.1615969  
C   -1.8348311   -0.0008317    4.5510609  
C   -1.2972847   -0.0009736    5.9014604  
O   -2.0050672   -0.0014265    6.9001319  
C    0.2542623   -0.0004184    6.0817573  
O    0.7184670   -0.0002256    7.2139121  
C    1.0974552   -0.0000873    4.8889129  
H    2.0940752    0.0005483    2.0517982  
H   -2.9081052   -0.0011668    4.4207061  
H    2.1707277    0.0000911    5.0223670  
H   -2.1128194   -0.0014912    1.7406791  
