62

C    4.0573273   -3.6534297   -6.8214883  
C    5.0472761   -4.4760519   -6.3359344  
C    5.0127249   -4.3743678   -4.9135894  
C    3.9722184   -3.4676425   -4.5862941  
N    3.4139983   -3.0472242   -5.7679268  
C    3.6522233   -3.1274685   -3.2684649  
C    4.3959664   -3.7135333   -2.2627051  
O    4.1254896   -3.4168759   -0.9581557  
C    5.4383548   -4.6203340   -2.5692289  
O    6.0863091   -5.1186554   -1.4578458  
C    5.7547671   -4.9561771   -3.8690819  
H    5.7131997   -5.0748159   -6.9334473  
H    2.8604808   -2.4369792   -3.0123977  
H    4.7517045   -3.9257173   -0.4269305  
H    6.7749775   -5.7224074   -1.7525078  
H    6.5587251   -5.6536929   -4.0730488  
H    3.7601846   -3.4500520   -7.8360333  
C    2.2882811   -2.1097764   -5.8897976  
C    1.6780079   -1.6459954   -7.0107565  
C    0.6303811   -0.7506080   -6.5799507  
C    0.6807202   -0.7305947   -5.1055499  
N    1.7068256   -1.5753508   -4.7500440  
C   -0.1496415   -0.0015615   -4.3176961  
C   -1.1605343    0.8179097   -4.9650739  
O   -1.9554939    1.5101850   -4.3429042  
C   -1.2321591    0.8117736   -6.5254061  
O   -2.0792941    1.4975145   -7.0816282  
C   -0.2825949   -0.0147693   -7.2663561  
H    1.9325518   -1.9020632   -8.0237969  
H   -0.3386982   -0.0132857   -8.3464368  
H    1.9909862   -1.7716675   -3.8078338  
C    3.3003543    0.0005276   -1.4738987  
C    2.5232814    0.0003497   -2.6090747  
C    1.1623200   -0.0001320   -2.1820103  
C    1.1711883    0.0000582   -0.7636140  
N    2.4852300   -0.0014919   -0.3662360  
C    0.0000000    0.0000000    0.0000000  
C   -1.2020384    0.0000519   -0.6806477  
O   -2.3759249    0.0003493    0.0157743  
C   -1.2314656   -0.0005115   -2.0955510  
O   -2.5054392   -0.0008039   -2.6250180  
C   -0.0764516   -0.0007274   -2.8495195  
H    2.8919955   -0.0005620   -3.6205304  
H    2.8036267    0.0088183    0.5858662  
H   -3.0835638    0.0000347   -0.6418818  
H   -2.4360047   -0.0011529   -3.5845921  
H    4.3715549    0.0004895   -1.3667136  
C    0.8175213    0.6860729    2.3021913  
C    0.0000000    0.0000000    1.4700000  
C   -0.8887526   -0.7456559    2.3478473  
C   -0.4549825   -0.3816753    3.7138435  
N    0.5448156    0.4573574    3.6934124  
C   -1.0945674   -0.9182058    4.8835240  
C   -2.1210866   -1.7789155    4.6970523  
O   -2.8083856   -2.3554314    5.6976972  
C   -2.5824069   -2.1655116    3.3310774  
O   -3.5227682   -2.9541547    3.2362962  
C   -1.9100805   -1.6015804    2.1470656  
H   -0.7567140   -0.6349833    5.8697035  
H   -3.4728268   -2.9124471    5.2533954  
H   -2.2742832   -1.9066565    1.1752040  
H    1.6189533    1.3585343    2.0405121  
