60

C    0.6838762   -2.9103119   -9.4956394  
C    1.2800124   -2.4402970  -10.6428866  
C    0.9896558   -1.0459992  -10.7217931  
C    0.2065704   -0.7189644   -9.5852398  
N    0.0379082   -1.8741175   -8.8628886  
C   -0.2618283    0.5746544   -9.3363593  
C    0.0665255    1.5560728  -10.2513348  
O   -0.3645638    2.8364380  -10.0568094  
C    0.8465546    1.2493270  -11.3916331  
O    1.0882456    2.3347909  -12.2081467  
C    1.3087540   -0.0266950  -11.6379362  
H    1.8526699   -3.0300832  -11.3380186  
H   -0.4668595   -1.9494689   -7.9982999  
H   -0.0295923    3.3533625  -10.8010186  
H    1.6208295    2.0418112  -12.9538813  
H    1.9040682   -0.2315049  -12.5200544  
H    0.6671509   -3.9029968   -9.0794016  
C   -0.0202922   -0.6967075   -5.1400949  
C   -1.0641734    0.0073898   -4.6315339  
C   -1.6428383    0.7514419   -5.7253206  
C   -0.8448100    0.4207134   -6.9213806  
N    0.1229399   -0.4613334   -6.4990734  
C   -1.0739325    0.9222824   -8.1613952  
C   -2.1802186    1.8499243   -8.3291660  
O   -2.4675341    2.3561921   -9.4059403  
C   -3.0385139    2.2145169   -7.0760867  
O   -3.9723190    2.9946743   -7.2050177  
C   -2.6944048    1.6092960   -5.7918949  
H   -3.2937358    1.8667796   -4.9292082  
H    0.6565474   -1.3675747   -4.6363936  
H    0.8239109   -0.8724841   -7.0878369  
C    1.1319248    0.0015675   -0.8009270  
C    0.7969916    0.0034959   -2.1169404  
C   -0.6453336    0.0035703   -2.1842672  
C   -1.1266831    0.0015415   -0.7896027  
N    0.0000000    0.0000000    0.0000000  
C   -2.4346129    0.0013924   -0.4276297  
C   -3.4350110    0.0031352   -1.4820184  
O   -4.6384610    0.0030897   -1.2583919  
C   -2.9478958    0.0050460   -2.9661075  
O   -3.7809377    0.0062160   -3.8623775  
C   -1.5113821    0.0053068   -3.2312125  
H    1.4821240    0.0045436   -2.9459192  
H   -2.7664565    0.0000185    0.6013447  
H    2.1104318    0.0009428   -0.3488058  
C    2.3971438    2.0127888    3.1728260  
C    1.9431056    1.6308205    1.9564670  
C    0.8496017    0.7127664    2.2356185  
C    0.7794028    0.6545384    3.7115134  
N    1.6840587    1.4146091    4.2663826  
C   -0.1885723   -0.1578550    4.3957118  
C   -1.0476298   -0.8789867    3.6398520  
O   -2.0015663   -1.6796266    4.1448486  
C   -1.0022026   -0.8410666    2.1483229  
O   -1.8147390   -1.5232959    1.5241687  
C    0.0000000    0.0000000    1.4700000  
H    2.3054237    1.9346118    0.9892483  
H   -0.2170646   -0.1815267    5.4753125  
H   -2.4487139   -2.0549881    3.3649027  
H    3.2048689    2.6911772    3.3971983  
