62

C    4.2221269    0.2566318   -6.8430887  
C    5.4071988   -0.3991678   -7.0839160  
C    5.8490700    0.0017137   -8.3795415  
C    4.8850416    0.9110598   -8.8851753  
N    3.9097196    1.0419736   -7.9279800  
C    4.9975676    1.5104472  -10.1432936  
C    6.1035745    1.1861772  -10.9047255  
O    6.2631750    1.7429783  -12.1406517  
C    7.0760934    0.2807105  -10.4177412  
O    8.1183080    0.0599004  -11.2943119  
C    6.9655927   -0.3111849   -9.1767842  
H    5.8928228   -1.0832768   -6.4092625  
H    3.0999333    1.6309140   -8.0013075  
H    4.2662117    2.2041976  -10.5344856  
H    7.0879056    1.3869550  -12.4960836  
H    8.7298664   -0.5625116  -10.8890919  
H    7.7263585   -1.0010596   -8.8306823  
C    4.5980358   -1.9815536   -3.1233153  
C    3.4854373   -1.6054319   -2.4508307  
C    2.8041268   -0.6786474   -3.3415531  
C    3.6683869   -0.6094937   -4.5394080  
N    4.7214223   -1.3712004   -4.4173089  
C    3.3374999    0.2137354   -5.6698477  
C    2.1949504    0.9347929   -5.6066692  
O    1.7634385    1.7449079   -6.5882759  
C    1.3015813    0.8859887   -4.4118177  
O    0.2774365    1.5687933   -4.4230765  
C    1.6628945    0.0339172   -3.2649299  
H    3.1664184   -1.9183345   -1.4713437  
H    0.9280176    2.1174829   -6.2529962  
H    5.3694411   -2.6633295   -2.8022414  
C    1.1243410    0.0100105   -0.7919003  
C    0.7474072    0.0234665   -2.1148542  
C   -0.6787384    0.0234379   -2.1414698  
C   -1.1201748    0.0098411   -0.7935547  
N    0.0000000    0.0000000    0.0000000  
C   -2.4730818    0.0063307   -0.4408240  
C   -3.3971962    0.0170429   -1.4675058  
O   -4.7313520    0.0145490   -1.1793468  
C   -2.9763654    0.0303020   -2.8186325  
O   -4.0166484    0.0394464   -3.7247625  
C   -1.6418567    0.0334992   -3.1673480  
H   -2.8160166   -0.0041569    0.5845966  
H   -5.1938823    0.0230023   -2.0274386  
H   -3.6464680    0.0481700   -4.6127343  
H   -1.3497475    0.0435647   -4.2109234  
H    2.1062466    0.0053162   -0.3505405  
C    0.0000000    0.0000000    1.4700000  
C    1.0662921    0.0000102    2.3034270  
C    0.4961870   -0.0000064    3.6418889  
C   -0.9663858    0.0000850    3.4240247  
N   -1.2632773    0.0000084    2.1528658  
C   -1.8985362    0.0000517    4.5177257  
C   -1.3925775   -0.0004564    5.7720543  
O   -2.1456383   -0.0005410    6.8851312  
C    0.0786232   -0.0009323    6.0245000  
O    0.4683759   -0.0012588    7.1921102  
C    1.0143166   -0.0008442    4.8859032  
H    2.1107198   -0.0000632    2.0421868  
H   -2.9622183    0.0003270    4.3293377  
H   -1.5042274   -0.0009692    7.6184419  
H    2.0724152   -0.0013148    5.1109744  
