60

C    5.1839715   -4.5857959   -4.0066646  
C    6.3866392   -4.3713278   -4.6391690  
C    6.3973134   -3.0092723   -5.0625951  
C    5.1642065   -2.4376213   -4.6569015  
N    4.4505030   -3.4225310   -4.0203491  
C    4.8298539   -1.1036099   -4.9087170  
C    5.7573364   -0.3325501   -5.5820830  
O    5.4821867    0.9764668   -5.8537098  
C    6.9930220   -0.8849320   -5.9953308  
O    7.8093479    0.0105648   -6.6549067  
C    7.3234248   -2.2009609   -5.7474858  
H    7.1605389   -5.1064859   -4.7792243  
H    3.5393923   -3.3087646   -3.6142516  
H    6.2510092    1.3253422   -6.3232446  
H    8.6223387   -0.4420613   -6.8994045  
H    8.2774510   -2.5961333   -6.0763476  
H    4.7907402   -5.4768946   -3.5481124  
C    2.9127956   -0.7214779   -3.3153352  
C    3.5543791   -0.5031924   -4.4921093  
C    2.7457291    0.4250572   -5.2466114  
C    1.5720410    0.7318908   -4.4069096  
N    1.7334695    0.0049281   -3.2500363  
C    0.5691404    1.5730682   -4.7651218  
C    0.6510578    2.2191792   -6.0644931  
O   -0.2019695    2.9933388   -6.4784039  
C    1.8850606    1.9086321   -6.9703642  
O    1.9647734    2.4464582   -8.0665621  
C    2.9022242    0.9847028   -6.4747986  
H   -0.2829855    1.7845533   -4.1341978  
H    3.7535942    0.7751516   -7.1080294  
H    3.2021879   -1.3520593   -2.4904059  
C    1.1319246    0.0015678   -0.8009268  
C    0.7969914    0.0034958   -2.1169401  
C   -0.6453340    0.0035696   -2.1842669  
C   -1.1266832    0.0015410   -0.7896025  
N    0.0000000    0.0000000    0.0000000  
C   -2.4346129    0.0013913   -0.4276292  
C   -3.4350111    0.0031335   -1.4820181  
O   -4.6384614    0.0030875   -1.2583914  
C   -2.9478961    0.0050442   -2.9661074  
O   -3.7809382    0.0062135   -3.8623773  
C   -1.5113825    0.0053055   -3.2312122  
H   -2.7664565    0.0000174    0.6013448  
H   -1.1823533    0.0068381   -4.2614848  
H    2.1104316    0.0009435   -0.3488059  
C    0.8400945    0.7047457    2.2710304  
C    0.0000000    0.0000000    1.4700000  
C   -0.8844236   -0.7423113    2.3369512  
C   -0.4878984   -0.4098547    3.7186280  
N    0.5629682    0.4714286    3.6095011  
C   -1.0836927   -0.9095027    4.8308716  
C   -2.1891196   -1.8367527    4.6554461  
O   -2.7906899   -2.3413415    5.5944904  
C   -2.6257283   -2.2031529    3.2011665  
O   -3.5549479   -2.9829990    3.0410059  
C   -1.9068976   -1.5999348    2.0816745  
H   -0.7774656   -0.6525820    5.8354244  
H   -2.2155208   -1.8586617    1.0779135  
H    1.6384792    1.3747609    1.9961646  
H    1.0518368    0.8833920    4.3830260  
