60

C    0.0171479   -0.0595765   -8.8030473  
C    0.7672107   -0.7159459   -9.7512314  
C    0.2595188   -0.3269492  -11.0261939  
C   -0.8087236    0.5760695  -10.7909456  
N   -0.9304161    0.7147993   -9.4305924  
C   -1.5440813    1.1634456  -11.8248844  
C   -1.1944924    0.8334492  -13.1199010  
O   -1.8793216    1.3785237  -14.1672377  
C   -0.1319233   -0.0658581  -13.3748717  
O    0.0936464   -0.2936041  -14.7167339  
C    0.5937819   -0.6459054  -12.3553510  
H    1.5795491   -1.3928025   -9.5488336  
H   -1.5983837    1.3018255   -8.9645447  
H   -2.3594564    1.8523222  -11.6522148  
H   -1.4799749    1.0202858  -14.9706391  
H    0.8264658   -0.9111846  -14.8014322  
H    1.4022378   -1.3312991  -12.5814335  
C    2.6001987   -2.1411819   -5.8266045  
C    2.0730548   -1.7332819   -7.0044479  
C    0.9991590   -0.8222834   -6.6393046  
C    1.0189898   -0.7962635   -5.1609565  
N    1.9554493   -1.5673975   -4.6788913  
C    0.0950446    0.0004351   -4.4015596  
C   -0.8074266    0.7379268   -5.0878442  
O   -1.7282260    1.5268491   -4.5083866  
C   -0.8524305    0.7331199   -6.5798603  
O   -1.7006930    1.4286191   -7.1383869  
C    0.1059497   -0.0924309   -7.3360995  
H    2.3756471   -2.0156473   -7.9983212  
H   -2.2213256    1.9193584   -5.2513151  
H    3.4197067   -2.8236756   -5.6666595  
C    3.3321173    0.0004713   -1.3379338  
C    2.6974181    0.0000116   -2.5332314  
C    1.2800438   -0.0002119   -2.2052841  
C    1.2395034    0.0000643   -0.7271299  
N    2.4394062    0.0005460   -0.2131038  
C    0.0000000    0.0000000    0.0000000  
C   -1.1468702    0.0000634   -0.7169543  
O   -2.3742203    0.0000074   -0.1695487  
C   -1.1388770    0.0001607   -2.2096355  
O   -2.2206234    0.0000905   -2.7970411  
C    0.1454522    0.0001815   -2.9324241  
H    3.1367984   -0.0000653   -3.5160950  
H   -2.9844346    0.0001026   -0.9290167  
H    4.3940038    0.0007618   -1.1498640  
C    2.4951002    2.0940188    2.9809380  
C    1.9440701    1.6314916    1.8291961  
C    0.8759964    0.7350050    2.2038498  
C    0.8497377    0.7130254    3.6788474  
N    1.8560616    1.5571714    4.0882609  
C   -0.0205033   -0.0168748    4.4215661  
C   -0.9962600   -0.8356168    3.7214979  
O   -1.8224391   -1.5286685    4.3006425  
C   -0.9864710   -0.8277881    2.1595606  
O   -1.8030528   -1.5133726    1.5592035  
C    0.0000000    0.0000000    1.4700000  
H    2.2509283    1.8888011    0.8310761  
H   -0.0229599   -0.0187323    5.5027230  
H    3.3143982    2.7817323    3.1139444  
H    2.0889452    1.7545833    5.0442112  
