60

C    7.5282985   -3.6115186   -2.7222551  
C    8.6396600   -4.4170787   -2.8140007  
C    9.1081935   -4.3286012   -4.1583397  
C    8.2356679   -3.4467051   -4.8460055  
N    7.2866707   -3.0309821   -3.9453423  
C    8.3967137   -3.1243742   -6.1969156  
C    9.4580790   -3.7026133   -6.8657375  
O    9.6618910   -3.4220725   -8.1858764  
C   10.3392790   -4.5852923   -6.1970211  
O   11.3465320   -5.0792562   -7.0000072  
C   10.1808499   -4.9039423   -4.8643967  
H    9.0602062   -4.9979771   -2.0110737  
H    7.7350978   -2.4530598   -6.7268236  
H   10.4437420   -3.9222799   -8.4537718  
H   11.8962165   -5.6662762   -6.4719372  
H   10.8717245   -5.5834002   -4.3791053  
H    6.8880197   -3.4062469   -1.8815023  
C    6.1923725   -2.0934462   -4.2359241  
C    5.2191576   -1.6310076   -3.4094377  
C    4.3967566   -0.7348789   -4.1875411  
C    4.9747503   -0.7130124   -5.5448313  
N    6.0607559   -1.5568755   -5.5077373  
C    4.4832122    0.0165649   -6.5781802  
C    3.3064976    0.8350543   -6.3374472  
O    2.7884368    1.5278086   -7.2034755  
C    2.6779832    0.8273398   -4.9075117  
O    1.6873114    1.5127139   -4.6928198  
C    3.2973506   -0.0000934   -3.8752374  
H    5.0920136   -1.8881512   -2.3729409  
H    4.9222071    0.0183449   -7.5662034  
H    6.6635521   -1.7542833   -6.2853714  
C    3.3321174    0.0004714   -1.3379332  
C    2.6974186    0.0000115   -2.5332308  
C    1.2800441   -0.0002119   -2.2052838  
C    1.2395035    0.0000643   -0.7271293  
N    2.4394063    0.0005458   -0.2131034  
C    0.0000000    0.0000000    0.0000000  
C   -1.1468701    0.0000634   -0.7169542  
O   -2.3742201    0.0000072   -0.1695492  
C   -1.1388767    0.0001606   -2.2096354  
O   -2.2206229    0.0000903   -2.7970413  
C    0.1454526    0.0001815   -2.9324239  
H   -2.9844344    0.0001023   -0.9290168  
H    0.1083580    0.0003680   -4.0135594  
H    4.3940040    0.0007617   -1.1498630  
C    0.8175213    0.6860729    2.3021913  
C    0.0000000    0.0000000    1.4700000  
C   -0.8887526   -0.7456559    2.3478473  
C   -0.4549825   -0.3816753    3.7138435  
N    0.5448156    0.4573574    3.6934124  
C   -1.0945674   -0.9182058    4.8835240  
C   -2.1210866   -1.7789155    4.6970523  
O   -2.8083856   -2.3554314    5.6976972  
C   -2.5824069   -2.1655116    3.3310774  
O   -3.5227682   -2.9541547    3.2362962  
C   -1.9100805   -1.6015804    2.1470656  
H   -0.7567140   -0.6349833    5.8697035  
H   -3.4728268   -2.9124471    5.2533954  
H   -2.2742832   -1.9066565    1.1752040  
H    1.6189533    1.3585343    2.0405121  
