64

C    5.1222191    0.0023842   -7.2023174  
C    3.8998343    0.0046763   -7.8333781  
C    4.1557030    0.0061277   -9.2366350  
C    5.5643524    0.0043231   -9.4028555  
N    6.1208383    0.0040207   -8.1478892  
C    6.1776143    0.0047679  -10.6593179  
C    5.3538461    0.0067695  -11.7681823  
O    5.9000963    0.0069373  -13.0190320  
C    3.9461267    0.0089651  -11.6227931  
O    3.2635076    0.0112169  -12.8216980  
C    3.3404408    0.0088010  -10.3835715  
H    2.9416069    0.0063387   -7.3426741  
H    7.1049380   -0.0077067   -7.9494190  
H    7.2506471    0.0035443  -10.7927432  
H    5.1601494    0.0087517  -13.6401117  
H    2.3198352    0.0125777  -12.6343888  
H    2.2596668    0.0106983  -10.3035569  
C    2.5562217   -0.0001551   -3.6003001  
C    3.5655128   -0.0016945   -2.6655293  
C    4.7980128   -0.0018083   -3.3835432  
C    4.4750732   -0.0000008   -4.7647140  
N    3.1056443   -0.0009835   -4.8610468  
C    5.4479449    0.0007089   -5.7688602  
C    6.7709220   -0.0001197   -5.3714837  
O    7.7613129    0.0008688   -6.3107055  
C    7.1131351   -0.0022982   -3.9982745  
O    8.4727603   -0.0033053   -3.7642599  
C    6.1538986   -0.0032725   -3.0071182  
H    3.4300843   -0.0037267   -1.5975180  
H    2.5841971    0.0104395   -5.7189186  
H    8.5970854   -0.0002570   -5.8261985  
H    8.6176763   -0.0047417   -2.8131545  
H    6.4463530   -0.0051257   -1.9635924  
C    0.0000000    0.0000000    0.0000000  
C    1.0541688   -0.0001722   -0.8560390  
C    0.5103141   -0.0000453   -2.1935955  
C   -0.9576367    0.0002460   -2.0455731  
N   -1.2018459   -0.0001392   -0.6915969  
C   -1.8348307    0.0008318   -3.0810611  
C   -1.2972843    0.0009738   -4.4314606  
O   -2.0050665    0.0014267   -5.4301321  
C    0.2542628    0.0004186   -4.6117570  
O    0.7184676    0.0002258   -5.7439117  
C    1.0974555    0.0000874   -3.4189127  
H    2.0940752   -0.0005483   -0.5817978  
H   -2.9081051    0.0011670   -2.9507061  
H   -2.1128194    0.0014912   -0.2706792  
C    1.1188642   -0.0008217    2.2703808  
C    0.0000000    0.0000000    1.4700000  
C   -1.1323862   -0.0008904    2.3373528  
C   -0.6382662   -0.0019682    3.6669281  
N    0.7324016   -0.0038477    3.5902241  
C   -1.4770914   -0.0027325    4.7854808  
C   -2.8395474   -0.0020958    4.5576857  
O   -3.7039201   -0.0024443    5.6140350  
C   -3.3517868   -0.0013946    3.2384331  
O   -4.7300496   -0.0012389    3.1773122  
C   -2.5248543   -0.0009135    2.1344818  
H    1.3576314    0.0056174    4.3757045  
H   -1.1067570   -0.0036993    5.8013813  
H   -4.5940033   -0.0021850    5.2385129  
H   -4.9934601   -0.0007286    2.2519915  
H   -2.9462578   -0.0005617    1.1360343  
H    2.1619896   -0.0009344    2.0042067  
