60

C   -7.7131166   -0.1915625   -2.2488361  
C   -8.4846680    0.4655573   -1.3185842  
C   -9.8373347    0.0764956   -1.5499395  
C   -9.8292963   -0.8273340   -2.6430790  
N   -8.5239455   -0.9664645   -3.0447210  
C  -10.9935288   -1.4149921   -3.1470726  
C  -12.1875945   -1.0844487   -2.5362299  
O  -13.3544300   -1.6297664   -2.9880450  
C  -12.2161043   -0.1843299   -1.4445384  
O  -13.4817736    0.0438861   -0.9451958  
C  -11.0679808    0.3959958   -0.9469848  
H   -8.1178157    1.1429424   -0.5665458  
H   -8.2069365   -1.5540715   -3.7945240  
H  -10.9941369   -2.1044862   -3.9800191  
H  -14.0572692   -1.2710597   -2.4307195  
H  -13.4122784    0.6620052   -0.2112321  
H  -11.1210589    1.0820143   -0.1097037  
C   -4.6051151    2.0113808   -0.1334485  
C   -3.4864976    1.6298264   -0.7927590  
C   -3.9518793    0.7119508   -1.8210704  
C   -5.4173875    0.6533627   -1.6328199  
N   -5.8061459    1.4130853   -0.6450560  
C   -6.2597398   -0.1589840   -2.4668594  
C   -5.6651263   -0.8797267   -3.4447650  
O   -6.3285769   -1.6802773   -4.2962297  
C   -4.1885397   -0.8414367   -3.6601392  
O   -3.7155084   -1.5233211   -4.5692574  
C   -3.3460097   -0.0004262   -2.7913647  
H   -2.4709785    1.9337813   -0.6045899  
H   -5.6384844   -2.0553379   -4.8726450  
H   -4.6853289    2.6895273    0.7012107  
C    0.0000000    0.0000000    0.0000000  
C    1.0662919   -0.0000103   -0.8334272  
C    0.4961868    0.0000066   -2.1718889  
C   -0.9663860   -0.0000849   -1.9540248  
N   -1.2632775   -0.0000084   -0.6828659  
C   -1.8985364   -0.0000515   -3.0477258  
C   -1.3925778    0.0004567   -4.3020543  
O   -2.1456385    0.0005412   -5.4151314  
C    0.0786229    0.0009326   -4.5544999  
O    0.4683756    0.0012594   -5.7221104  
C    1.0143162    0.0008443   -3.4159034  
H    2.1107195    0.0000631   -0.5721869  
H   -1.5042277    0.0009692   -6.1484420  
H    2.0724151    0.0013151   -3.6409746  
C    0.0000000    0.0000000    1.4700000  
C    1.0662921    0.0000102    2.3034270  
C    0.4961870   -0.0000064    3.6418889  
C   -0.9663858    0.0000850    3.4240247  
N   -1.2632773    0.0000084    2.1528658  
C   -1.8985362    0.0000517    4.5177257  
C   -1.3925775   -0.0004564    5.7720543  
O   -2.1456383   -0.0005410    6.8851312  
C    0.0786232   -0.0009323    6.0245000  
O    0.4683759   -0.0012588    7.1921102  
C    1.0143166   -0.0008442    4.8859032  
H    2.1107198   -0.0000632    2.0421868  
H   -2.9622183    0.0003270    4.3293377  
H   -1.5042274   -0.0009692    7.6184419  
H    2.0724152   -0.0013148    5.1109744  
