66

C    5.6781998   -2.1507676   -4.8062447  
C    4.8322905   -1.6772295   -3.8301983  
C    3.9133766   -0.7927567   -4.4688723  
C    4.2502405   -0.7663051   -5.8464606  
N    5.3273091   -1.6003055   -6.0167060  
C    3.5514907    0.0035824   -6.7812392  
C    2.4932129    0.7603219   -6.3169421  
O    1.7765738    1.5301403   -7.1868969  
C    2.1420060    0.7474442   -4.9460650  
O    1.0653090    1.5541059   -4.6405098  
C    2.8310662   -0.0116220   -4.0232752  
H    4.8732706   -1.9364494   -2.7861105  
H    3.8033243    0.0282020   -7.8325120  
H    1.0939352    1.9700463   -6.6636835  
H    0.8940125    1.4879154   -3.6961153  
H    6.5049775   -2.8365149   -4.7344948  
C    6.4678646   -3.1082247   -7.6917434  
C    7.0408427   -2.9947802   -8.9372532  
C    6.9138099   -1.6297741   -9.3312336  
C    6.2496457   -0.9523125   -8.2767871  
N    5.9915468   -1.8796400   -7.2979793  
C    5.9552533    0.4137142   -8.3225308  
C    6.3385800    1.1085675   -9.4532025  
O    6.0760947    2.4445160   -9.5499307  
C    7.0018874    0.4502225  -10.5159465  
O    7.3180255    1.2792669  -11.5723959  
C    7.2923939   -0.8974297  -10.4716160  
H    7.4935811   -3.7973821   -9.4938958  
H    5.4491724    0.9358957   -7.5222748  
H    6.4217196    2.7294136  -10.4058760  
H    7.7630903    0.7566729  -12.2464992  
H    7.8013492   -1.3743189  -11.3010854  
H    6.3599934   -3.9686035   -7.0537216  
C    3.3041270    0.0001177   -1.5420434  
C    2.5845372   -0.0004781   -0.3695856  
C    1.2040006   -0.0000008   -0.7283592  
C    1.1422371    0.0006037   -2.1454375  
N    2.4348636    0.0026109   -2.6077467  
C   -0.0655183    0.0008798   -2.8497920  
C   -1.2321770    0.0002326   -2.1101400  
O   -2.4392818    0.0001147   -2.7472520  
C   -1.1911210   -0.0000007   -0.6955263  
O   -2.4371527   -0.0002320   -0.1032859  
C    0.0000000    0.0000000    0.0000000  
H    3.0031533   -0.0000660    0.6222577  
H   -0.1193553    0.0014844   -3.9297472  
H   -3.1132989   -0.0000648   -2.0551784  
H   -2.3200282   -0.0004069    0.8516410  
H    4.3686624    0.0004070   -1.7024294  
C    0.8676693    0.7151171    2.2619005  
C    0.5875920    0.4624972    3.5848544  
C   -0.5048400   -0.4542819    3.6114698  
C   -0.8517165   -0.7276451    2.2635546  
N    0.0000000    0.0000000    1.4700000  
C   -1.8902865   -1.5946756    1.9108239  
C   -2.5912627   -2.1969500    2.9375057  
O   -3.6148162   -3.0527051    2.6493466  
C   -2.2603868   -1.9365747    4.2886322  
O   -3.0513550   -2.6123276    5.1947621  
C   -1.2361111   -1.0811317    4.6373480  
H    1.1060808    0.8876438    4.4271209  
H   -2.1597133   -1.8070987    0.8854031  
H   -3.9636755   -3.3565188    3.4974381  
H   -2.7621927   -2.3810384    6.0827341  
H   -1.0058879   -0.9010589    5.6809233  
H    1.6167816    1.3499334    1.8205408  
