62

C    2.7367445   -3.0667362   -8.1660432  
C    2.2512038   -1.8345385   -7.7940135  
C    2.6181686   -0.9150584   -8.8208982  
C    3.3318495   -1.6499250   -9.8019983  
N    3.3873371   -2.9525742   -9.3722959  
C    3.8469622   -1.0618620  -10.9611491  
C    3.6375449    0.2926613  -11.1331629  
O    4.1187895    0.9173710  -12.2472324  
C    2.9282299    1.0430055  -10.1653440  
O    2.8032966    2.3802349  -10.4808626  
C    2.4200117    0.4635785   -9.0214452  
H    3.8229351   -3.7091717   -9.8680733  
H    4.3919038   -1.6163955  -11.7126366  
H    3.8663028    1.8466235  -12.1697501  
H    2.3122779    2.8143318   -9.7765437  
H    1.8810455    1.0639250   -8.2978578  
H    2.6716895   -4.0177252   -7.6656970  
C    1.7720687   -2.0859334   -5.3149826  
C    0.8968265   -1.6247192   -4.3847637  
C   -0.0065337   -0.7270828   -5.0652227  
C    0.4171838   -0.7029980   -6.4782598  
N    1.5002591   -1.5471467   -6.5634087  
C   -0.1857669    0.0284587   -7.4494066  
C   -1.3281510    0.8467741   -7.0781197  
O   -1.9388960    1.5411248   -7.8800975  
C   -1.7940048    0.8367264   -5.5872531  
O   -2.7544406    1.5219332   -5.2627294  
C   -1.0641734    0.0073898   -4.6315339  
H    0.8854567   -1.8836208   -3.3409941  
H    0.1408064    0.0318495   -8.4800607  
H    2.5929127   -2.7739333   -5.1934849  
C    1.1319248    0.0015675   -0.8009270  
C    0.7969916    0.0034959   -2.1169404  
C   -0.6453336    0.0035703   -2.1842672  
C   -1.1266831    0.0015415   -0.7896027  
N    0.0000000    0.0000000    0.0000000  
C   -2.4346129    0.0013924   -0.4276297  
C   -3.4350110    0.0031352   -1.4820184  
O   -4.6384610    0.0030897   -1.2583919  
C   -2.9478958    0.0050460   -2.9661075  
O   -3.7809377    0.0062160   -3.8623775  
C   -1.5113821    0.0053068   -3.2312125  
H    1.4821240    0.0045436   -2.9459192  
H   -2.7664565    0.0000185    0.6013447  
H    2.1104318    0.0009428   -0.3488058  
C    2.5285572    2.1210227    2.9438989  
C    1.9331703    1.6216660    4.0790748  
C    0.8903039    0.7472258    3.6520102  
C    0.8972198    0.7527806    2.2336141  
N    1.9028376    1.5986179    1.8362361  
C    0.0000000    0.0000000    1.4700000  
C   -0.9207814   -0.7726952    2.1506477  
O   -1.8198395   -1.5274828    1.4542253  
C   -0.9436862   -0.7911793    3.5655508  
O   -1.9197945   -1.6098497    4.0950179  
C   -0.0590329   -0.0485852    4.3195194  
H    2.2150357    1.8593692    5.0905303  
H    2.1533708    1.7953814    0.8841339  
H   -2.3621246   -1.9821033    2.1118817  
H   -1.8668290   -1.5649508    5.0545920  
H   -0.1007624   -0.0827977    5.4019087  
H    3.3491200    2.8096064    2.8367138  
