62

C    8.1972636   -0.7256307    0.7001437  
C    8.7198847   -0.0069937   -0.3500450  
C    9.8373220    0.7196192    0.1578585  
C    9.9491485    0.4016176    1.5356451  
N    8.9368218   -0.4768023    1.8326132  
C   10.9441502    0.9393672    2.3575857  
C   11.8428153    1.8138367    1.7780330  
O   12.8345492    2.3677438    2.5347790  
C   11.7474024    2.1437467    0.4051266  
O   12.7157080    3.0285309   -0.0225242  
C   10.7659023    1.6138319   -0.4062758  
H    8.7696097   -0.8864001    2.7338628  
H   11.0346867    0.7011286    3.4084176  
H   13.3418709    2.9394227    1.9439550  
H   12.5799526    3.1983656   -0.9597168  
H   10.7178016    1.8853061   -1.4543534  
H    7.3546073   -1.3948973    0.7313047  
C    4.5679461   -0.0016854   -2.0086701  
C    5.6536972   -0.0028960   -1.1639156  
C    6.8200674   -0.0036843   -1.9850010  
C    6.3798482   -0.0026079   -3.3333824  
N    5.0072029   -0.0033585   -3.3118965  
C    7.2630029   -0.0026836   -4.4172763  
C    8.6151888   -0.0035606   -4.1348421  
O    9.5213681   -0.0033235   -5.1555539  
C    9.0739284   -0.0050162   -2.7960464  
O   10.4486143   -0.0061739   -2.6795157  
C    8.2032438   -0.0052157   -1.7262640  
H    5.6103771   -0.0042819   -0.0882231  
H    4.4140952    0.0076777   -4.1218860  
H    6.9338474   -0.0020111   -5.4472560  
H   10.3956198   -0.0043445   -4.7445210  
H   10.6745774   -0.0070905   -1.7443453  
C    3.1301149   -0.0010311   -1.7028252  
C    2.5367768   -0.0002767   -0.4864665  
C    1.1089904    0.0001028   -0.7656183  
C    1.0177872   -0.0004148   -2.2415132  
N    2.1993578   -0.0011611   -2.7963820  
C   -0.2459209   -0.0002877   -2.9257118  
C   -1.3675319   -0.0000605   -2.1698524  
O   -2.6129313    0.0000867   -2.6748490  
C   -1.3083584    0.0000910   -0.6783232  
O   -2.3693261    0.0004206   -0.0541692  
C    0.0000000    0.0000000    0.0000000  
H    3.0096017   -0.0001007    0.4807525  
H   -0.2829630   -0.0004687   -4.0053125  
H   -3.1967441    0.0002094   -1.8949034  
C    0.8400945    0.7047457    2.2710304  
C    0.0000000    0.0000000    1.4700000  
C   -0.8844236   -0.7423113    2.3369512  
C   -0.4878984   -0.4098547    3.7186280  
N    0.5629682    0.4714286    3.6095011  
C   -1.0836927   -0.9095027    4.8308716  
C   -2.1891196   -1.8367527    4.6554461  
O   -2.7906899   -2.3413415    5.5944904  
C   -2.6257283   -2.2031529    3.2011665  
O   -3.5549479   -2.9829990    3.0410059  
C   -1.9068976   -1.5999348    2.0816745  
H   -0.7774656   -0.6525820    5.8354244  
H   -2.2155208   -1.8586617    1.0779135  
H    1.6384792    1.3747609    1.9961646  
H    1.0518368    0.8833920    4.3830260  
