62

C    0.7413082    0.0196744   -8.8437866  
C    1.8165734   -0.6557752   -9.3729749  
C    1.8991615   -0.2933744  -10.7500900  
C    0.8392528    0.6138314  -11.0060153  
N    0.1546660    0.7805277   -9.8278102  
C    0.6152477    1.1794387  -12.2648636  
C    1.4770938    0.8229642  -13.2838467  
O    1.3041876    1.3460249  -14.5326557  
C    2.5402366   -0.0809401  -13.0482587  
O    3.3103801   -0.3362066  -14.1640806  
C    2.7616557   -0.6395218  -11.8066923  
H    2.4613556   -1.3279559   -8.8331393  
H   -0.6428308    1.3767439   -9.6993340  
H   -0.1908535    1.8713693  -12.4664460  
H    2.0029116    0.9714738  -15.0847086  
H    4.0050584   -0.9550787  -13.9190842  
H    3.5841123   -1.3290743  -11.6564898  
C    2.0060354   -2.0933382   -5.2079950  
C    1.0681400   -1.6309435   -4.3416125  
C    0.2140993   -0.7346500   -5.0846522  
C    0.7350365   -0.7126395   -6.4648448  
N    1.8215801   -1.5565850   -6.4731480  
C    0.2009229    0.0171138   -7.4767177  
C   -0.9646761    0.8356538   -7.1870525  
O   -1.5183198    1.5285630   -8.0306496  
C   -1.5330620    0.8277891   -5.7321707  
O   -2.5138752    1.5132041   -5.4762939  
C   -0.8712826    0.0001710   -4.7267111  
H    0.9842757   -1.8882192   -3.3007524  
H    2.8165826   -2.7808930   -5.0286319  
H    2.3914343   -1.7539294   -7.2752499  
C    1.0965514    0.0001359   -0.8010305  
C    0.0000000    0.0000000    0.0000000  
C   -1.1546563    0.0001470   -0.8669513  
C   -0.6372014    0.0003519   -2.2486282  
N    0.7342871    0.0007337   -2.1395014  
C   -1.4147739    0.0001352   -3.3608717  
C   -2.8576049   -0.0001048   -3.1854462  
O   -3.6427779   -0.0002494   -4.1244907  
C   -3.4275840   -0.0000725   -1.7311666  
O   -4.6406831    0.0000333   -1.5710060  
C   -2.4891867   -0.0001091   -0.6116744  
H   -2.8919122   -0.0002918    0.3920866  
H    2.1388272    0.0000663   -0.5261648  
H    1.3735872   -0.0006099   -2.9130262  
C    2.5311839    2.1237619    3.0120429  
C    1.9795631    1.6616747    1.8395852  
C    0.9223175    0.7739173    2.1983588  
C    0.8753926    0.7337535    3.6154372  
N    1.8668922    1.5631002    4.0777464  
C   -0.0496243   -0.0427881    4.3197917  
C   -0.9437528   -0.7922060    3.5801400  
O   -1.8685244   -1.5680278    4.2172520  
C   -0.9124520   -0.7656372    2.1655264  
O   -1.8671164   -1.5663939    1.5732860  
C    0.0000000    0.0000000    1.4700000  
H    2.3005065    1.9304404    0.8477417  
H    2.0679347    1.7444845    5.0445261  
H   -0.0904770   -0.0778569    5.3997470  
H   -2.3849669   -2.0011402    3.5251786  
H   -1.7775064   -1.4909735    0.6183591  
H    3.3468514    2.8078103    3.1724291  
