60

C   -3.9057186    0.7168038   -7.8787139  
C   -2.9481726   -0.0008210   -8.5573799  
C   -3.6220979   -0.7291859   -9.5820307  
C   -5.0010489   -0.4132468   -9.4790553  
N   -5.1387916    0.4656834   -8.4335290  
C   -5.9665165   -0.9530823  -10.3341805  
C   -5.5319867   -1.8275551  -11.3112462  
O   -6.4325167   -2.3834525  -12.1732431  
C   -4.1603836   -2.1554250  -11.4296716  
O   -3.8867032   -3.0404927  -12.4519705  
C   -3.2074084   -1.6234514  -10.5862450  
H   -6.0038396    0.8741535   -8.1288560  
H   -7.0190428   -0.7164217  -10.2608226  
H   -5.9266322   -2.9547585  -12.7656565  
H   -2.9395337   -3.2088696  -12.4630813  
H   -2.1641326   -1.8933910  -10.7010748  
H   -3.8068606    1.3868024   -7.0418820  
C   -0.8712823    0.0001712   -4.7267111  
C    0.4275912    0.0003833   -5.1068522  
C    0.3927410    0.0003247   -6.5612539  
C   -1.0467465   -0.0000492   -6.8995726  
N   -1.7925763   -0.0000599   -5.8282525  
C   -1.5084818   -0.0001658   -8.2604131  
C   -0.5746209    0.0004688   -9.2387989  
O   -0.8627925    0.0004378  -10.5514293  
C    0.8856683    0.0012296   -8.9294213  
O    1.6794953    0.0016587   -9.8701972  
C    1.3340964    0.0012909   -7.5255565  
H    1.3014267    0.0006482   -4.4779747  
H    0.0042906    0.0010052  -10.9956357  
H    2.4004347    0.0019677   -7.3434774  
C    1.0965515    0.0001358   -0.8010304  
C    0.0000000    0.0000000    0.0000000  
C   -1.1546562    0.0001470   -0.8669514  
C   -0.6372012    0.0003520   -2.2486282  
N    0.7342873    0.0007338   -2.1395014  
C   -1.4147737    0.0001354   -3.3608717  
C   -2.8576047   -0.0001047   -3.1854463  
O   -3.6427778   -0.0002491   -4.1244908  
C   -3.4275837   -0.0000725   -1.7311667  
O   -4.6406828    0.0000333   -1.5710061  
C   -2.4891866   -0.0001090   -0.6116745  
H   -2.8919121   -0.0002919    0.3920865  
H    2.1388272    0.0000662   -0.5261647  
H    1.3735873   -0.0006098   -2.9130261  
C    0.0000000    0.0000000    1.4700000  
C    1.0541688    0.0001722    2.3260392  
C    0.5103138    0.0000454    3.6635956  
C   -0.9576371   -0.0002459    3.5155732  
N   -1.2018458    0.0001392    2.1615969  
C   -1.8348311   -0.0008317    4.5510609  
C   -1.2972847   -0.0009736    5.9014604  
O   -2.0050672   -0.0014265    6.9001319  
C    0.2542623   -0.0004184    6.0817573  
O    0.7184670   -0.0002256    7.2139121  
C    1.0974552   -0.0000873    4.8889129  
H    2.0940752    0.0005483    2.0517982  
H   -2.9081052   -0.0011668    4.4207061  
H    2.1707277    0.0000911    5.0223670  
H   -2.1128194   -0.0014912    1.7406791  
