60

C    2.6489811   -4.3491344    1.5313558  
C    2.8918400   -3.5154628    0.4643605  
C    4.2957632   -3.5559735    0.2154462  
C    4.8624038   -4.4389261    1.1700350  
N    3.8352216   -4.9014017    1.9546574  
C    6.2310012   -4.7201837    1.2212415  
C    7.0423193   -4.0990210    0.2916725  
O    8.3860858   -4.3383554    0.2965327  
C    6.4957375   -3.2145624   -0.6684302  
O    7.4334107   -2.6752089   -1.5247072  
C    5.1457116   -2.9364199   -0.7193614  
H    2.1486969   -2.9470978   -0.0682667  
H    3.9316487   -5.5534209    2.7119900  
H    6.6691061   -5.3920652    1.9463905  
H    8.7596427   -3.8127469   -0.4228112  
H    6.9818760   -2.0901469   -2.1406800  
H    1.7236416   -4.5923961    2.0248427  
C    4.6171595   -2.0114327   -1.7322441  
C    3.3328188   -1.6298292   -1.9231035  
C    3.3780282   -0.7112573   -3.0503486  
C    4.8069993   -0.6523619   -3.4260564  
N    5.5382126   -1.4125189   -2.6569807  
C    5.2745461    0.1606798   -4.5148398  
C    4.3562413    0.8817939   -5.1975148  
O    4.6514324    1.6829996   -6.2352881  
C    2.9068167    0.8432087   -4.8427746  
O    2.1270277    1.5254609   -5.5073661  
C    2.4521483    0.0014840   -3.7217481  
H    2.4622557   -1.9341723   -1.3676120  
H    6.3245851    0.1848315   -4.7673174  
H    3.7953904    2.0581840   -6.5102100  
C    0.0000000    0.0000000    0.0000000  
C    1.0662923   -0.0000101   -0.8334270  
C    0.4961873    0.0000065   -2.1718887  
C   -0.9663854   -0.0000848   -1.9540250  
N   -1.2632773   -0.0000083   -0.6828660  
C   -1.8985359   -0.0000514   -3.0477261  
C   -1.3925770    0.0004566   -4.3020547  
O   -2.1456378    0.0005414   -5.4151314  
C    0.0786240    0.0009326   -4.5545000  
O    0.4683767    0.0012591   -5.7221100  
C    1.0143171    0.0008444   -3.4159031  
H    2.1107200    0.0000633   -0.5721865  
H   -2.9622181   -0.0003268   -2.8593381  
H   -1.5042265    0.0009697   -6.1484419  
C    3.3321173   -0.0004715    2.8079335  
C    2.6974184   -0.0000116    4.0032312  
C    1.2800439    0.0002118    3.6752840  
C    1.2395035   -0.0000644    2.1971295  
N    2.4394063   -0.0005460    1.6831036  
C    0.0000000    0.0000000    1.4700000  
C   -1.1468701   -0.0000635    2.1869543  
O   -2.3742202   -0.0000073    1.6395491  
C   -1.1388768   -0.0001607    3.6796354  
O   -2.2206231   -0.0000905    4.2670412  
C    0.1454524   -0.0001816    4.4024240  
H    3.1367986    0.0000651    4.9860947  
H   -2.9844344   -0.0001026    2.3990168  
H    0.1083576   -0.0003682    5.4835595  
H    4.3940039   -0.0007619    2.6198634  
