64

C    0.3964723    0.1029020   -8.7926645  
C    1.4414165   -0.5445327   -9.4102305  
C    1.4300437   -0.1422557  -10.7786768  
C    0.3467080    0.7592832  -10.9384831  
N   -0.2608680    0.8843975   -9.7138148  
C    0.0351458    1.3576995  -12.1630719  
C    0.8319007    1.0404692  -13.2459964  
O    0.5724042    1.5966770  -14.4651387  
C    1.9170979    0.1428458  -13.1065887  
O    2.6150071   -0.0715579  -14.2771871  
C    2.2248791   -0.4480884  -11.8988670  
H    2.1268010   -1.2241088   -8.9333476  
H   -1.0541105    1.4672816   -9.5163480  
H   -0.7892466    2.0455162  -12.2914768  
H    1.2371532    1.2462068  -15.0722172  
H    3.3303400   -0.6888965  -14.0960914  
H    3.0622024   -1.1318775  -11.8227079  
C    1.9074112   -2.1157062   -5.2171226  
C    1.7366763   -1.6153229   -6.4871355  
C    0.6103638   -0.7412449   -6.4423320  
C    0.1310751   -0.7480684   -5.1073552  
N    0.9400196   -1.5942801   -4.3903116  
C   -0.9736297    0.0040464   -4.6965763  
C   -1.6058300    0.7773677   -5.6507641  
O   -2.6892501    1.5315498   -5.3037409  
C   -1.1427633    0.7971178   -6.9879239  
O   -1.8787358    1.6162802   -7.8189843  
C   -0.0531715    0.0551811   -7.3939361  
H    2.3479778   -1.8521270   -7.3410843  
H    0.8493711   -1.7919000   -3.4101531  
H   -2.9736279    1.9867686   -6.1069653  
H   -1.5003158    1.5722389   -8.7024217  
H    2.6418354   -2.8044010   -4.8359680  
C    1.1188642    0.0008222   -0.8003808  
C    0.0000000    0.0000000    0.0000000  
C   -1.1323862    0.0008899   -0.8673528  
C   -0.6382663    0.0019679   -2.1969280  
N    0.7324016    0.0038481   -2.1202242  
C   -1.4770914    0.0027318   -3.3154808  
C   -2.8395473    0.0020945   -3.0876857  
O   -3.7039201    0.0024425   -4.1440349  
C   -3.3517868    0.0013931   -1.7684331  
O   -4.7300497    0.0012366   -1.7073121  
C   -2.5248543    0.0009123   -0.6644817  
H    1.3576314   -0.0056167   -2.9057046  
H   -4.5940032    0.0021826   -3.7685128  
H   -4.9934602    0.0007259   -0.7819913  
H   -2.9462577    0.0005603    0.3339659  
H    2.1619895    0.0009355   -0.5342068  
C    2.5128556    2.1077716    2.9199648  
C    1.9592212    1.6432552    4.0696553  
C    0.8915788    0.7479214    3.6910360  
C    0.8684491    0.7287414    2.2159470  
N    1.8754542    1.5738793    1.8102719  
C    0.0000000    0.0000000    1.4700000  
C   -0.9772830   -0.8200135    2.1664417  
O   -1.8021297   -1.5120829    1.5842315  
C   -0.9711318   -0.8147624    3.7284083  
O   -1.7894187   -1.5009653    4.3257297  
C    0.0140216    0.0115358    4.4216297  
H    2.2638494    1.8988021    5.0689105  
H    0.0117648    0.0094386    5.5031631  
H    3.3327358    2.7953732    2.7900019  
H    2.1123206    1.7707734    0.8551938  
