62

C   -7.6536875   -0.1835009   -2.7794923  
C   -8.4924928    0.4748519   -1.9103295  
C   -9.8242891    0.0872532   -2.2430266  
C   -9.7348099   -0.8169956   -3.3321795  
N   -8.4030275   -0.9577724   -3.6340931  
C  -10.8583608   -1.4035088   -3.9224547  
C  -12.0947443   -1.0713682   -3.4035916  
O  -13.2247801   -1.6155184   -3.9420459  
C  -12.2045314   -0.1708072   -2.3174268  
O  -13.5040168    0.0590462   -1.9151216  
C  -11.0965660    0.4083896   -1.7347873  
H   -8.1826663    1.1520987   -1.1329382  
H   -8.0310082   -1.5460239   -4.3576558  
H  -10.7968947   -2.0933146   -4.7528716  
H  -13.9672662   -1.2557974   -3.4394721  
H  -13.4894036    0.6773610   -1.1781841  
H  -11.2118963    1.0947829   -0.9041000  
C   -4.7116697    2.0166748   -0.4361496  
C   -3.5469198    1.6335914   -1.0090232  
C   -3.9344200    0.7158633   -2.0692679  
C   -5.4100251    0.6590250   -1.9921705  
N   -5.8713514    1.4195634   -1.0367918  
C   -6.1879621   -0.1526695   -2.8871859  
C   -5.5220669   -0.8744603   -3.8172054  
O   -6.1202835   -1.6745700   -4.7160943  
C   -4.0333911   -0.8379428   -3.9205070  
O   -3.4938783   -1.5207102   -4.7911249  
C   -3.2578655    0.0024282   -2.9908505  
H   -2.5481483    1.9364534   -0.7448161  
H   -5.3890858   -2.0506375   -5.2386609  
H   -4.8538696    2.6952262    0.3898771  
C    0.0000000    0.0000000    0.0000000  
C    1.0521666   -0.0011982   -0.8862343  
C    0.4917215   -0.0011996   -2.1979132  
C   -0.9187429    0.0003215   -2.0478682  
N   -1.1833171   -0.0009323   -0.7007913  
C   -1.7951703    0.0010483   -3.1372089  
C   -1.2375841    0.0005313   -4.4010422  
O   -2.0474218    0.0015510   -5.4997578  
C    0.1673576   -0.0013585   -4.5711963  
O    0.5673520   -0.0020735   -5.8915554  
C    1.0325768   -0.0023493   -3.4969892  
H    2.0953056   -0.0030808   -0.6200564  
H   -2.0989778    0.0102529   -0.2891822  
H   -1.4634888    0.0006601   -6.2693595  
H    1.5290707   -0.0033271   -5.9180047  
H    2.1042146   -0.0039770   -3.6584456  
C    1.1319247   -0.0015655    2.2709268  
C    0.7969915   -0.0034943    3.5869401  
C   -0.6453339   -0.0035710    3.6542670  
C   -1.1266833   -0.0015433    2.2596025  
N    0.0000000    0.0000000    1.4700000  
C   -2.4346130   -0.0013964    1.8976294  
C   -3.4350110   -0.0031408    2.9520183  
O   -4.6384611   -0.0030974    2.7283916  
C   -2.9478959   -0.0050506    4.4361073  
O   -3.7809380   -0.0062218    5.3323774  
C   -1.5113823   -0.0053090    4.7012123  
H    1.4821238   -0.0045407    4.4159191  
H   -2.7664565   -0.0000232    0.8686553  
H   -1.1823530   -0.0068408    5.7314848  
H    2.1104316   -0.0009391    1.8188057  
