62

C   -5.1200806    2.1264133   -6.2373677  
C   -3.8694640    1.6654229   -6.5778289  
C   -4.0389624    0.7787479   -7.6822192  
C   -5.4264151    0.7380837   -7.9741904  
N   -6.0541284    1.5661028   -7.0769844  
C   -5.9592535   -0.0376638   -9.0081575  
C   -5.0753291   -0.7857581   -9.7612924  
O   -5.5419864   -1.5607599  -10.7833581  
C   -3.6875867   -0.7586720   -9.4851503  
O   -2.9383152   -1.5580926  -10.3235183  
C   -3.1612588    0.0061823   -8.4651000  
H   -2.9484519    1.9342055   -6.0894792  
H   -7.0412297    1.7468760   -7.0464279  
H   -7.0157448   -0.0731081   -9.2356879  
H   -4.7705934   -1.9930041  -11.1724391  
H   -2.0134353   -1.4824022  -10.0696059  
H   -5.4198697    2.8094555   -5.4611342  
C   -0.9736295    0.0040466   -4.6965763  
C    0.3136156    0.0047603   -5.1144031  
C    0.2364007    0.0059852   -6.5671712  
C   -1.2123337    0.0057278   -6.8634017  
N   -1.9266299    0.0046737   -5.7708044  
C   -1.7135262    0.0067575   -8.2102096  
C   -0.8085709    0.0083771   -9.2153904  
O   -1.1348685    0.0094717  -10.5190660  
C    0.6601134    0.0090496   -8.9486954  
O    1.4261903    0.0104126   -9.9122021  
C    1.1492577    0.0079248   -7.5584929  
H    1.2054047    0.0045795   -4.5112551  
H   -0.2810977    0.0105426  -10.9883478  
H    2.2204487    0.0085759   -7.4075623  
C    1.1188642    0.0008216   -0.8003808  
C    0.0000000    0.0000000    0.0000000  
C   -1.1323861    0.0008904   -0.8673528  
C   -0.6382661    0.0019681   -2.1969280  
N    0.7324017    0.0038477   -2.1202241  
C   -1.4770913    0.0027323   -3.3154808  
C   -2.8395472    0.0020956   -3.0876858  
O   -3.7039201    0.0024441   -4.1440350  
C   -3.3517867    0.0013945   -1.7684332  
O   -4.7300494    0.0012387   -1.7073122  
C   -2.5248543    0.0009134   -0.6644817  
H    1.3576316   -0.0056175   -2.9057045  
H   -4.5940031    0.0021847   -3.7685129  
H   -4.9934602    0.0007284   -0.7819915  
H   -2.9462576    0.0005617    0.3339659  
H    2.1619896    0.0009343   -0.5342067  
C    0.8400945    0.7047457    2.2710304  
C    0.0000000    0.0000000    1.4700000  
C   -0.8844236   -0.7423113    2.3369512  
C   -0.4878984   -0.4098547    3.7186280  
N    0.5629682    0.4714286    3.6095011  
C   -1.0836927   -0.9095027    4.8308716  
C   -2.1891196   -1.8367527    4.6554461  
O   -2.7906899   -2.3413415    5.5944904  
C   -2.6257283   -2.2031529    3.2011665  
O   -3.5549479   -2.9829990    3.0410059  
C   -1.9068976   -1.5999348    2.0816745  
H   -0.7774656   -0.6525820    5.8354244  
H   -2.2155208   -1.8586617    1.0779135  
H    1.6384792    1.3747609    1.9961646  
H    1.0518368    0.8833920    4.3830260  
