62

C    7.1853687   -2.1191544   -6.3818040  
C    8.2648718   -2.9692609   -6.3150280  
C    8.8632295   -2.9849087   -7.6097576  
C    8.0990837   -2.1176977   -8.4319204  
N    7.0869580   -1.6101777   -7.6556206  
C    8.4022946   -1.8892569   -9.7775306  
C    9.4970253   -2.5480308  -10.3026589  
O    9.8380332   -2.3608533  -11.6109748  
C   10.2715776   -3.4175628   -9.4984204  
O   11.3289405   -3.9989529  -10.1672356  
C    9.9728757   -3.6436076   -8.1709393  
H    8.5813972   -3.5122597   -5.4409813  
H    6.3901107   -0.9569426   -7.9649241  
H    7.8237816   -1.2296306  -10.4095261  
H   10.6197757   -2.9056911  -11.7700208  
H   11.7999271   -4.5705215   -9.5531624  
H   10.5844053   -4.3153061   -7.5798974  
C    6.1745028   -2.1408804   -4.0544024  
C    6.2180775   -1.7334918   -5.3442539  
C    5.0926413   -0.8229057   -5.4882163  
C    4.4611846   -0.7965393   -4.1513722  
N    5.0910257   -1.5671311   -3.3066964  
C    3.2973506   -0.0000934   -3.8752374  
C    2.7877446    0.7368255   -4.8884433  
O    1.7057654    1.5254555   -4.7725807  
C    3.4025820    0.7316574   -6.2486309  
O    2.8855812    1.4266377   -7.1232351  
C    4.5959746   -0.0936242   -6.5067944  
H    1.5889234    1.9175676   -5.6567462  
H    5.0113660   -0.0697231   -7.5053480  
H    6.8407161   -2.8229593   -3.5505174  
C    3.3321174    0.0004714   -1.3379332  
C    2.6974186    0.0000115   -2.5332308  
C    1.2800441   -0.0002119   -2.2052838  
C    1.2395035    0.0000643   -0.7271293  
N    2.4394063    0.0005458   -0.2131034  
C    0.0000000    0.0000000    0.0000000  
C   -1.1468701    0.0000634   -0.7169542  
O   -2.3742201    0.0000072   -0.1695492  
C   -1.1388767    0.0001606   -2.2096354  
O   -2.2206229    0.0000903   -2.7970413  
C    0.1454526    0.0001815   -2.9324239  
H   -2.9844344    0.0001023   -0.9290168  
H    0.1083580    0.0003680   -4.0135594  
H    4.3940040    0.0007617   -1.1498630  
C    2.5311839    2.1237619    3.0120429  
C    1.9795631    1.6616747    1.8395852  
C    0.9223175    0.7739173    2.1983588  
C    0.8753926    0.7337535    3.6154372  
N    1.8668922    1.5631002    4.0777464  
C   -0.0496243   -0.0427881    4.3197917  
C   -0.9437528   -0.7922060    3.5801400  
O   -1.8685244   -1.5680278    4.2172520  
C   -0.9124520   -0.7656372    2.1655264  
O   -1.8671164   -1.5663939    1.5732860  
C    0.0000000    0.0000000    1.4700000  
H    2.3005065    1.9304404    0.8477417  
H    2.0679347    1.7444845    5.0445261  
H   -0.0904770   -0.0778569    5.3997470  
H   -2.3849669   -2.0011402    3.5251786  
H   -1.7775064   -1.4909735    0.6183591  
H    3.3468514    2.8078103    3.1724291  
