62

C    5.0606022   -1.0740804   -6.7502869  
C    6.0735969   -1.9601658   -6.4653995  
C    6.7580619   -2.2178129   -7.6900322  
C    6.1125732   -1.4543456   -8.6962074  
N    5.0851694   -0.7731742   -8.0920026  
C    6.5231219   -1.4635143  -10.0326794  
C    7.6051844   -2.2576344  -10.3593156  
O    8.0480038   -2.3035040  -11.6495944  
C    8.2621209   -3.0268585   -9.3695958  
O    9.3221450   -3.7659162   -9.8527988  
C    7.8574801   -3.0185083   -8.0509900  
H    6.2916237   -2.3712180   -5.4945778  
H    4.4567318   -0.1412969   -8.5543641  
H    6.0353112   -0.8840207  -10.8043205  
H    8.8007240   -2.9089770  -11.6585770  
H    9.7100627   -4.2556401   -9.1211614  
H    8.3801914   -3.6183321   -7.3151494  
C    3.9300170   -0.7219423   -4.5190964  
C    2.8699641   -0.0020530   -4.0185824  
C    2.3084610    0.7252951   -5.1095815  
C    3.0740003    0.4064308   -6.2603207  
N    4.0515276   -0.4731893   -5.8662066  
C    2.8029524    0.9445742   -7.5219558  
C    1.7395403    1.8203320   -7.6238416  
O    1.4306806    2.3746757   -8.8322792  
C    0.9641562    2.1511178   -6.4871013  
O   -0.0597837    3.0371512   -6.7513650  
C    1.2311460    1.6208145   -5.2421026  
H    3.3827123    0.7056831   -8.4028712  
H    0.6670882    2.9472679   -8.6828509  
H   -0.5337212    3.2075145   -5.9316319  
H    0.6198245    1.8929815   -4.3896417  
H    4.6099240   -1.3920555   -4.0214687  
C    3.2573670   -0.0002921   -1.5109382  
C    2.5379468   -0.0001711   -0.3591962  
C    1.1435043    0.0000330   -0.7338498  
C    1.1092608   -0.0000085   -2.2088474  
N    2.4227562    0.0001906   -2.6182610  
C   -0.0265533   -0.0002525   -2.9515663  
C   -1.3003033   -0.0002641   -2.2514979  
O   -2.3786785   -0.0004132   -2.8306425  
C   -1.2877724    0.0000310   -0.6895608  
O   -2.3539956    0.0003306   -0.0892035  
C    0.0000000    0.0000000    0.0000000  
H    2.9384091   -0.0000370    0.6389240  
H   -0.0296290   -0.0004088   -4.0327231  
H    4.3270394   -0.0004767   -1.6439445  
C    0.8175213    0.6860729    2.3021913  
C    0.0000000    0.0000000    1.4700000  
C   -0.8887526   -0.7456559    2.3478473  
C   -0.4549825   -0.3816753    3.7138435  
N    0.5448156    0.4573574    3.6934124  
C   -1.0945674   -0.9182058    4.8835240  
C   -2.1210866   -1.7789155    4.6970523  
O   -2.8083856   -2.3554314    5.6976972  
C   -2.5824069   -2.1655116    3.3310774  
O   -3.5227682   -2.9541547    3.2362962  
C   -1.9100805   -1.6015804    2.1470656  
H   -0.7567140   -0.6349833    5.8697035  
H   -3.4728268   -2.9124471    5.2533954  
H   -2.2742832   -1.9066565    1.1752040  
H    1.6189533    1.3585343    2.0405121  
