62

C    8.3562011    0.7140888   -3.8290107  
C    9.6121554    0.4658266   -4.3324100  
C   10.2476688   -0.4437387   -3.4360773  
C    9.3230266   -0.7173961   -2.3958495  
N    8.1857344    0.0031518   -2.6641678  
C    9.6132592   -1.5782891   -1.3331089  
C   10.8595057   -2.1740109   -1.3203991  
O   11.1949347   -3.0236031   -0.3061538  
C   11.7957979   -1.9132300   -2.3490724  
O   12.9924577   -2.5820695   -2.1941472  
C   11.5102544   -1.0638385   -3.3976551  
H   10.0204993    0.8891788   -5.2340884  
H    8.9129514   -1.7908997   -0.5371387  
H   12.0951449   -3.3235135   -0.4876451  
H   13.5675319   -2.3509841   -2.9300096  
H   12.2476474   -0.8832866   -4.1710444  
H    7.5690239    1.3431519   -4.2079450  
C    5.6692779    0.0013337   -2.3388887  
C    4.7630507    0.0004755   -1.3275395  
C    5.5107321   -0.0007787   -0.0923042  
C    6.9370632   -0.0005500   -0.4696228  
N    6.9650294    0.0003506   -1.8451615  
C    7.9663623   -0.0010976    0.4148250  
C    7.6481548   -0.0021966    1.8330204  
O    8.5043582   -0.0028173    2.7077865  
C    6.1443522   -0.0027088    2.2553735  
O    5.8642064   -0.0039399    3.4464980  
C    5.1238530   -0.0017578    1.2101785  
H    9.0057222   -0.0007868    0.1170995  
H    4.0849824   -0.0019147    1.5109647  
H    5.4995508    0.0023847   -3.4033514  
C    3.3003548    0.0005276   -1.4738982  
C    2.5232817    0.0003497   -2.6090743  
C    1.1623204   -0.0001319   -2.1820101  
C    1.1711886    0.0000583   -0.7636140  
N    2.4852302   -0.0014919   -0.3662356  
C    0.0000000    0.0000000    0.0000000  
C   -1.2020379    0.0000520   -0.6806479  
O   -2.3759249    0.0003495    0.0157742  
C   -1.2314652   -0.0005112   -2.0955511  
O   -2.5054384   -0.0008036   -2.6250184  
C   -0.0764510   -0.0007271   -2.8495195  
H    2.8919962   -0.0005619   -3.6205297  
H    2.8036267    0.0088181    0.5858667  
H   -3.0835636    0.0000348   -0.6418823  
H   -2.4360038   -0.0011526   -3.5845925  
H   -0.1304090   -0.0013420   -3.9319089  
C    2.3971438    2.0127888    3.1728260  
C    1.9431056    1.6308205    1.9564670  
C    0.8496017    0.7127664    2.2356185  
C    0.7794028    0.6545384    3.7115134  
N    1.6840587    1.4146091    4.2663826  
C   -0.1885723   -0.1578550    4.3957118  
C   -1.0476298   -0.8789867    3.6398520  
O   -2.0015663   -1.6796266    4.1448486  
C   -1.0022026   -0.8410666    2.1483229  
O   -1.8147390   -1.5232959    1.5241687  
C    0.0000000    0.0000000    1.4700000  
H    2.3054237    1.9346118    0.9892483  
H   -0.2170646   -0.1815267    5.4753125  
H   -2.4487139   -2.0549881    3.3649027  
H    3.2048689    2.6911772    3.3971983  
