62

C    7.1323633   -3.0445464   -3.5547074  
C    8.2202163   -3.6900597   -4.0954072  
C    8.7922710   -4.4831477   -3.0569634  
C    8.0038772   -4.2796277   -1.8955240  
N    7.0057231   -3.3992446   -2.2320206  
C    8.2772912   -4.9070777   -0.6763682  
C    9.3662431   -5.7556680   -0.6288935  
O    9.6781424   -6.3944666    0.5362976  
C   10.1651259   -5.9713016   -1.7769814  
O   11.2135040   -6.8436043   -1.5688157  
C    9.8961453   -5.3524330   -2.9799690  
H    8.5603420   -3.5995052   -5.1128094  
H    6.2851578   -3.0745850   -1.6128578  
H    7.6803663   -4.7560544    0.2124936  
H   10.4612640   -6.9296564    0.3531077  
H   11.7022387   -6.9338359   -2.3925877  
H   10.5260499   -5.5369609   -3.8423187  
C    6.1837013   -2.1071891   -4.1730114  
C    6.1473616   -1.6429257   -5.4486345  
C    5.0179313   -0.7478961   -5.5388763  
C    4.3948019   -0.7286184   -4.2016665  
N    5.1487785   -1.5734153   -3.4201764  
C    3.2973506   -0.0000934   -3.8752374  
C    2.6891812    0.8195676   -4.9100422  
O    1.6983687    1.5114227   -4.7152914  
C    3.3322628    0.8142074   -6.3334964  
O    2.8288269    1.5001143   -7.2128968  
C    4.5147638   -0.0118348   -6.5641432  
H    6.8333436   -1.8984495   -6.2365113  
H    4.9540947   -0.0098150   -7.5524287  
H    4.9752877   -1.7701683   -2.4515502  
C    3.3321174    0.0004714   -1.3379332  
C    2.6974186    0.0000115   -2.5332308  
C    1.2800441   -0.0002119   -2.2052838  
C    1.2395035    0.0000643   -0.7271293  
N    2.4394063    0.0005458   -0.2131034  
C    0.0000000    0.0000000    0.0000000  
C   -1.1468701    0.0000634   -0.7169542  
O   -2.3742201    0.0000072   -0.1695492  
C   -1.1388767    0.0001606   -2.2096354  
O   -2.2206229    0.0000903   -2.7970413  
C    0.1454526    0.0001815   -2.9324239  
H   -2.9844344    0.0001023   -0.9290168  
H    0.1083580    0.0003680   -4.0135594  
H    4.3940040    0.0007617   -1.1498630  
C    2.5311839    2.1237619    3.0120429  
C    1.9795631    1.6616747    1.8395852  
C    0.9223175    0.7739173    2.1983588  
C    0.8753926    0.7337535    3.6154372  
N    1.8668922    1.5631002    4.0777464  
C   -0.0496243   -0.0427881    4.3197917  
C   -0.9437528   -0.7922060    3.5801400  
O   -1.8685244   -1.5680278    4.2172520  
C   -0.9124520   -0.7656372    2.1655264  
O   -1.8671164   -1.5663939    1.5732860  
C    0.0000000    0.0000000    1.4700000  
H    2.3005065    1.9304404    0.8477417  
H    2.0679347    1.7444845    5.0445261  
H   -0.0904770   -0.0778569    5.3997470  
H   -2.3849669   -2.0011402    3.5251786  
H   -1.7775064   -1.4909735    0.6183591  
H    3.3468514    2.8078103    3.1724291  
