60

C   -4.9035166    2.1189901   -6.3784469  
C   -5.8947682    1.6192577   -7.1909466  
C   -5.2654099    0.7452368   -8.1261449  
C   -3.8776592    0.7514223   -7.8328296  
N   -3.6920338    1.5972162   -6.7675625  
C   -2.9481726   -0.0008210   -8.5573799  
C   -3.4284004   -0.7736175   -9.5967762  
O   -2.5643483   -1.5278971  -10.3367008  
C   -4.8094947   -0.7927272   -9.9050474  
O   -5.1304589   -1.6114195  -10.9680936  
C   -5.7269903   -0.0506635   -9.1908561  
H   -6.9424254    1.8564484   -7.1191954  
H   -2.8102695    1.7943490   -6.3298280  
H   -3.0986743   -1.9826921  -11.0007208  
H   -6.0809700   -1.5669601  -11.1100663  
H   -6.7786156   -0.0853494   -9.4503921  
H   -4.9646411    2.8074411   -5.5530638  
C   -0.8712823    0.0001712   -4.7267111  
C    0.4275912    0.0003833   -5.1068522  
C    0.3927410    0.0003247   -6.5612539  
C   -1.0467465   -0.0000492   -6.8995726  
N   -1.7925763   -0.0000599   -5.8282525  
C   -1.5084818   -0.0001658   -8.2604131  
C   -0.5746209    0.0004688   -9.2387989  
O   -0.8627925    0.0004378  -10.5514293  
C    0.8856683    0.0012296   -8.9294213  
O    1.6794953    0.0016587   -9.8701972  
C    1.3340964    0.0012909   -7.5255565  
H    1.3014267    0.0006482   -4.4779747  
H    0.0042906    0.0010052  -10.9956357  
H    2.4004347    0.0019677   -7.3434774  
C    1.0965515    0.0001358   -0.8010304  
C    0.0000000    0.0000000    0.0000000  
C   -1.1546562    0.0001470   -0.8669514  
C   -0.6372012    0.0003520   -2.2486282  
N    0.7342873    0.0007338   -2.1395014  
C   -1.4147737    0.0001354   -3.3608717  
C   -2.8576047   -0.0001047   -3.1854463  
O   -3.6427778   -0.0002491   -4.1244908  
C   -3.4275837   -0.0000725   -1.7311667  
O   -4.6406828    0.0000333   -1.5710061  
C   -2.4891866   -0.0001090   -0.6116745  
H   -2.8919121   -0.0002919    0.3920865  
H    2.1388272    0.0000662   -0.5261647  
H    1.3735873   -0.0006098   -2.9130261  
C    2.5128556    2.1077716    2.9199648  
C    1.9592212    1.6432552    4.0696553  
C    0.8915788    0.7479214    3.6910360  
C    0.8684491    0.7287414    2.2159470  
N    1.8754542    1.5738793    1.8102719  
C    0.0000000    0.0000000    1.4700000  
C   -0.9772830   -0.8200135    2.1664417  
O   -1.8021297   -1.5120829    1.5842315  
C   -0.9711318   -0.8147624    3.7284083  
O   -1.7894187   -1.5009653    4.3257297  
C    0.0140216    0.0115358    4.4216297  
H    2.2638494    1.8988021    5.0689105  
H    0.0117648    0.0094386    5.5031631  
H    3.3327358    2.7953732    2.7900019  
H    2.1123206    1.7707734    0.8551938  
