64

C   -5.8332104    0.7157396    0.8279703  
C   -6.1530164    0.4668938    2.1426067  
C   -7.2527044   -0.4415508    2.1388212  
C   -7.5628620   -0.7139549    0.7817936  
N   -6.6832335    0.0062306    0.0122456  
C   -8.5974578   -1.5735326    0.4003121  
C   -9.3321419   -2.1692027    1.4070855  
O  -10.3534924   -3.0175383    1.0905683  
C   -9.0381695   -1.9096607    2.7668780  
O   -9.8599089   -2.5782759    3.6506430  
C   -8.0178351   -1.0615671    3.1439475  
H   -5.6556703    0.8891485    2.9989598  
H   -8.8389818   -1.7851836   -0.6321952  
H  -10.7288256   -3.3176460    1.9286169  
H   -9.5945732   -2.3480792    4.5463055  
H   -7.8162630   -0.8819458    4.1935111  
H   -5.0669453    1.3443141    0.4076252  
C   -3.2941076    0.0012874   -2.9038237  
C   -4.0470170    0.0024362   -1.7524795  
C   -5.4166997    0.0030165   -2.1506875  
C   -5.4378086    0.0018828   -3.5689539  
N   -4.1324579    0.0028008   -3.9940138  
C   -6.6248728    0.0017633   -4.3076465  
C   -7.8122586    0.0025002   -3.6017482  
O   -9.0006004    0.0020702   -4.2732066  
C   -7.8117774    0.0040101   -2.1865396  
O   -9.0742766    0.0050115   -1.6302683  
C   -6.6410879    0.0044022   -1.4571488  
H   -3.6570098    0.0039153   -0.7490428  
H   -3.8342563   -0.0082301   -4.9526250  
H   -6.6477244    0.0010461   -5.3887014  
H   -9.6941832    0.0030193   -3.6007429  
H   -8.9845787    0.0059773   -0.6723762  
C    0.0000000    0.0000000    0.0000000  
C    1.0541688   -0.0001722   -0.8560393  
C    0.5103135   -0.0000454   -2.1935957  
C   -0.9576374    0.0002459   -2.0455730  
N   -1.2018460   -0.0001391   -0.6915968  
C   -1.8348314    0.0008317   -3.0810607  
C   -1.2972851    0.0009737   -4.4314604  
O   -2.0050676    0.0014265   -5.4301315  
C    0.2542619    0.0004184   -4.6117571  
O    0.7184666    0.0002257   -5.7439121  
C    1.0974550    0.0000874   -3.4189130  
H    2.0940752   -0.0005483   -0.5817984  
H    2.1707276   -0.0000911   -3.5523671  
H   -2.1128194    0.0014912   -0.2706789  
C    3.3041272   -0.0001177    3.0120429  
C    2.5845372    0.0004780    1.8395852  
C    1.2040006    0.0000008    2.1983588  
C    1.1422373   -0.0006037    3.6154372  
N    2.4348639   -0.0026109    4.0777464  
C   -0.0655181   -0.0008797    4.3197917  
C   -1.2321768   -0.0002324    3.5801400  
O   -2.4392816   -0.0001146    4.2172520  
C   -1.1911209    0.0000007    2.1655264  
O   -2.4371527    0.0002320    1.5732860  
C    0.0000000    0.0000000    1.4700000  
H    3.0031534    0.0000661    0.8477417  
H    2.7054629    0.0071099    5.0445261  
H   -0.1193549   -0.0014844    5.3997470  
H   -3.1132988    0.0000648    3.5251786  
H   -2.3200282    0.0004071    0.6183591  
H    4.3686625   -0.0004071    3.1724291  
