64

C    6.3687792   -0.0125693   -6.8020763  
C    7.0765507   -0.0137300   -5.6224473  
C    8.4606190   -0.0170405   -5.9673315  
C    8.5366169   -0.0174834   -7.3837175  
N    7.2487007   -0.0166737   -7.8589930  
C    9.7513866   -0.0201577   -8.0759005  
C   10.9105524   -0.0221192   -7.3245626  
O   12.1239965   -0.0244122   -7.9495133  
C   10.8552836   -0.0220906   -5.9104329  
O   12.0952993   -0.0246049   -5.3057021  
C    9.6572374   -0.0197263   -5.2269103  
H    6.6479894   -0.0134645   -4.6348603  
H    6.9878513   -0.0061842   -8.8284395  
H    9.8160716   -0.0206536   -9.1552595  
H   12.7910244   -0.0257943   -7.2507021  
H   11.9685863   -0.0243796   -4.3520003  
H    9.6463469   -0.0199492   -4.1432318  
C    2.8699641   -0.0020527   -4.0185824  
C    4.1418712   -0.0047254   -4.5427131  
C    4.0070339   -0.0066636   -5.9627185  
C    2.6177781   -0.0047500   -6.2488846  
N    1.9559320   -0.0039173   -5.0461476  
C    2.1142961   -0.0055842   -7.5532214  
C    3.0299401   -0.0080944   -8.5875166  
O    2.5927438   -0.0086577   -9.8805259  
C    4.4200522   -0.0104067   -8.3221857  
O    5.2027706   -0.0131833   -9.4582706  
C    4.9174612   -0.0098586   -7.0356748  
H    5.0545875   -0.0063227   -3.9718018  
H    0.9584585    0.0080022   -4.9326308  
H    1.0566197   -0.0042800   -7.7779891  
H    3.3831283   -0.0107908  -10.4360000  
H    6.1269500   -0.0145890   -9.1908869  
C    3.2573673   -0.0002921   -1.5109381  
C    2.5379469   -0.0001710   -0.3591962  
C    1.1435042    0.0000332   -0.7338498  
C    1.1092607   -0.0000083   -2.2088474  
N    2.4227562    0.0001908   -2.6182610  
C   -0.0265532   -0.0002523   -2.9515663  
C   -1.3003033   -0.0002639   -2.2514979  
O   -2.3786784   -0.0004132   -2.8306425  
C   -1.2877726    0.0000312   -0.6895609  
O   -2.3539956    0.0003308   -0.0892035  
C    0.0000000    0.0000000    0.0000000  
H    2.9384091   -0.0000368    0.6389240  
H   -0.0296292   -0.0004086   -4.0327231  
H    4.3270395   -0.0004765   -1.6439444  
C    0.8676693    0.7151171    2.2619005  
C    0.5875920    0.4624972    3.5848544  
C   -0.5048400   -0.4542819    3.6114698  
C   -0.8517165   -0.7276451    2.2635546  
N    0.0000000    0.0000000    1.4700000  
C   -1.8902865   -1.5946756    1.9108239  
C   -2.5912627   -2.1969500    2.9375057  
O   -3.6148162   -3.0527051    2.6493466  
C   -2.2603868   -1.9365747    4.2886322  
O   -3.0513550   -2.6123276    5.1947621  
C   -1.2361111   -1.0811317    4.6373480  
H    1.1060808    0.8876438    4.4271209  
H   -2.1597133   -1.8070987    0.8854031  
H   -3.9636755   -3.3565188    3.4974381  
H   -2.7621927   -2.3810384    6.0827341  
H   -1.0058879   -0.9010589    5.6809233  
H    1.6167816    1.3499334    1.8205408  
