60

C    0.0562974    0.2038165   -8.8869372  
C    1.0809067   -0.4528632   -9.5283527  
C    1.0322719   -0.0619261  -10.8992663  
C   -0.0517882    0.8425415  -11.0359364  
N   -0.6239570    0.9802323   -9.7956619  
C   -0.3956835    1.4319943  -12.2562109  
C    0.3688859    1.1026233  -13.3585387  
O    0.0770320    1.6497084  -14.5744880  
C    1.4542440    0.2018940  -13.2423451  
O    2.1179079   -0.0249914  -14.4303772  
C    1.7939099   -0.3802021  -12.0388858  
H    1.7769876   -1.1311656   -9.0653508  
H   -1.4091091    1.5678765   -9.5807414  
H   -1.2208134    2.1219830  -12.3670214  
H    0.7230063    1.2915745  -15.1971630  
H    2.8357780   -0.6436350  -14.2644056  
H    2.6304999   -1.0666489  -11.9806966  
C    1.7371420   -2.0043749   -5.5274506  
C    0.9346265   -1.6238671   -4.5062936  
C   -0.0220099   -0.7047839   -5.1034811  
C    0.3601279   -0.6444240   -6.5306852  
N    1.3906154   -1.4042326   -6.7851963  
C   -0.3537176    0.1694996   -7.4756927  
C   -1.4019189    0.8900579   -7.0159054  
O   -2.1569104    1.6919661   -7.7859522  
C   -1.8124079    0.8499980   -5.5813134  
O   -2.7762301    1.5318137   -5.2328955  
C   -1.0641734    0.0073898   -4.6315339  
H    0.9854830   -1.9292388   -3.4751598  
H   -2.8200953    2.0664814   -7.1784361  
H    2.5747581   -2.6829132   -5.4964945  
C    1.1319248    0.0015675   -0.8009270  
C    0.7969916    0.0034959   -2.1169404  
C   -0.6453336    0.0035703   -2.1842672  
C   -1.1266831    0.0015415   -0.7896027  
N    0.0000000    0.0000000    0.0000000  
C   -2.4346129    0.0013924   -0.4276297  
C   -3.4350110    0.0031352   -1.4820184  
O   -4.6384610    0.0030897   -1.2583919  
C   -2.9478958    0.0050460   -2.9661075  
O   -3.7809377    0.0062160   -3.8623775  
C   -1.5113821    0.0053068   -3.2312125  
H    1.4821240    0.0045436   -2.9459192  
H   -2.7664565    0.0000185    0.6013447  
H    2.1104318    0.0009428   -0.3488058  
C    2.3971438    2.0127888    3.1728260  
C    1.9431056    1.6308205    1.9564670  
C    0.8496017    0.7127664    2.2356185  
C    0.7794028    0.6545384    3.7115134  
N    1.6840587    1.4146091    4.2663826  
C   -0.1885723   -0.1578550    4.3957118  
C   -1.0476298   -0.8789867    3.6398520  
O   -2.0015663   -1.6796266    4.1448486  
C   -1.0022026   -0.8410666    2.1483229  
O   -1.8147390   -1.5232959    1.5241687  
C    0.0000000    0.0000000    1.4700000  
H    2.3054237    1.9346118    0.9892483  
H   -0.2170646   -0.1815267    5.4753125  
H   -2.4487139   -2.0549881    3.3649027  
H    3.2048689    2.6911772    3.3971983  
