64

C    5.9125530   -1.0644303   -3.1742310  
C    6.1689993   -1.9506932   -2.1538194  
C    7.5723536   -2.2057100   -2.1666812  
C    8.1247381   -1.4405295   -3.2255938  
N    7.0893920   -0.7609113   -3.8178730  
C    9.4889565   -1.4469524   -3.5316260  
C   10.3105558   -2.2400375   -2.7543432  
O   11.6507255   -2.2832389   -3.0094725  
C    9.7781483   -3.0109387   -1.6936500  
O   10.7246894   -3.7486660   -1.0130908  
C    8.4323753   -3.0052976   -1.3913449  
H    5.4347411   -2.3635486   -1.4834406  
H    7.1781970   -0.1283695   -4.5924604  
H    9.9161727   -0.8661418   -4.3374472  
H   12.0328278   -2.8884155   -2.3606080  
H   10.2825239   -4.2396660   -0.3137972  
H    8.0535908   -3.6063557   -0.5729753  
C    3.4137018   -0.7170413   -3.0497335  
C    2.4521483    0.0014840   -3.7217481  
C    3.1199026    0.7307414   -4.7497983  
C    4.4993906    0.4143939   -4.6556559  
N    4.6433838   -0.4656290   -3.6118920  
C    5.4596856    0.9548853   -5.5161743  
C    5.0193332    1.8304468   -6.4896526  
O    5.9146527    2.3870213   -7.3566251  
C    3.6471002    2.1587392   -6.5992775  
O    3.3673160    3.0449060   -7.6189698  
C    2.6992271    1.6261188   -5.7505260  
H    6.5125916    0.7179185   -5.4495538  
H    5.4052510    2.9590406   -7.9453252  
H    2.4201345    3.2135029   -7.6240636  
H    1.6553232    1.8964050   -5.8586417  
H    3.3198574   -1.3878682   -2.2129880  
C    0.0000000    0.0000000    0.0000000  
C    1.0662923   -0.0000101   -0.8334270  
C    0.4961873    0.0000065   -2.1718887  
C   -0.9663854   -0.0000848   -1.9540250  
N   -1.2632773   -0.0000083   -0.6828660  
C   -1.8985359   -0.0000514   -3.0477261  
C   -1.3925770    0.0004566   -4.3020547  
O   -2.1456378    0.0005414   -5.4151314  
C    0.0786240    0.0009326   -4.5545000  
O    0.4683767    0.0012591   -5.7221100  
C    1.0143171    0.0008444   -3.4159031  
H    2.1107200    0.0000633   -0.5721865  
H   -2.9622181   -0.0003268   -2.8593381  
H   -1.5042265    0.0009697   -6.1484419  
C    3.3041272   -0.0001177    3.0120429  
C    2.5845372    0.0004780    1.8395852  
C    1.2040006    0.0000008    2.1983588  
C    1.1422373   -0.0006037    3.6154372  
N    2.4348639   -0.0026109    4.0777464  
C   -0.0655181   -0.0008797    4.3197917  
C   -1.2321768   -0.0002324    3.5801400  
O   -2.4392816   -0.0001146    4.2172520  
C   -1.1911209    0.0000007    2.1655264  
O   -2.4371527    0.0002320    1.5732860  
C    0.0000000    0.0000000    1.4700000  
H    3.0031534    0.0000661    0.8477417  
H    2.7054629    0.0071099    5.0445261  
H   -0.1193549   -0.0014844    5.3997470  
H   -3.1132988    0.0000648    3.5251786  
H   -2.3200282    0.0004071    0.6183591  
H    4.3686625   -0.0004071    3.1724291  
