62

C    7.9237457    0.7120592   -4.4775571  
C    8.4919811    0.4630718   -5.7053931  
C    9.5703266   -0.4451131   -5.4886641  
C    9.6120434   -0.7172201   -4.0972103  
N    8.5999691    0.0028852   -3.5125993  
C   10.5534197   -1.5764908   -3.5225336  
C   11.4691788   -2.1721545   -4.3679627  
O   12.4101307   -3.0201970   -3.8595876  
C   11.4438775   -1.9129061   -5.7589941  
O   12.4212530   -2.5814734   -6.4668770  
C   10.5156407   -1.0651156   -6.3265798  
H    8.1696875    0.8850679   -6.6418972  
H   10.5905952   -1.7879151   -2.4627601  
H   12.9406177   -3.3203545   -4.6090902  
H   12.3342288   -2.3514872   -7.3970042  
H   10.5209698   -0.8857146   -7.3953475  
H    7.0904918    1.3405226   -4.2135876  
C    4.7630507    0.0004755   -1.3275395  
C    5.7197932    0.0015998   -2.2912395  
C    6.9965553    0.0009184   -1.6169154  
C    6.7031140   -0.0007359   -0.1709969  
N    5.3315510   -0.0005304   -0.0628078  
C    7.6461204   -0.0021761    0.8049345  
C    9.0433296   -0.0018652    0.4045099  
O    9.9665705   -0.0030133    1.2082063  
C    9.3772084    0.0001299   -1.1213755  
O   10.5499563    0.0007152   -1.4705517  
C    8.2742424    0.0012894   -2.0791419  
H    5.5504518    0.0029550   -3.3532823  
H    7.4095540   -0.0035071    1.8598967  
H    4.8220252   -0.0029948    0.8017292  
C    3.3003548    0.0005276   -1.4738982  
C    2.5232817    0.0003497   -2.6090743  
C    1.1623204   -0.0001319   -2.1820101  
C    1.1711886    0.0000583   -0.7636140  
N    2.4852302   -0.0014919   -0.3662356  
C    0.0000000    0.0000000    0.0000000  
C   -1.2020379    0.0000520   -0.6806479  
O   -2.3759249    0.0003495    0.0157742  
C   -1.2314652   -0.0005112   -2.0955511  
O   -2.5054384   -0.0008036   -2.6250184  
C   -0.0764510   -0.0007271   -2.8495195  
H    2.8919962   -0.0005619   -3.6205297  
H    2.8036267    0.0088181    0.5858667  
H   -3.0835636    0.0000348   -0.6418823  
H   -2.4360038   -0.0011526   -3.5845925  
H   -0.1304090   -0.0013420   -3.9319089  
C    0.8681109    0.7263879    2.2709268  
C    0.6127770    0.5096195    3.5869401  
C   -0.4920590   -0.4175482    3.6542670  
C   -0.8620974   -0.7254003    2.2596025  
N    0.0000000    0.0000000    1.4700000  
C   -1.8641242   -1.5660088    1.8976294  
C   -2.6293522   -2.2103885    2.9520183  
O   -3.5512764   -2.9839180    2.7283916  
C   -2.2549728   -1.8987399    4.4361073  
O   -2.8923672   -2.4351063    5.3323774  
C   -1.1543735   -0.9755647    4.7012123  
H    1.1382914    0.9492124    4.4159191  
H   -2.1192137   -1.7782617    0.8686553  
H   -0.9013378   -0.7652422    5.7314848  
H    1.6172880    1.3558399    1.8188057  
