60

C    0.6987138   -2.9477370   -9.3944758  
C    1.3350799   -2.5118040  -10.5335399  
C    1.0591876   -1.1178041  -10.6570200  
C    0.2430548   -0.7558170   -9.5548317  
N    0.0416839   -1.8907836   -8.8092325  
C   -0.2220856    0.5472886   -9.3539618  
C    0.1435622    1.5024330  -10.2824968  
O   -0.2826680    2.7906137  -10.1344041  
C    0.9569314    1.1606548  -11.3890396  
O    1.2337045    2.2229898  -12.2246137  
C    1.4159429   -0.1247468  -11.5879802  
H    1.9246029   -3.1235448  -11.1947733  
H   -0.4910140   -1.9401257   -7.9596558  
H    0.0802219    3.2857491  -10.8803376  
H    1.7872989    1.9069610  -12.9452118  
H    2.0373274   -0.3566066  -12.4450679  
H    0.6603314   -3.9292883   -8.9539738  
C   -0.0323134   -0.6779777   -5.1766170  
C   -1.0641734    0.0073898   -4.6315339  
C   -1.6436470    0.7548044   -5.7370117  
C   -0.8149132    0.3925081   -6.9068520  
N    0.1311772   -0.4471328   -6.5845079  
C   -1.0682723    0.9310665   -8.2148468  
C   -2.1027597    1.7921066   -8.3481908  
O   -2.4529912    2.3704387   -9.5096168  
C   -2.9577285    2.1770345   -7.1867179  
O   -3.8822556    2.9660878   -7.3813055  
C   -2.6775427    1.6110359   -5.8551526  
H   -3.2210373    2.9272097   -9.2876634  
H   -3.3201087    1.9149462   -5.0396906  
H    0.6514401   -1.3512741   -4.6845539  
C    1.1319248    0.0015675   -0.8009270  
C    0.7969916    0.0034959   -2.1169404  
C   -0.6453336    0.0035703   -2.1842672  
C   -1.1266831    0.0015415   -0.7896027  
N    0.0000000    0.0000000    0.0000000  
C   -2.4346129    0.0013924   -0.4276297  
C   -3.4350110    0.0031352   -1.4820184  
O   -4.6384610    0.0030897   -1.2583919  
C   -2.9478958    0.0050460   -2.9661075  
O   -3.7809377    0.0062160   -3.8623775  
C   -1.5113821    0.0053068   -3.2312125  
H    1.4821240    0.0045436   -2.9459192  
H   -2.7664565    0.0000185    0.6013447  
H    2.1104318    0.0009428   -0.3488058  
C    0.0000000    0.0000000    1.4700000  
C    1.0541688    0.0001722    2.3260392  
C    0.5103138    0.0000454    3.6635956  
C   -0.9576371   -0.0002459    3.5155732  
N   -1.2018458    0.0001392    2.1615969  
C   -1.8348311   -0.0008317    4.5510609  
C   -1.2972847   -0.0009736    5.9014604  
O   -2.0050672   -0.0014265    6.9001319  
C    0.2542623   -0.0004184    6.0817573  
O    0.7184670   -0.0002256    7.2139121  
C    1.0974552   -0.0000873    4.8889129  
H    2.0940752    0.0005483    2.0517982  
H   -2.9081052   -0.0011668    4.4207061  
H    2.1707277    0.0000911    5.0223670  
H   -2.1128194   -0.0014912    1.7406791  
