62

C   10.0236669    0.7100208   -1.5224161  
C   11.3017334    0.4597719   -1.0792569  
C   11.1925551   -0.4483269    0.0152915  
C    9.8119020   -0.7190840    0.1953346  
N    9.1301371    0.0017080   -0.7534916  
C    9.3329668   -1.5779043    1.1892346  
C   10.2647867   -2.1744971    2.0162568  
O    9.8517918   -3.0221534    3.0031337  
C   11.6466408   -1.9166005    1.8525899  
O   12.4476628   -2.5859702    2.7546168  
C   12.1198184   -1.0692547    0.8724705  
H   12.2019084    0.8808934   -1.4931836  
H    8.2819537   -1.7883006    1.3317361  
H   10.6500928   -3.3231026    3.4563560  
H   13.3647288   -2.3568797    2.5754221  
H   13.1839822   -0.8908952    0.7713663  
H    9.6786642    1.3388377   -2.3252363  
C    6.5739136    0.0018720   -4.3537910  
C    7.6280828    0.0019468   -3.4977523  
C    7.0842286    0.0017734   -2.1601960  
C    5.6162776    0.0015610   -2.3082181  
N    5.3720683    0.0020314   -3.6621936  
C    4.7390840    0.0009613   -1.2727298  
C    5.2766310    0.0007200    0.0776696  
O    4.5688485    0.0002469    1.0763412  
C    6.8281778    0.0011905    0.2579659  
O    7.2923826    0.0012993    1.3901205  
C    7.6713704    0.0015458   -0.9348787  
H    8.6679891    0.0022876   -3.7719937  
H    6.5739136    0.0019304   -5.4317014  
H    4.4610946    0.0004679   -4.0831118  
C    3.2798077    0.0005856   -1.4499661  
C    2.5571132    0.0005565   -2.5996564  
C    1.1637425    0.0001547   -2.2210366  
C    1.1336959   -0.0000200   -0.7459475  
N    2.4483509   -0.0001429   -0.3402730  
C    0.0000000    0.0000000    0.0000000  
C   -1.2757370   -0.0000187   -0.6964411  
O   -2.3524597   -0.0000640   -0.1142306  
C   -1.2676502   -0.0000874   -2.2584078  
O   -2.3355774   -0.0004102   -2.8557287  
C    0.0181551    0.0001758   -2.9516297  
H    2.9547342    0.0006074   -3.5989118  
H    0.0150776    0.0003317   -4.0331632  
H    2.7563626    0.0012823    0.6148051  
C    0.8676693    0.7151171    2.2619005  
C    0.5875920    0.4624972    3.5848544  
C   -0.5048400   -0.4542819    3.6114698  
C   -0.8517165   -0.7276451    2.2635546  
N    0.0000000    0.0000000    1.4700000  
C   -1.8902865   -1.5946756    1.9108239  
C   -2.5912627   -2.1969500    2.9375057  
O   -3.6148162   -3.0527051    2.6493466  
C   -2.2603868   -1.9365747    4.2886322  
O   -3.0513550   -2.6123276    5.1947621  
C   -1.2361111   -1.0811317    4.6373480  
H    1.1060808    0.8876438    4.4271209  
H   -2.1597133   -1.8070987    0.8854031  
H   -3.9636755   -3.3565188    3.4974381  
H   -2.7621927   -2.3810384    6.0827341  
H   -1.0058879   -0.9010589    5.6809233  
H    1.6167816    1.3499334    1.8205408  
