64

C   -0.1496419   -0.0015608   -4.3176960  
C    0.8570954   -0.0030494   -5.2552167  
C    0.2320380   -0.0039079   -6.5373640  
C   -1.1692068   -0.0025862   -6.3172802  
N   -1.3663830   -0.0031293   -4.9587010  
C   -2.0987845   -0.0026542   -7.3616339  
C   -1.6048148   -0.0037754   -8.6516611  
O   -2.4683522   -0.0035424   -9.7086928  
C   -0.2100868   -0.0054781   -8.8915533  
O    0.1236720   -0.0068615  -10.2301896  
C    0.7075430   -0.0056852   -7.8617567  
H    1.9121937   -0.0045704   -5.0413049  
H   -2.2604167    0.0081046   -4.5020188  
H   -1.9234611   -0.0047519  -10.5064126  
H    1.0828811   -0.0079362  -10.3044899  
H    1.7698133   -0.0071883   -8.0763680  
C    3.3003545    0.0005277   -1.4738989  
C    2.5232812    0.0003500   -2.6090747  
C    1.1623199   -0.0001317   -2.1820100  
C    1.1711884    0.0000584   -0.7636136  
N    2.4852300   -0.0014919   -0.3662361  
C    0.0000000    0.0000000    0.0000000  
C   -1.2020383    0.0000521   -0.6806475  
O   -2.3759249    0.0003495    0.0157745  
C   -1.2314659   -0.0005110   -2.0955509  
O   -2.5054394   -0.0008034   -2.6250176  
C   -0.0764520   -0.0007270   -2.8495192  
H    2.8919955   -0.0005617   -3.6205298  
H    2.8036268    0.0088181    0.5858662  
H   -3.0835640    0.0000349   -0.6418811  
H   -2.4360053   -0.0011523   -3.5845914  
H    4.3715548    0.0004896   -1.3667139  
C   -4.6986096    2.1248313   -4.4113165  
C   -3.6217452    1.6615227   -5.1311601  
C   -4.1346529    0.7734944   -6.1225892  
C   -5.5429359    0.7344316   -5.9578464  
N   -5.8517832    1.5646669   -4.9090661  
C   -6.3777893   -0.0420368   -6.7671082  
C   -5.7801313   -0.7925125   -7.7609736  
O   -6.5484554   -1.5683145   -8.5800109  
C   -4.3766231   -0.7670510   -7.9407906  
O   -3.9337863   -1.5687801   -8.9725220  
C   -3.5523787   -0.0014865   -7.1426311  
H   -2.5929662    1.9296693   -4.9617366  
H   -6.7776935    1.7469250   -4.5663511  
H   -7.4518028   -0.0762692   -6.6465891  
H   -5.9413531   -2.0022481   -9.1935190  
H   -2.9761130   -1.4940711   -9.0262266  
H   -4.7352023    2.8094360   -3.5812942  
C    2.3971438    2.0127888    3.1728260  
C    1.9431056    1.6308205    1.9564670  
C    0.8496017    0.7127664    2.2356185  
C    0.7794028    0.6545384    3.7115134  
N    1.6840587    1.4146091    4.2663826  
C   -0.1885723   -0.1578550    4.3957118  
C   -1.0476298   -0.8789867    3.6398520  
O   -2.0015663   -1.6796266    4.1448486  
C   -1.0022026   -0.8410666    2.1483229  
O   -1.8147390   -1.5232959    1.5241687  
C    0.0000000    0.0000000    1.4700000  
H    2.3054237    1.9346118    0.9892483  
H   -0.2170646   -0.1815267    5.4753125  
H   -2.4487139   -2.0549881    3.3649027  
H    3.2048689    2.6911772    3.3971983  
