60

C    9.1280325    0.0025290   -0.2802105  
C   10.1866829    0.0037572   -1.1586906  
C   11.3782961    0.0044815   -0.3746905  
C   10.9806969    0.0033503    0.9868673  
N    9.6080551    0.0041309    1.0085583  
C   11.8975009    0.0033557    2.0424523  
C   13.2401373    0.0042174    1.7176353  
O   14.1779664    0.0039125    2.7093458  
C   13.6565484    0.0057272    0.3650759  
O   15.0268883    0.0068612    0.2053726  
C   12.7526512    0.0059960   -0.6767970  
H   10.1095554    0.0051951   -2.2324889  
H    9.0407136   -0.0069314    1.8367982  
H   11.6008983    0.0026409    3.0822740  
H   15.0388594    0.0049349    2.2710229  
H   15.2233324    0.0078178   -0.7364410  
H   13.1014426    0.0073472   -1.7028677  
C    6.8354432    0.0008785   -4.0255230  
C    5.5758875    0.0005992   -3.5179857  
C    5.7016160    0.0007904   -2.0795742  
C    7.1480383    0.0012361   -1.7886230  
N    7.7802455    0.0008700   -3.0105904  
C    7.6812949    0.0019200   -0.5406881  
C    6.7698185    0.0020121    0.5914543  
O    7.1520251    0.0025450    1.7543039  
C    5.2340026    0.0012938    0.3067213  
O    4.4569011    0.0010578    1.2519060  
C    4.7795901    0.0008674   -1.0815733  
H    4.6629017    0.0001118   -4.0863788  
H    7.1529573    0.0008729   -5.0556079  
H    8.7747878    0.0025944   -3.1444924  
C    3.3321168    0.0004716   -1.3379341  
C    2.6974177    0.0000118   -2.5332316  
C    1.2800432   -0.0002116   -2.2052842  
C    1.2395033    0.0000644   -0.7271298  
N    2.4394059    0.0005460   -0.2131041  
C    0.0000000    0.0000000    0.0000000  
C   -1.1468704    0.0000635   -0.7169542  
O   -2.3742206    0.0000074   -0.1695488  
C   -1.1388774    0.0001608   -2.2096352  
O   -2.2206238    0.0000906   -2.7970409  
C    0.1454514    0.0001818   -2.9324241  
H    3.1367978   -0.0000649   -3.5160956  
H   -2.9844350    0.0001027   -0.9290164  
H    0.1083567    0.0003684   -4.0135594  
C    0.8175213    0.6860729    2.3021913  
C    0.0000000    0.0000000    1.4700000  
C   -0.8887526   -0.7456559    2.3478473  
C   -0.4549825   -0.3816753    3.7138435  
N    0.5448156    0.4573574    3.6934124  
C   -1.0945674   -0.9182058    4.8835240  
C   -2.1210866   -1.7789155    4.6970523  
O   -2.8083856   -2.3554314    5.6976972  
C   -2.5824069   -2.1655116    3.3310774  
O   -3.5227682   -2.9541547    3.2362962  
C   -1.9100805   -1.6015804    2.1470656  
H   -0.7567140   -0.6349833    5.8697035  
H   -3.4728268   -2.9124471    5.2533954  
H   -2.2742832   -1.9066565    1.1752040  
H    1.6189533    1.3585343    2.0405121  
