62

C    0.6827523   -0.7107513   -5.1516729  
C    0.3353053   -0.4609409   -6.4590916  
C   -0.7638021    0.4477941   -6.4314643  
C   -1.0451356    0.7193730   -5.0680044  
N   -0.1496426   -0.0015617   -4.3176960  
C   -2.0711966    1.5789710   -4.6641734  
C   -2.8268263    2.1755102   -5.6548006  
O   -3.8410220    3.0239061   -5.3162067  
C   -2.5617293    1.9167998   -7.0206739  
O   -3.4017744    2.5862250   -7.8864316  
C   -1.5498296    1.0686867   -7.4197847  
H    0.8143244   -0.8827551   -7.3260440  
H   -2.2907869    1.7899956   -3.6266525  
H   -4.2338974    3.3246745   -6.1459368  
H   -3.1554909    2.3565568   -8.7876540  
H   -1.3705342    0.8897138   -8.4734928  
H    1.4575534   -1.3398112   -4.7480325  
C    3.3003539    0.0005272   -1.4738994  
C    2.5232807    0.0003493   -2.6090753  
C    1.1623195   -0.0001323   -2.1820106  
C    1.1711880    0.0000582   -0.7636143  
N    2.4852298   -0.0014922   -0.3662365  
C    0.0000000    0.0000000    0.0000000  
C   -1.2020387    0.0000519   -0.6806475  
O   -2.3759248    0.0003494    0.0157747  
C   -1.2314661   -0.0005114   -2.0955507  
O   -2.5054400   -0.0008040   -2.6250174  
C   -0.0764524   -0.0007276   -2.8495195  
H    2.8919944   -0.0005625   -3.6205309  
H    2.8036264    0.0088180    0.5858657  
H   -3.0835644    0.0000351   -0.6418811  
H   -2.4360058   -0.0011530   -3.5845915  
C    5.6973657    0.0015050   -2.3066391  
C    4.7630501    0.0004753   -1.3275413  
C    5.5210294   -0.0005577   -0.0857824  
C    6.9366161   -0.0000776   -0.5132150  
N    7.0462375    0.0012117   -1.8139727  
C    8.0173668   -0.0007819    0.4339197  
C    7.6984456   -0.0015253    1.7483105  
O    8.6048017   -0.0022418    2.7405591  
C    6.2793317   -0.0016540    2.2112100  
O    6.0628283   -0.0024716    3.4229632  
C    5.1885716   -0.0009653    1.2201665  
H    9.0425398   -0.0006149    0.0934349  
H    8.0763830   -0.0026343    3.5590490  
H    4.1742372   -0.0009684    1.5961388  
H    5.5411481    0.0024690   -3.3736762  
C    2.3971438    2.0127888    3.1728260  
C    1.9431056    1.6308205    1.9564670  
C    0.8496017    0.7127664    2.2356185  
C    0.7794028    0.6545384    3.7115134  
N    1.6840587    1.4146091    4.2663826  
C   -0.1885723   -0.1578550    4.3957118  
C   -1.0476298   -0.8789867    3.6398520  
O   -2.0015663   -1.6796266    4.1448486  
C   -1.0022026   -0.8410666    2.1483229  
O   -1.8147390   -1.5232959    1.5241687  
C    0.0000000    0.0000000    1.4700000  
H    2.3054237    1.9346118    0.9892483  
H   -0.2170646   -0.1815267    5.4753125  
H   -2.4487139   -2.0549881    3.3649027  
H    3.2048689    2.6911772    3.3971983  
