60

C    6.5860086   -0.0008870    1.4009375  
C    7.6166236   -0.0011135    0.4897300  
C    7.0248897   -0.0012667   -0.8081339  
C    5.6184275   -0.0008356   -0.6243128  
N    5.3862300   -0.0025642    0.7287201  
C    4.7161324   -0.0005436   -1.6923263  
C    5.2432558   -0.0003826   -2.9691656  
O    4.4073059    0.0002540   -4.0481475  
C    6.6437146   -0.0011825   -3.1729575  
O    7.0119354   -0.0013267   -4.5025276  
C    7.5344423   -0.0017440   -2.1198051  
H    8.6658465   -0.0022673    0.7308197  
H    4.4806936    0.0078491    1.1621678  
H    4.9726184   -0.0000404   -4.8315290  
H    7.9727441   -0.0018529   -4.5520289  
H    8.6019008   -0.0025340   -2.3069101  
H    6.6118211   -0.0011076    2.4771772  
C    3.2573666   -0.0002920   -1.5109384  
C    2.5379463   -0.0001710   -0.3591964  
C    1.1435039    0.0000331   -0.7338498  
C    1.1092600   -0.0000083   -2.2088476  
N    2.4227554    0.0001909   -2.6182613  
C   -0.0265538   -0.0002524   -2.9515660  
C   -1.3003040   -0.0002640   -2.2514976  
O   -2.3786789   -0.0004133   -2.8306420  
C   -1.2877727    0.0000311   -0.6895603  
O   -2.3539960    0.0003306   -0.0892032  
C    0.0000000    0.0000000    0.0000000  
H    2.9384090   -0.0000368    0.6389236  
H    2.7280484   -0.0013407   -3.5742118  
C    2.3617595   -2.0132535   -6.1309099  
C    1.9111448   -1.6311560   -4.9133192  
C    0.8167565   -0.7132545   -5.1894903  
C    0.7423523   -0.6552469   -6.6651879  
N    1.6455039   -1.4153048   -7.2225195  
C   -0.2276495    0.1569483   -7.3467463  
C   -1.0846271    0.8781010   -6.5885490  
O   -2.0400792    1.6785701   -7.0909447  
C   -1.0349520    0.8404010   -5.0971498  
O   -1.8457794    1.5226371   -4.4707846  
C   -0.0307367   -0.0004647   -4.4215603  
H    2.2762450   -1.9347704   -3.9470915  
H   -0.2592161    0.1804612   -8.4262655  
H   -2.4850444    2.0539983   -6.3097833  
H    3.1689126   -2.6915914   -6.3574819  
C    0.8681109    0.7263879    2.2709268  
C    0.6127770    0.5096195    3.5869401  
C   -0.4920590   -0.4175482    3.6542670  
C   -0.8620974   -0.7254003    2.2596025  
N    0.0000000    0.0000000    1.4700000  
C   -1.8641242   -1.5660088    1.8976294  
C   -2.6293522   -2.2103885    2.9520183  
O   -3.5512764   -2.9839180    2.7283916  
C   -2.2549728   -1.8987399    4.4361073  
O   -2.8923672   -2.4351063    5.3323774  
C   -1.1543735   -0.9755647    4.7012123  
H    1.1382914    0.9492124    4.4159191  
H   -2.1192137   -1.7782617    0.8686553  
H   -0.9013378   -0.7652422    5.7314848  
H    1.6172880    1.3558399    1.8188057  
