62

C   -0.0334878   -0.9793477   -9.5597557  
C   -0.1685664    0.0961883   -8.7127348  
C   -0.4255773    1.2382756   -9.5277093  
C   -0.4362092    0.7944036  -10.8748504  
N   -0.1929861   -0.5565954  -10.8586750  
C   -0.6611110    1.6555467  -11.9531084  
C   -0.8795554    2.9890146  -11.6661882  
O   -1.1047367    3.8732517  -12.6812909  
C   -0.8724214    3.4511113  -10.3285675  
O   -1.1052339    4.8055099  -10.2071333  
C   -0.6503492    2.6021853   -9.2643607  
H   -0.1518504   -1.1486088  -11.6684947  
H   -0.6703346    1.3235160  -12.9821239  
H   -1.2308037    4.7372272  -12.2678691  
H   -1.0837553    5.0352709   -9.2731359  
H   -0.6505762    2.9851345   -8.2505423  
H    0.1654315   -2.0143313   -9.3402135  
C    2.5712577   -2.1206951   -5.9616534  
C    1.9373695   -1.6210575   -7.0756615  
C    0.9098907   -0.7465417   -6.6129414  
C    0.9654398   -0.7523422   -5.1956172  
N    1.9839667   -1.5983919   -4.8330982  
C    0.0950446    0.0004351   -4.4015596  
C   -0.8484203    0.7733794   -5.0501034  
O   -1.7229561    1.5281752   -4.3231349  
C   -0.9198270    0.7921109   -6.4633859  
O   -1.9133951    1.6110120   -6.9589329  
C   -0.0616587    0.0495203   -7.2473711  
H    2.1843498   -1.8586263   -8.0962283  
H    2.2669716   -1.7953553   -3.8901799  
H   -2.2874065    1.9829869   -4.9617323  
H   -1.8933722    1.5662712   -7.9197660  
H    3.3949109   -2.8094146   -5.8827842  
C    3.3321173    0.0004713   -1.3379338  
C    2.6974181    0.0000116   -2.5332314  
C    1.2800438   -0.0002119   -2.2052841  
C    1.2395034    0.0000643   -0.7271299  
N    2.4394062    0.0005460   -0.2131038  
C    0.0000000    0.0000000    0.0000000  
C   -1.1468702    0.0000634   -0.7169543  
O   -2.3742203    0.0000074   -0.1695487  
C   -1.1388770    0.0001607   -2.2096355  
O   -2.2206234    0.0000905   -2.7970411  
C    0.1454522    0.0001815   -2.9324241  
H    3.1367984   -0.0000653   -3.5160950  
H   -2.9844346    0.0001026   -0.9290167  
H    4.3940038    0.0007618   -1.1498640  
C    0.0000000    0.0000000    1.4700000  
C    1.0541688    0.0001722    2.3260392  
C    0.5103138    0.0000454    3.6635956  
C   -0.9576371   -0.0002459    3.5155732  
N   -1.2018458    0.0001392    2.1615969  
C   -1.8348311   -0.0008317    4.5510609  
C   -1.2972847   -0.0009736    5.9014604  
O   -2.0050672   -0.0014265    6.9001319  
C    0.2542623   -0.0004184    6.0817573  
O    0.7184670   -0.0002256    7.2139121  
C    1.0974552   -0.0000873    4.8889129  
H    2.0940752    0.0005483    2.0517982  
H   -2.9081052   -0.0011668    4.4207061  
H    2.1707277    0.0000911    5.0223670  
H   -2.1128194   -0.0014912    1.7406791  
