60

C   -0.4271062    0.7041212   -9.2890375  
C    0.6607287   -0.1128611   -9.4930532  
C    0.9953258   -0.0228898  -10.8767258  
C    0.0691155    0.8716448  -11.4715937  
N   -0.7817130    1.2931481  -10.4801087  
C    0.0997043    1.1987840  -12.8305762  
C    1.0834015    0.6124449  -13.6030550  
O    1.1591148    0.8971889  -14.9357971  
C    2.0163660   -0.2828736  -13.0279039  
O    2.9339245   -0.7837115  -13.9282340  
C    1.9866177   -0.6062712  -11.6873614  
H    1.1519201   -0.7021294   -8.7377477  
H   -1.5378402    1.9424053  -10.6014246  
H   -0.6034264    1.8797233  -13.2900661  
H    1.9050974    0.3899288  -15.2814307  
H    3.5264355   -1.3791522  -13.4592082  
H    2.7143705   -1.2954504  -11.2751886  
C    0.0063622   -0.7183663   -5.1315061  
C    0.1635195   -0.4995852   -6.4624876  
C   -0.8683528    0.4283181   -6.8613248  
C   -1.6451040    0.7344083   -5.6448720  
N   -1.0641734    0.0073898   -4.6315339  
C   -2.7096537    1.5750845   -5.6036130  
C   -3.1177623    2.2214016   -6.8398396  
O   -4.0639258    2.9951480   -6.9061034  
C   -2.3096710    1.9116387   -8.1401633  
O   -2.6441214    2.4496444   -9.1870415  
C   -1.1807006    0.9882016   -8.0592839  
H    0.9162662   -0.9383080   -7.0929700  
H   -3.2656646    1.7860271   -4.7006926  
H    0.5824064   -1.3488930   -4.4738593  
C    1.1319248    0.0015675   -0.8009270  
C    0.7969916    0.0034959   -2.1169404  
C   -0.6453336    0.0035703   -2.1842672  
C   -1.1266831    0.0015415   -0.7896027  
N    0.0000000    0.0000000    0.0000000  
C   -2.4346129    0.0013924   -0.4276297  
C   -3.4350110    0.0031352   -1.4820184  
O   -4.6384610    0.0030897   -1.2583919  
C   -2.9478958    0.0050460   -2.9661075  
O   -3.7809377    0.0062160   -3.8623775  
C   -1.5113821    0.0053068   -3.2312125  
H    1.4821240    0.0045436   -2.9459192  
H   -2.7664565    0.0000185    0.6013447  
H    2.1104318    0.0009428   -0.3488058  
C    2.5128556    2.1077716    2.9199648  
C    1.9592212    1.6432552    4.0696553  
C    0.8915788    0.7479214    3.6910360  
C    0.8684491    0.7287414    2.2159470  
N    1.8754542    1.5738793    1.8102719  
C    0.0000000    0.0000000    1.4700000  
C   -0.9772830   -0.8200135    2.1664417  
O   -1.8021297   -1.5120829    1.5842315  
C   -0.9711318   -0.8147624    3.7284083  
O   -1.7894187   -1.5009653    4.3257297  
C    0.0140216    0.0115358    4.4216297  
H    2.2638494    1.8988021    5.0689105  
H    0.0117648    0.0094386    5.5031631  
H    3.3327358    2.7953732    2.7900019  
H    2.1123206    1.7707734    0.8551938  
