64

C   -7.5932862   -0.0878056   -2.4876274  
C   -8.4308020    0.5597639   -1.6091694  
C   -9.7614166    0.1580426   -1.9296123  
C   -9.6725775   -0.7433115   -3.0212139  
N   -8.3423237   -0.8688550   -3.3363049  
C  -10.7952831   -1.3411972   -3.6016047  
C  -12.0301443   -1.0236162   -3.0701559  
O  -13.1592974   -1.5793012   -3.5985885  
C  -12.1392796   -0.1261691   -1.9813516  
O  -13.4372437    0.0886317   -1.5660268  
C  -11.0321508    0.4642415   -1.4084581  
H   -8.1209110    1.2390706   -0.8336031  
H   -7.9708998   -1.4517313   -4.0645087  
H  -10.7342969   -2.0288708   -4.4338238  
H  -13.9007787   -1.2286580   -3.0881769  
H  -13.4222777    0.7058178   -0.8281508  
H  -11.1469542    1.1479071   -0.5754516  
C   -4.5189885    2.1247805   -0.2046391  
C   -3.4217513    1.6624925   -0.8937163  
C   -3.9056841    0.7751586   -1.9002190  
C   -5.3180961    0.7354482   -1.7759554  
N   -5.6572031    1.5646455   -0.7357366  
C   -6.1291073   -0.0406021   -2.6094991  
C   -5.5029133   -0.7899852   -3.5864758  
O   -6.2471435   -1.5653366   -4.4278830  
C   -4.0948368   -0.7638644   -3.7259557  
O   -3.6222951   -1.5645230   -4.7452666  
C   -3.2941076    0.0012878   -2.9038237  
H   -2.3983553    1.9308560   -0.6946317  
H   -6.5926282    1.7462702   -0.4195504  
H   -5.6225343   -1.9985108   -5.0241116  
H   -2.6635042   -1.4894251   -4.7714260  
H   -4.5796252    2.8086381    0.6245906  
C    0.0000000    0.0000000    0.0000000  
C    1.0541688   -0.0001723   -0.8560392  
C    0.5103136   -0.0000455   -2.1935956  
C   -0.9576373    0.0002461   -2.0455730  
N   -1.2018460   -0.0001389   -0.6915968  
C   -1.8348314    0.0008319   -3.0810607  
C   -1.2972851    0.0009739   -4.4314603  
O   -2.0050676    0.0014268   -5.4301316  
C    0.2542619    0.0004184   -4.6117572  
O    0.7184666    0.0002257   -5.7439122  
C    1.0974551    0.0000873   -3.4189129  
H    2.0940752   -0.0005484   -0.5817983  
H    2.1707276   -0.0000912   -3.5523673  
H   -2.1128194    0.0014915   -0.2706789  
C    3.3041272   -0.0001177    3.0120429  
C    2.5845372    0.0004780    1.8395852  
C    1.2040006    0.0000008    2.1983588  
C    1.1422373   -0.0006037    3.6154372  
N    2.4348639   -0.0026109    4.0777464  
C   -0.0655181   -0.0008797    4.3197917  
C   -1.2321768   -0.0002324    3.5801400  
O   -2.4392816   -0.0001146    4.2172520  
C   -1.1911209    0.0000007    2.1655264  
O   -2.4371527    0.0002320    1.5732860  
C    0.0000000    0.0000000    1.4700000  
H    3.0031534    0.0000661    0.8477417  
H    2.7054629    0.0071099    5.0445261  
H   -0.1193549   -0.0014844    5.3997470  
H   -3.1132988    0.0000648    3.5251786  
H   -2.3200282    0.0004071    0.6183591  
H    4.3686625   -0.0004071    3.1724291  
