60

C    6.8592899   -0.0007517   -5.5260759  
C    7.9581109   -0.0024896   -6.3537576  
C    7.4698540   -0.0030910   -7.6939837  
C    6.0533149   -0.0013628   -7.6208918  
N    5.7158493   -0.0019215   -6.2902034  
C    5.2374480   -0.0010959   -8.7562995  
C    5.8629629   -0.0022939   -9.9879266  
O    5.1140970   -0.0017449  -11.1290736  
C    7.2750807   -0.0044000  -10.0813984  
O    7.7463124   -0.0058098  -11.3780393  
C    8.0805795   -0.0049378   -8.9617115  
H    8.9852242   -0.0043376   -6.0312242  
H    4.7791538    0.0095544   -5.9290238  
H    4.1572612    0.0000738   -8.7073346  
H    5.7390328   -0.0030734  -11.8657675  
H    8.7080455   -0.0071671  -11.3521303  
H    9.1594141   -0.0067465   -9.0646287  
C    6.7793191   -0.0000202   -4.0582530  
C    7.7853572    0.0004711   -3.1461329  
C    7.1695419    0.0010651   -1.8401443  
C    5.7118175    0.0008489   -2.0678064  
N    5.5416291    0.0005850   -3.4330631  
C    4.7795901    0.0008674   -1.0815733  
C    5.2428764    0.0013430    0.2960700  
O    4.4818126    0.0014588    1.2547579  
C    6.7823176    0.0018306    0.5605065  
O    7.1842432    0.0025397    1.7162382  
C    7.6891544    0.0014826   -0.5847003  
H    8.8386427    0.0006053   -3.3633956  
H    8.7535769    0.0016186   -0.3930558  
H    4.6549030   -0.0011624   -3.9029151  
C    3.3321168    0.0004716   -1.3379341  
C    2.6974177    0.0000118   -2.5332316  
C    1.2800432   -0.0002116   -2.2052842  
C    1.2395033    0.0000644   -0.7271298  
N    2.4394059    0.0005460   -0.2131041  
C    0.0000000    0.0000000    0.0000000  
C   -1.1468704    0.0000635   -0.7169542  
O   -2.3742206    0.0000074   -0.1695488  
C   -1.1388774    0.0001608   -2.2096352  
O   -2.2206238    0.0000906   -2.7970409  
C    0.1454514    0.0001818   -2.9324241  
H    3.1367978   -0.0000649   -3.5160956  
H   -2.9844350    0.0001027   -0.9290164  
H    0.1083567    0.0003684   -4.0135594  
C    0.0000000    0.0000000    1.4700000  
C    1.0541688    0.0001722    2.3260392  
C    0.5103138    0.0000454    3.6635956  
C   -0.9576371   -0.0002459    3.5155732  
N   -1.2018458    0.0001392    2.1615969  
C   -1.8348311   -0.0008317    4.5510609  
C   -1.2972847   -0.0009736    5.9014604  
O   -2.0050672   -0.0014265    6.9001319  
C    0.2542623   -0.0004184    6.0817573  
O    0.7184670   -0.0002256    7.2139121  
C    1.0974552   -0.0000873    4.8889129  
H    2.0940752    0.0005483    2.0517982  
H   -2.9081052   -0.0011668    4.4207061  
H    2.1707277    0.0000911    5.0223670  
H   -2.1128194   -0.0014912    1.7406791  
