62

C    0.0142522   -0.9856846   -9.5820474  
C   -0.1481907    0.0893644   -8.7392251  
C   -0.3790481    1.2318601   -9.5614228  
C   -0.3462605    0.7887275  -10.9084501  
N   -0.1034505   -0.5622424  -10.8851943  
C   -0.5365073    1.6504287  -11.9929166  
C   -0.7642990    2.9837048  -11.7124460  
O   -0.9568608    3.8684650  -12.7337844  
C   -0.8002795    3.4450666  -10.3750349  
O   -1.0371119    4.7993621  -10.2604168  
C   -0.6124110    2.5955898   -9.3046988  
H   -0.0361823   -1.1538040  -11.6935950  
H   -0.5125656    1.3189627  -13.0218765  
H   -1.0963114    4.7321933  -12.3241623  
H   -1.0457304    5.0286124   -9.3260859  
H   -0.6453182    2.9779815   -8.2912038  
H    0.2061844   -2.0207579   -9.3567837  
C    2.4962704   -2.1241894   -5.9704916  
C    1.9479396   -1.6619895   -4.7965360  
C    0.8895863   -0.7743924   -5.1524285  
C    0.8386260   -0.7344381   -6.5693735  
N    1.8288919   -1.5637499   -7.0343817  
C   -0.0884708    0.0419068   -7.2712053  
C   -0.9805686    0.7913397   -6.5291209  
O   -1.9072290    1.5669748   -7.1637119  
C   -0.9452410    0.7649786   -5.1145987  
O   -1.8982994    1.5657229   -4.5197602  
C   -0.0307352   -0.0004646   -4.4215603  
H    2.2717310   -1.9305789   -3.8055709  
H    2.0272020   -1.7452532   -8.0017033  
H   -2.4217454    2.0001342   -6.4702341  
H   -1.8059653    1.4904496   -3.5650810  
H    3.3115487   -2.8081772   -6.1330989  
C    3.2573670   -0.0002920   -1.5109380  
C    2.5379468   -0.0001709   -0.3591961  
C    1.1435043    0.0000332   -0.7338500  
C    1.1092609   -0.0000082   -2.2088477  
N    2.4227562    0.0001909   -2.6182613  
C   -0.0265532   -0.0002522   -2.9515663  
C   -1.3003035   -0.0002639   -2.2514981  
O   -2.3786784   -0.0004131   -2.8306429  
C   -1.2877725    0.0000312   -0.6895608  
O   -2.3539958    0.0003307   -0.0892036  
C    0.0000000    0.0000000    0.0000000  
H    2.9384091   -0.0000369    0.6389239  
H    4.3270394   -0.0004765   -1.6439446  
H    2.7280494   -0.0013406   -3.5742113  
C    2.5128556    2.1077716    2.9199648  
C    1.9592212    1.6432552    4.0696553  
C    0.8915788    0.7479214    3.6910360  
C    0.8684491    0.7287414    2.2159470  
N    1.8754542    1.5738793    1.8102719  
C    0.0000000    0.0000000    1.4700000  
C   -0.9772830   -0.8200135    2.1664417  
O   -1.8021297   -1.5120829    1.5842315  
C   -0.9711318   -0.8147624    3.7284083  
O   -1.7894187   -1.5009653    4.3257297  
C    0.0140216    0.0115358    4.4216297  
H    2.2638494    1.8988021    5.0689105  
H    0.0117648    0.0094386    5.5031631  
H    3.3327358    2.7953732    2.7900019  
H    2.1123206    1.7707734    0.8551938  
