62

C   -6.3083506    2.4114906   -0.4711676  
C   -6.3143415    1.1089186   -0.9135900  
C   -7.4498026    0.4752606   -0.3272412  
C   -8.1045291    1.4489988    0.4696861  
N   -7.3842806    2.6126758    0.3614477  
C   -9.2663726    1.1740221    1.1972137  
C   -9.7767383   -0.1071964    1.1185780  
O  -10.9093381   -0.4297508    1.8086448  
C   -9.1375832   -1.0926238    0.3291285  
O   -9.7676960   -2.3196817    0.3542118  
C   -7.9912135   -0.8221323   -0.3886439  
H   -7.6143649    3.4813768    0.8091097  
H   -9.7700679    1.9117061    1.8065705  
H  -11.0898993   -1.3593987    1.6178158  
H   -9.2727147   -2.9272321   -0.2038917  
H   -7.5238082   -1.5973957   -0.9844429  
H   -5.6209186    3.2125698   -0.6825175  
C   -3.9834216    0.7255574   -1.7966820  
C   -5.3237513    0.5085124   -1.8186556  
C   -5.5825289   -0.4184178   -2.8950708  
C   -4.2737049   -0.7258290   -3.5027450  
N   -3.3460097   -0.0004262   -2.7913647  
C   -4.0918502   -1.5661140   -4.5527708  
C   -5.2633979   -2.2105865   -5.1225671  
O   -5.2038139   -2.9838462   -6.0695727  
C   -6.6595203   -1.8994021   -4.4950220  
O   -7.6531010   -2.4358507   -4.9664893  
C   -6.7288173   -0.9765485   -3.3648051  
H   -3.1230862   -1.7780461   -4.9834574  
H   -7.6992176   -0.7665470   -2.9359152  
H   -3.4077087    1.3549517   -1.1376624  
C    0.0000000    0.0000000    0.0000000  
C    1.0662919   -0.0000103   -0.8334272  
C    0.4961868    0.0000066   -2.1718889  
C   -0.9663860   -0.0000849   -1.9540248  
N   -1.2632775   -0.0000084   -0.6828659  
C   -1.8985364   -0.0000515   -3.0477258  
C   -1.3925778    0.0004567   -4.3020543  
O   -2.1456385    0.0005412   -5.4151314  
C    0.0786229    0.0009326   -4.5544999  
O    0.4683756    0.0012594   -5.7221104  
C    1.0143162    0.0008443   -3.4159034  
H    2.1107195    0.0000631   -0.5721869  
H   -1.5042277    0.0009692   -6.1484420  
H    2.0724151    0.0013151   -3.6409746  
C    1.1188642   -0.0008217    2.2703808  
C    0.0000000    0.0000000    1.4700000  
C   -1.1323862   -0.0008904    2.3373528  
C   -0.6382662   -0.0019682    3.6669281  
N    0.7324016   -0.0038477    3.5902241  
C   -1.4770914   -0.0027325    4.7854808  
C   -2.8395474   -0.0020958    4.5576857  
O   -3.7039201   -0.0024443    5.6140350  
C   -3.3517868   -0.0013946    3.2384331  
O   -4.7300496   -0.0012389    3.1773122  
C   -2.5248543   -0.0009135    2.1344818  
H    1.3576314    0.0056174    4.3757045  
H   -1.1067570   -0.0036993    5.8013813  
H   -4.5940033   -0.0021850    5.2385129  
H   -4.9934601   -0.0007286    2.2519915  
H   -2.9462578   -0.0005617    1.1360343  
H    2.1619896   -0.0009344    2.0042067  
