62

C    1.2838547   -1.0739005   -7.6980018  
C    2.3362527   -1.9597171   -7.7139510  
C    2.6403904   -2.2203409   -9.0829562  
C    1.7329843   -1.4588832   -9.8631632  
N    0.9220986   -0.7759936   -8.9909575  
C    1.7425563   -1.4711791  -11.2612138  
C    2.6855209   -2.2664179  -11.8829779  
O    2.7392779   -2.3153236  -13.2459640  
C    3.5991710   -3.0336737  -11.1218077  
O    4.4760596   -3.7741916  -11.8873422  
C    3.5901289   -3.0222383   -9.7425634  
H    2.8239397   -2.3686841   -6.8456768  
H    0.1871908   -0.1449198   -9.2548463  
H    1.0535774   -0.8932289  -11.8616175  
H    3.4579077   -2.9210888  -13.4693148  
H    5.0578395   -4.2624250  -11.2967802  
H    4.3022672   -3.6206113   -9.1864286  
C    0.8518586   -0.7041560   -5.2251428  
C    0.0139741    0.0003876   -4.4216236  
C   -0.8729887    0.7427330   -5.2859478  
C   -0.4803619    0.4105167   -6.6687950  
N    0.5709014   -0.4706742   -6.5627858  
C   -1.0793694    0.9102636   -7.7792669  
C   -2.1843877    1.8373744   -7.6005633  
O   -2.7886792    2.3420368   -8.5378192  
C   -2.6168947    2.2035198   -6.1449943  
O   -3.5457349    2.9832469   -5.9820777  
C   -1.8948203    1.6002142   -5.0276389  
H   -0.7759752    0.6535195   -8.7847240  
H   -2.2006131    1.8587646   -4.0229668  
H    1.6510906   -1.3741284   -4.9526464  
C    3.2798085    0.0005853   -1.4499648  
C    2.5571144    0.0005562   -2.5996554  
C    1.1637436    0.0001546   -2.2210360  
C    1.1336965   -0.0000201   -0.7459470  
N    2.4483513   -0.0001430   -0.3402717  
C    0.0000000    0.0000000    0.0000000  
C   -1.2757367   -0.0000188   -0.6964414  
O   -2.3524597   -0.0000640   -0.1142313  
C   -1.2676494   -0.0000875   -2.2584081  
O   -2.3355762   -0.0004102   -2.8557294  
C    0.0181562    0.0001757   -2.9516296  
H    2.9547357    0.0006072   -3.5989105  
H    4.3498550    0.0008609   -1.3200021  
H    2.7563627    0.0012824    0.6148063  
C    2.5285572    2.1210227    2.9438989  
C    1.9331703    1.6216660    4.0790748  
C    0.8903039    0.7472258    3.6520102  
C    0.8972198    0.7527806    2.2336141  
N    1.9028376    1.5986179    1.8362361  
C    0.0000000    0.0000000    1.4700000  
C   -0.9207814   -0.7726952    2.1506477  
O   -1.8198395   -1.5274828    1.4542253  
C   -0.9436862   -0.7911793    3.5655508  
O   -1.9197945   -1.6098497    4.0950179  
C   -0.0590329   -0.0485852    4.3195194  
H    2.2150357    1.8593692    5.0905303  
H    2.1533708    1.7953814    0.8841339  
H   -2.3621246   -1.9821033    2.1118817  
H   -1.8668290   -1.5649508    5.0545920  
H   -0.1007624   -0.0827977    5.4019087  
H    3.3491200    2.8096064    2.8367138  
