64

C   -1.1180135   -0.0436310   -0.8003807  
C    0.0000000    0.0000000    0.0000000  
C    1.1315913    0.0424375   -0.8673523  
C    0.6378742    0.0224545   -2.1969275  
N   -0.7317178   -0.0318680   -2.1202239  
C    1.4761149    0.0537859   -3.3154807  
C    2.8375494    0.1065525   -3.0876854  
O    3.7013018    0.1392769   -4.1440340  
C    3.3493858    0.1268524   -1.7684323  
O    4.7266338    0.1797431   -1.7073115  
C    2.5230409    0.0956930   -0.6644807  
H    1.1060887    0.0386502   -4.3313807  
H    4.5907234    0.1735922   -3.7685116  
H    4.9898317    0.1903315   -0.7819909  
H    2.9441224    0.1121683    0.3339668  
H   -2.1603703   -0.0836557   -0.5342067  
C   -1.6470194   -0.0530462   -3.2702999  
C   -3.0039752   -0.1037387   -3.2835865  
C   -3.4117310   -0.1032567   -4.6687112  
C   -2.1722102   -0.0477590   -5.4670213  
N   -1.1382938   -0.0189413   -4.5597863  
C   -2.1313287   -0.0311996   -6.8233984  
C   -3.3922984   -0.0704447   -7.5451667  
O   -3.4609091   -0.0594144   -8.7672433  
C   -4.7172631   -0.1291993   -6.7200472  
O   -5.7850311   -0.1622850   -7.3167359  
C   -4.6335813   -0.1425034   -5.2617358  
H   -3.6460173   -0.1374223   -2.4214607  
H   -1.2112846    0.0095736   -7.3897607  
H   -0.1641342    0.0187914   -4.7977707  
C   -6.1361545    0.4950307   -3.3339755  
C   -7.4004832    0.1896892   -2.8859725  
C   -7.9584096   -0.7382962   -3.8144988  
C   -6.9799854   -0.9638450   -4.8163667  
N   -5.8866964   -0.1981948   -4.4952495  
C   -7.1883163   -1.8272107   -5.8961754  
C   -8.4064386   -2.4749144   -5.9657090  
O   -8.6624065   -3.3293099   -6.9989097  
C   -9.3954571   -2.2626248   -4.9759653  
O  -10.5549823   -2.9800814   -5.1859675  
C   -9.1907228   -1.4108281   -3.9105768  
H   -7.8640725    0.5877741   -1.9996287  
H   -6.4467059   -2.0033112   -6.6631206  
H   -9.5558797   -3.6685020   -6.8577722  
H  -11.1698401   -2.7797253   -4.4736400  
H   -9.9670373   -1.2681323   -3.1679786  
H   -5.3931158    1.1535564   -2.9178057  
C    2.5285572    2.1210227    2.9438989  
C    1.9331703    1.6216660    4.0790748  
C    0.8903039    0.7472258    3.6520102  
C    0.8972198    0.7527806    2.2336141  
N    1.9028376    1.5986179    1.8362361  
C    0.0000000    0.0000000    1.4700000  
C   -0.9207814   -0.7726952    2.1506477  
O   -1.8198395   -1.5274828    1.4542253  
C   -0.9436862   -0.7911793    3.5655508  
O   -1.9197945   -1.6098497    4.0950179  
C   -0.0590329   -0.0485852    4.3195194  
H    2.2150357    1.8593692    5.0905303  
H    2.1533708    1.7953814    0.8841339  
H   -2.3621246   -1.9821033    2.1118817  
H   -1.8668290   -1.5649508    5.0545920  
H   -0.1007624   -0.0827977    5.4019087  
H    3.3491200    2.8096064    2.8367138  
