62

C   -8.0195920   -0.8382604   -2.9020328  
C   -8.4131152   -0.0369311   -1.8553820  
C   -9.8288792   -0.1674147   -1.7405421  
C  -10.2471412   -1.0693927   -2.7521837  
N   -9.1240079   -1.4561718   -3.4403632  
C  -11.5845988   -1.4335434   -2.9349131  
C  -12.5167678   -0.8772489   -2.0806437  
O  -13.8365214   -1.1987157   -2.2145183  
C  -12.1190473    0.0249169   -1.0653936  
O  -13.1647727    0.4928710   -0.2967465  
C  -10.7998218    0.3848195   -0.8847205  
H   -7.7602263    0.5681705   -1.2499231  
H   -9.1080062   -2.1016543   -4.2091782  
H  -11.9098688   -2.1203465   -3.7041355  
H  -14.3080341   -0.7077493   -1.5290303  
H  -12.8104900    1.0954644    0.3642896  
H  -10.5253343    1.0783539   -0.0984989  
C   -3.9746083    0.7142908   -1.7986957  
C   -5.3260795    0.4613977   -1.8438322  
C   -5.5426092   -0.4551387   -2.9151287  
C   -4.2757853   -0.7280790   -3.4918330  
N   -3.3460097   -0.0004262   -2.7913647  
C   -4.1093983   -1.5947823   -4.5762358  
C   -5.2424667   -2.1971584   -5.0875840  
O   -5.1370458   -3.0526062   -6.1459361  
C   -6.5152400   -1.9372031   -4.5260783  
O   -7.5452826   -2.6130064   -5.1470830  
C   -6.6801642   -1.0820832   -3.4564545  
H   -6.0651071    0.8862112   -1.1862872  
H   -3.1466336   -1.8068824   -5.0204192  
H   -6.0329159   -3.3565565   -6.3416283  
H   -8.3692677   -2.3820100   -4.7074316  
H   -3.4095049    1.3490485   -1.1378632  
C    0.0000000    0.0000000    0.0000000  
C    1.0662919   -0.0000103   -0.8334272  
C    0.4961868    0.0000066   -2.1718889  
C   -0.9663860   -0.0000849   -1.9540248  
N   -1.2632775   -0.0000084   -0.6828659  
C   -1.8985364   -0.0000515   -3.0477258  
C   -1.3925778    0.0004567   -4.3020543  
O   -2.1456385    0.0005412   -5.4151314  
C    0.0786229    0.0009326   -4.5544999  
O    0.4683756    0.0012594   -5.7221104  
C    1.0143162    0.0008443   -3.4159034  
H    2.1107195    0.0000631   -0.5721869  
H   -1.5042277    0.0009692   -6.1484420  
H    2.0724151    0.0013151   -3.6409746  
C    3.2573670    0.0002920    2.9809380  
C    2.5379467    0.0001709    1.8291961  
C    1.1435042   -0.0000331    2.2038498  
C    1.1092607    0.0000083    3.6788474  
N    2.4227561   -0.0001909    4.0882609  
C   -0.0265533    0.0002524    4.4215661  
C   -1.3003036    0.0002640    3.7214979  
O   -2.3786784    0.0004133    4.3006425  
C   -1.2877726   -0.0000311    2.1595606  
O   -2.3539958   -0.0003306    1.5592035  
C    0.0000000    0.0000000    1.4700000  
H    2.9384090    0.0000368    0.8310761  
H   -0.0296291    0.0004086    5.5027230  
H    4.3270393    0.0004765    3.1139444  
H    2.7280493    0.0013407    5.0442112  
