66

C    2.8127783   -0.7365250   -3.3573037  
C    1.6478437   -0.0100096   -3.2702997  
C    1.5143087    0.7107914   -4.4939068  
C    2.6370073    0.3812884   -5.2957182  
N    3.4061782   -0.4980964   -4.5748329  
C    2.8346057    0.9108205   -6.5745224  
C    1.8813276    1.7887461   -7.0527328  
O    2.0247688    2.3349769   -8.2953388  
C    0.7544619    2.1300936   -6.2675751  
O   -0.1041855    3.0169822   -6.8836081  
C    0.5590206    1.6082896   -5.0058107  
H    3.6882152    0.6638026   -7.1905868  
H    1.2608975    2.9107773   -8.4303227  
H   -0.8375012    3.1947276   -6.2867335  
H   -0.3138101    1.8884589   -4.4277537  
H    3.2680676   -1.4048169   -2.6466308  
C    5.0306478   -4.5876507   -4.1326514  
C    6.2079999   -4.3837394   -4.8143625  
C    6.2093625   -3.0240658   -5.2455063  
C    4.9969373   -2.4429208   -4.7935980  
N    4.3038961   -3.4201352   -4.1232521  
C    4.6603309   -1.1083173   -5.0391947  
C    5.5642622   -0.3464151   -5.7537504  
O    5.2858662    0.9627365   -6.0213908  
C    6.7790694   -0.9083473   -6.2134191  
O    7.5732066   -0.0212767   -6.9104094  
C    7.1116727   -2.2249671   -5.9717315  
H    6.9713909   -5.1242280   -4.9814066  
H    3.4105941   -3.2987730   -3.6813649  
H    6.0370849    1.3045066   -6.5235156  
H    8.3730567   -0.4800367   -7.1849712  
H    8.0493632   -2.6275671   -6.3366005  
H    4.6511602   -5.4739194   -3.6536150  
C    1.1188642    0.0008224   -0.8003808  
C    0.0000000    0.0000000    0.0000000  
C   -1.1323861    0.0008899   -0.8673529  
C   -0.6382661    0.0019681   -2.1969282  
N    0.7324017    0.0038483   -2.1202240  
C   -1.4770912    0.0027320   -3.3154810  
C   -2.8395474    0.0020946   -3.0876860  
O   -3.7039199    0.0024426   -4.1440353  
C   -3.3517867    0.0013927   -1.7684331  
O   -4.7300496    0.0012363   -1.7073125  
C   -2.5248543    0.0009121   -0.6644818  
H   -1.1067568    0.0036992   -4.3313814  
H   -4.5940031    0.0021828   -3.7685133  
H   -4.9934602    0.0007260   -0.7819919  
H   -2.9462579    0.0005600    0.3339656  
H    2.1619896    0.0009357   -0.5342065  
C    0.8576279    0.7185626    2.2703808  
C    0.0000000    0.0000000    1.4700000  
C   -0.8668858   -0.7285659    2.3373528  
C   -0.4876752   -0.4117774    3.6669281  
N    0.5635254    0.4678311    3.5902241  
C   -1.1297612   -0.9515493    4.7854808  
C   -2.1738724   -1.8268314    4.5576857  
O   -2.8357962   -2.3827064    5.6140350  
C   -2.5667212   -2.1555554    3.2384331  
O   -3.6226318   -3.0413663    3.1773122  
C   -1.9335634   -1.6236449    2.1344818  
H    1.0363952    0.8769718    4.3757045  
H   -0.8454472   -0.7142436    5.8013813  
H   -3.5178062   -2.9546422    5.2385129  
H   -3.8247440   -3.2102924    2.2519915  
H   -2.2566033   -1.8942483    1.1360343  
H    1.6567807    1.3889844    2.0042067  
