64

C    6.6682528    0.0022276   -4.3668306  
C    5.4175879    0.0023082   -3.7938518  
C    5.6072947    0.0015089   -2.3801294  
C    7.0065883    0.0012480   -2.1479613  
N    7.6213768   -0.0002536   -3.3754184  
C    7.5601877    0.0007902   -0.8640932  
C    6.6852685    0.0008989    0.2048754  
O    7.1721933    0.0008179    1.4799905  
C    5.2859246    0.0007829   -0.0064390  
O    4.5477721    0.0004894    1.1590968  
C    4.7390844    0.0009612   -1.2727295  
H    4.4834523    0.0017681   -4.3289999  
H    8.6137254    0.0097951   -3.5274770  
H    8.6257738    0.0004455   -0.6804402  
H    6.4039029    0.0006185    2.0656479  
H    3.6139324    0.0004556    0.9276926  
H    6.9558189    0.0022981   -5.4042622  
C    3.2798077    0.0005856   -1.4499659  
C    2.5571132    0.0005565   -2.5996562  
C    1.1637425    0.0001548   -2.2210364  
C    1.1336957   -0.0000200   -0.7459472  
N    2.4483508   -0.0001429   -0.3402728  
C    0.0000000    0.0000000    0.0000000  
C   -1.2757370   -0.0000187   -0.6964410  
O   -2.3524597   -0.0000640   -0.1142306  
C   -1.2676501   -0.0000873   -2.2584079  
O   -2.3355772   -0.0004101   -2.8557287  
C    0.0181552    0.0001759   -2.9516296  
H    2.9547343    0.0006074   -3.5989115  
H    2.7563624    0.0012823    0.6148054  
C    2.5409761   -2.1228910   -5.9711693  
C    1.9926464   -1.6610296   -4.7970800  
C    0.9342931   -0.7733295   -5.1527157  
C    0.8833320   -0.7329662   -6.5696491  
N    1.8735971   -1.5621440   -7.0348972  
C   -0.0437651    0.0435817   -7.2712562  
C   -0.9358622    0.7928008   -6.5289551  
O   -1.8625226    1.5686193   -7.1633207  
C   -0.9005335    0.7660313   -5.1144400  
O   -1.8535912    1.5666043   -4.5193699  
C    0.0139724    0.0003878   -4.4216237  
H    2.3164383   -1.9299052   -3.8061929  
H    2.0719065   -1.7433682   -8.0022712  
H   -0.0876942    0.0788020   -8.3510856  
H   -2.3770381    2.0015785   -6.4697185  
H   -1.7612565    1.4910554   -3.5647129  
H    3.3562540   -2.8068323   -6.1339745  
C    0.8676693    0.7151171    2.2619005  
C    0.5875920    0.4624972    3.5848544  
C   -0.5048400   -0.4542819    3.6114698  
C   -0.8517165   -0.7276451    2.2635546  
N    0.0000000    0.0000000    1.4700000  
C   -1.8902865   -1.5946756    1.9108239  
C   -2.5912627   -2.1969500    2.9375057  
O   -3.6148162   -3.0527051    2.6493466  
C   -2.2603868   -1.9365747    4.2886322  
O   -3.0513550   -2.6123276    5.1947621  
C   -1.2361111   -1.0811317    4.6373480  
H    1.1060808    0.8876438    4.4271209  
H   -2.1597133   -1.8070987    0.8854031  
H   -3.9636755   -3.3565188    3.4974381  
H   -2.7621927   -2.3810384    6.0827341  
H   -1.0058879   -0.9010589    5.6809233  
H    1.6167816    1.3499334    1.8205408  
