62

C    9.7530714   -0.7237659   -2.4288580  
C    8.7600214   -0.0052204   -3.0533667  
C    9.3765408    0.7216024   -4.1146070  
C   10.7586660    0.4038171   -4.0887340  
N   10.9535069   -0.4746815   -3.0519628  
C   11.6755036    0.9418081   -4.9968998  
C   11.1881649    1.8163008   -5.9487097  
O   12.0398037    2.3704394   -6.8601135  
C    9.8125284    2.1459973   -5.9904267  
O    9.4832702    3.0308356   -6.9964059  
C    8.9075203    1.6158442   -5.0946455  
H   11.8336954   -0.8841668   -2.7958930  
H   12.7301652    0.7037353   -4.9823873  
H   11.5023348    2.9420928   -7.4236778  
H    8.5371906    3.2005161   -6.9546172  
H    7.8598186    1.8871583   -5.1511047  
H    9.7002865   -1.3931297   -1.5873566  
C    6.6962559   -0.0006584    0.9128043  
C    7.6449137   -0.0016133   -0.0834455  
C    6.9440364   -0.0023813   -1.3257701  
C    5.5585247   -0.0015568   -1.0219874  
N    5.4432390   -0.0024702    0.3459766  
C    4.5679461   -0.0016854   -2.0086701  
C    4.9836054   -0.0023571   -3.3260176  
O    4.0581873   -0.0021607   -4.3293195  
C    6.3614227   -0.0035603   -3.6491825  
O    6.6142428   -0.0045344   -5.0054365  
C    7.3392016   -0.0037074   -2.6763132  
H    8.7109485   -0.0028460    0.0667588  
H    4.5782209    0.0083751    0.8554932  
H    4.5542211   -0.0030159   -5.1583030  
H    7.5672638   -0.0052861   -5.1371684  
H    6.8142878   -0.0002736    1.9828640  
C    3.1301149   -0.0010311   -1.7028252  
C    2.5367768   -0.0002767   -0.4864665  
C    1.1089904    0.0001028   -0.7656183  
C    1.0177872   -0.0004148   -2.2415132  
N    2.1993578   -0.0011611   -2.7963820  
C   -0.2459209   -0.0002877   -2.9257118  
C   -1.3675319   -0.0000605   -2.1698524  
O   -2.6129313    0.0000867   -2.6748490  
C   -1.3083584    0.0000910   -0.6783232  
O   -2.3693261    0.0004206   -0.0541692  
C    0.0000000    0.0000000    0.0000000  
H    3.0096017   -0.0001007    0.4807525  
H   -0.2829630   -0.0004687   -4.0053125  
H   -3.1967441    0.0002094   -1.8949034  
C    0.0000000    0.0000000    1.4700000  
C    1.0541688    0.0001722    2.3260392  
C    0.5103138    0.0000454    3.6635956  
C   -0.9576371   -0.0002459    3.5155732  
N   -1.2018458    0.0001392    2.1615969  
C   -1.8348311   -0.0008317    4.5510609  
C   -1.2972847   -0.0009736    5.9014604  
O   -2.0050672   -0.0014265    6.9001319  
C    0.2542623   -0.0004184    6.0817573  
O    0.7184670   -0.0002256    7.2139121  
C    1.0974552   -0.0000873    4.8889129  
H    2.0940752    0.0005483    2.0517982  
H   -2.9081052   -0.0011668    4.4207061  
H    2.1707277    0.0000911    5.0223670  
H   -2.1128194   -0.0014912    1.7406791  
