62

C   -3.9681781    0.7212692   -2.0574928  
C   -3.2578657    0.0024038   -2.9908501  
C   -4.2079312   -0.7249070   -3.7673780  
C   -5.4928337   -0.4070758   -3.2575406  
N   -5.3109899    0.4719187   -2.2188306  
C   -6.6702840   -0.9454748   -3.7852959  
C   -6.5484325   -1.8204302   -4.8472676  
O   -7.6659791   -2.3749797   -5.4009617  
C   -5.2751705   -2.1501798   -5.3696517  
O   -5.3203493   -3.0355026   -6.4267734  
C   -4.1131455   -1.6196243   -4.8493302  
H   -6.0450863    0.8815467   -1.6699334  
H   -7.6525968   -0.7073695   -3.4011482  
H   -7.3607867   -2.9469131   -6.1172116  
H   -4.4199147   -3.2051863   -6.7200807  
H   -3.1520870   -1.8909908   -5.2702876  
H   -3.6231050    1.3910304   -1.2885303  
C    0.0000000    0.0000000    0.0000000  
C    1.0521666   -0.0011902   -0.8862342  
C    0.4917215   -0.0011958   -2.1979130  
C   -0.9187431    0.0003147   -2.0478680  
N   -1.1833172   -0.0009412   -0.7007911  
C   -1.7951703    0.0010349   -3.1372087  
C   -1.2375842    0.0005222   -4.4010418  
O   -2.0474221    0.0015357   -5.4997576  
C    0.1673575   -0.0013569   -4.5711960  
O    0.5673518   -0.0020691   -5.8915554  
C    1.0325767   -0.0023415   -3.4969891  
H    2.0953058   -0.0030650   -0.6200564  
H   -2.0989777    0.0102372   -0.2891820  
H   -1.4634890    0.0006494   -6.2693593  
H    1.5290704   -0.0033156   -5.9180047  
C    3.4298594   -0.6918162   -3.0313913  
C    2.4861699   -0.0045385   -3.7159923  
C    3.2229080    0.7397629   -4.7258099  
C    4.6377467    0.3737615   -4.5002915  
N    4.7652609   -0.4651930   -3.5083817  
C    5.6998744    0.9085132   -5.3071437  
C    5.3638174    1.7694527   -6.2946575  
O    6.2517466    2.3444401   -7.1235188  
C    3.9449287    2.1580683   -6.5474282  
O    3.7122683    2.9468082   -7.4633866  
C    2.8734667    1.5959388   -5.7060571  
H    6.7249643    0.6238329   -5.1199072  
H    5.7142336    2.9020884   -7.7145016  
H    1.8586416    1.9024501   -5.9214875  
H    3.2895106   -1.3638483   -2.1997371  
C    1.0965515   -0.0001358    2.2710304  
C    0.0000000    0.0000000    1.4700000  
C   -1.1546562   -0.0001469    2.3369512  
C   -0.6372014   -0.0003519    3.7186280  
N    0.7342871   -0.0007337    3.6095011  
C   -1.4147739   -0.0001353    4.8308716  
C   -2.8576048    0.0001048    4.6554461  
O   -3.6427778    0.0002493    5.5944904  
C   -3.4275839    0.0000726    3.2011665  
O   -4.6406829   -0.0000333    3.0410059  
C   -2.4891866    0.0001091    2.0816745  
H   -1.0150448   -0.0001615    5.8354244  
H   -2.8919121    0.0002919    1.0779135  
H    2.1388271   -0.0000662    1.9961646  
H    1.3735872    0.0006099    4.3830260  
