60

C   -9.1302970    3.2296967   -1.2106574  
C   -7.9956292    2.5235037   -1.5366757  
C   -8.3876830    1.1632430   -1.7115628  
C   -9.7852300    1.0995219   -1.4776250  
N  -10.2040427    2.3711623   -1.1740720  
C  -10.5128919   -0.0912406   -1.5635371  
C   -9.8171143   -1.2385249   -1.8918817  
O  -10.4785864   -2.4284457   -1.9896402  
C   -8.4225130   -1.1952648   -2.1285916  
O   -7.8741005   -2.4210737   -2.4447876  
C   -7.7039669   -0.0209482   -2.0437484  
H   -7.0067867    2.9376163   -1.6351286  
H  -11.1504480    2.6374165   -0.9705862  
H  -11.5781280   -0.1464914   -1.3862759  
H   -9.8157816   -3.0907812   -2.2247258  
H   -6.9301783   -2.3038228   -2.5892378  
H   -9.2583843    4.2776205   -0.9999242  
C   -4.3991018    2.0926374   -0.0704357  
C   -3.3610091    1.6305297   -0.8140045  
C   -3.9159994    0.7341916   -1.8006143  
C   -5.3729686    0.7118419   -1.5692436  
N   -5.6007885    1.5556536   -0.5067139  
C   -6.2559170   -0.0180488   -2.2968188  
C   -5.7365716   -0.8363894   -3.3799320  
O   -6.4507770   -1.5293999   -4.0926369  
C   -4.1968644   -0.8281649   -3.6426855  
O   -3.7479707   -1.5134097   -4.5516379  
C   -3.3460097   -0.0004262   -2.7913647  
H   -2.3247243    1.8880237   -0.6858470  
H   -4.3873336    2.7801298    0.7596880  
H   -6.5015168    1.7527688   -0.1106326  
C    0.0000000    0.0000000    0.0000000  
C    1.0662919   -0.0000103   -0.8334272  
C    0.4961868    0.0000066   -2.1718889  
C   -0.9663860   -0.0000849   -1.9540248  
N   -1.2632775   -0.0000084   -0.6828659  
C   -1.8985364   -0.0000515   -3.0477258  
C   -1.3925778    0.0004567   -4.3020543  
O   -2.1456385    0.0005412   -5.4151314  
C    0.0786229    0.0009326   -4.5544999  
O    0.4683756    0.0012594   -5.7221104  
C    1.0143162    0.0008443   -3.4159034  
H    2.1107195    0.0000631   -0.5721869  
H   -1.5042277    0.0009692   -6.1484420  
H    2.0724151    0.0013151   -3.6409746  
C    0.0000000    0.0000000    1.4700000  
C    1.0541688    0.0001722    2.3260392  
C    0.5103138    0.0000454    3.6635956  
C   -0.9576371   -0.0002459    3.5155732  
N   -1.2018458    0.0001392    2.1615969  
C   -1.8348311   -0.0008317    4.5510609  
C   -1.2972847   -0.0009736    5.9014604  
O   -2.0050672   -0.0014265    6.9001319  
C    0.2542623   -0.0004184    6.0817573  
O    0.7184670   -0.0002256    7.2139121  
C    1.0974552   -0.0000873    4.8889129  
H    2.0940752    0.0005483    2.0517982  
H   -2.9081052   -0.0011668    4.4207061  
H    2.1707277    0.0000911    5.0223670  
H   -2.1128194   -0.0014912    1.7406791  
