62

C    6.9771717   -3.0833235   -7.3437783  
C    7.6848828   -2.9801430   -8.5189235  
C    7.6100155   -1.6168391   -8.9317154  
C    6.8373405   -0.9297911   -7.9607038  
N    6.4673522   -1.8500149   -7.0115391  
C    6.5576756    0.4374395   -8.0458957  
C    7.0675610    1.1236603   -9.1309281  
O    6.8250666    2.4603497   -9.2631073  
C    7.8404108    0.4556842  -10.1103811  
O    8.2760937    1.2768732  -11.1297794  
C    8.1164762   -0.8931606  -10.0271209  
H    8.1917146   -3.7883173   -9.0178916  
H    5.9693006    0.9669065   -7.3092268  
H    7.2647703    2.7384347  -10.0771060  
H    8.7898881    0.7480479  -11.7478102  
H    8.7111964   -1.3775236  -10.7927448  
H    6.7945226   -3.9393741   -6.7170603  
C    5.8883845   -2.0954747   -4.5533061  
C    4.9762279   -1.6321311   -3.6603571  
C    4.1010833   -0.7362693   -4.3789590  
C    4.5815868   -0.7155464   -5.7737627  
N    5.6672530   -1.5597491   -5.8130037  
C    4.0183661    0.0134743   -6.7702647  
C    2.8618710    0.8325283   -6.4474560  
O    2.2840242    1.5248513   -7.2751528  
C    2.3361184    0.8260250   -4.9766244  
O    1.3633190    1.5118827   -4.6928611  
C    3.0267438   -0.0008951   -3.9901699  
H    4.9226753   -1.8885071   -2.6172761  
H    4.3863446    0.0144155   -7.7868769  
H    6.7036722   -2.7830650   -4.3970513  
C    3.3003547    0.0005277   -1.4738986  
C    2.5232816    0.0003497   -2.6090746  
C    1.1623203   -0.0001319   -2.1820102  
C    1.1711884    0.0000584   -0.7636141  
N    2.4852301   -0.0014919   -0.3662359  
C    0.0000000    0.0000000    0.0000000  
C   -1.2020383    0.0000520   -0.6806479  
O   -2.3759248    0.0003493    0.0157745  
C   -1.2314655   -0.0005115   -2.0955511  
O   -2.5054388   -0.0008040   -2.6250184  
C   -0.0764513   -0.0007274   -2.8495195  
H    2.8036266    0.0088183    0.5858662  
H   -3.0835639    0.0000346   -0.6418822  
H   -2.4360043   -0.0011529   -3.5845924  
H   -0.1304091   -0.0013423   -3.9319089  
H    4.3715553    0.0004897   -1.3667133  
C    0.0000000    0.0000000    1.4700000  
C    1.0541688    0.0001722    2.3260392  
C    0.5103138    0.0000454    3.6635956  
C   -0.9576371   -0.0002459    3.5155732  
N   -1.2018458    0.0001392    2.1615969  
C   -1.8348311   -0.0008317    4.5510609  
C   -1.2972847   -0.0009736    5.9014604  
O   -2.0050672   -0.0014265    6.9001319  
C    0.2542623   -0.0004184    6.0817573  
O    0.7184670   -0.0002256    7.2139121  
C    1.0974552   -0.0000873    4.8889129  
H    2.0940752    0.0005483    2.0517982  
H   -2.9081052   -0.0011668    4.4207061  
H    2.1707277    0.0000911    5.0223670  
H   -2.1128194   -0.0014912    1.7406791  
