60

C    5.9318902   -0.0049600   -4.5792080  
C    6.2306447   -0.0039646   -3.2363710  
C    7.6527794   -0.0050166   -3.1262271  
C    8.1724508   -0.0063676   -4.4460256  
N    7.1007076   -0.0082472   -5.3039177  
C    9.5437048   -0.0073474   -4.7188833  
C   10.4060626   -0.0066494   -3.6397556  
O   11.7548125   -0.0072006   -3.8492466  
C    9.9067726   -0.0056768   -2.3155484  
O   10.8921642   -0.0054932   -1.3499676  
C    8.5541215   -0.0049830   -2.0456220  
H    5.5119725   -0.0037480   -2.4348075  
H    7.1595455    0.0010527   -6.3061315  
H    9.9461441   -0.0085228   -5.7224986  
H   12.1668455   -0.0068555   -2.9754654  
H   10.4705817   -0.0047937   -0.4851721  
H    8.2013568   -0.0044255   -1.0209103  
C    1.6707638   -0.0012342   -3.2725973  
C    3.0236195   -0.0024589   -3.2357220  
C    3.4368541   -0.0041813   -4.6306182  
C    2.1706897   -0.0038456   -5.3944318  
N    1.1320377   -0.0020397   -4.6037428  
C    2.1489273   -0.0051901   -6.8313075  
C    3.3380093   -0.0064081   -7.4758349  
O    3.4666353   -0.0077441   -8.8135550  
C    4.6328556   -0.0064066   -6.7331814  
O    5.6771196   -0.0076792   -7.3848958  
C    4.6287471   -0.0050570   -5.2594422  
H    3.6622535   -0.0021323   -2.3689915  
H    1.2090109   -0.0051148   -7.3637242  
H    4.4282069   -0.0083570   -8.9701841  
C    1.0965515    0.0001359   -0.8010305  
C    0.0000000    0.0000000    0.0000000  
C   -1.1546564    0.0001470   -0.8669509  
C   -0.6372018    0.0003521   -2.2486279  
N    0.7342868    0.0007339   -2.1395011  
C   -1.4147743    0.0001355   -3.3608714  
C   -2.8576049   -0.0001046   -3.1854455  
O   -3.6427782   -0.0002491   -4.1244898  
C   -3.4275842   -0.0000725   -1.7311664  
O   -4.6406831    0.0000334   -1.5710053  
C   -2.4891868   -0.0001091   -0.6116742  
H   -1.0150456    0.0001619   -4.3654242  
H   -2.8919123   -0.0002920    0.3920869  
H    2.1388270    0.0000663   -0.5261648  
C    0.0000000    0.0000000    1.4700000  
C    1.0541688    0.0001722    2.3260392  
C    0.5103138    0.0000454    3.6635956  
C   -0.9576371   -0.0002459    3.5155732  
N   -1.2018458    0.0001392    2.1615969  
C   -1.8348311   -0.0008317    4.5510609  
C   -1.2972847   -0.0009736    5.9014604  
O   -2.0050672   -0.0014265    6.9001319  
C    0.2542623   -0.0004184    6.0817573  
O    0.7184670   -0.0002256    7.2139121  
C    1.0974552   -0.0000873    4.8889129  
H    2.0940752    0.0005483    2.0517982  
H   -2.9081052   -0.0011668    4.4207061  
H    2.1707277    0.0000911    5.0223670  
H   -2.1128194   -0.0014912    1.7406791  
