64

C    6.8600629   -0.0197965   -4.3638982  
C    7.8581779   -0.6956837   -3.7010171  
C    9.0897354   -0.3353554   -4.3239363  
C    8.7777936    0.5710952   -5.3693863  
N    7.4153326    0.7393535   -5.3672504  
C    9.7529475    1.1347046   -6.1977633  
C   11.0669710    0.7769720   -5.9663576  
O   12.0591512    1.2980679   -6.7454924  
C   11.3981121   -0.1262070   -4.9283646  
O   12.7496960   -0.3829110   -4.8250712  
C   10.4365929   -0.6828184   -4.1109368  
H    7.7159866   -1.3668188   -2.8713466  
H    6.9032123    1.3354912   -5.9920173  
H    9.5217011    1.8260505   -6.9963676  
H   12.8876353    0.9229150   -6.4197027  
H   12.8873839   -1.0011704   -4.1009157  
H   10.7204638   -1.3718586   -3.3240957  
C    4.2912319   -2.1143354   -1.4466313  
C    5.3462901   -1.6515581   -2.1654949  
C    4.8141498   -0.7557121   -3.1650555  
C    3.3521066   -0.7343360   -2.9681713  
N    3.0997457   -1.5788210   -1.9117389  
C    2.4861704   -0.0045255   -3.7159919  
C    3.0304433    0.8144033   -4.7863457  
O    2.3328588    1.5073002   -5.5154347  
C    4.5758858    0.8068259   -5.0129662  
O    5.0456360    1.4920993   -5.9112952  
C    5.4069285   -0.0204572   -4.1418623  
H    6.3794019   -1.9085788   -2.0130684  
H    4.2838590   -2.8017038   -0.6163538  
H    2.1903278   -1.7742810   -1.5351739  
C    0.0000000    0.0000000    0.0000000  
C    1.0521669   -0.0011848   -0.8862341  
C    0.4917221   -0.0011931   -2.1979130  
C   -0.9187427    0.0003100   -2.0478683  
N   -1.1833170   -0.0009472   -0.7007915  
C   -1.7951698    0.0010259   -3.1372090  
C   -1.2375835    0.0005161   -4.4010425  
O   -2.0474208    0.0015256   -5.4997580  
C    0.1673584   -0.0013557   -4.5711962  
O    0.5673529   -0.0020659   -5.8915551  
C    1.0325773   -0.0023359   -3.4969890  
H    2.0953059   -0.0030542   -0.6200560  
H   -2.0989777    0.0102265   -0.2891825  
H   -2.8710930    0.0020274   -3.0295514  
H   -1.4634881    0.0006427   -6.2693593  
H    1.5290715   -0.0033076   -5.9180042  
C    0.0000000    0.0000000    1.4700000  
C    1.0521667    0.0011902    2.3562342  
C    0.4917218    0.0011957    3.6679131  
C   -0.9187428   -0.0003148    3.5178682  
N   -1.1833171    0.0009411    2.1707914  
C   -1.7951701   -0.0010350    4.6072090  
C   -1.2375837   -0.0005224    5.8710424  
O   -2.0474215   -0.0015360    6.9697579  
C    0.1673580    0.0013566    6.0411963  
O    0.5673524    0.0020687    7.3615553  
C    1.0325770    0.0023412    4.9669890  
H    2.0953057    0.0030649    2.0900562  
H   -2.0989778   -0.0102372    1.7591824  
H   -2.8710934   -0.0020419    4.4995513  
H   -1.4634884   -0.0006497    7.7393593  
H    1.5290710    0.0033153    7.3880045  
H    2.1042148    0.0039609    5.1284455  
