64

C    6.0620527   -1.9395598   -4.8515881  
C    7.1252068   -2.7714178   -4.5866660  
C    7.9861621   -2.7214545   -5.7228258  
C    7.3916498   -1.8348711   -6.6568766  
N    6.2237937   -1.3794167   -6.0971513  
C    7.9685701   -1.5444504   -7.8968789  
C    9.1676404   -2.1600136   -8.1993497  
O    9.7746424   -1.9116742   -9.3963833  
C    9.7762035   -3.0479682   -7.2806523  
O   10.9673224   -3.5808877   -7.7285103  
C    9.2074879   -3.3351488   -6.0572906  
H    7.2626756   -3.3446704   -3.6858460  
H    5.5914367   -0.7268831   -6.5241238  
H    7.5204358   -0.8697589   -8.6132379  
H   10.5868583   -2.4346540   -9.4043542  
H   11.3118697   -4.1688683   -7.0494156  
H    9.6969318   -4.0195621   -5.3742810  
C    4.6212874   -2.1169896   -2.7781364  
C    4.8855751   -1.6159779   -4.0317739  
C    3.8097324   -0.7409926   -4.3657837  
C    2.9114594   -0.7479356   -3.2680664  
N    3.4333736   -1.5950873   -2.3222559  
C    1.7334695    0.0049281   -3.2500363  
C    1.4574013    0.7791354   -4.3602465  
O    0.3208000    1.5340734   -4.3951777  
C    2.3411261    0.7990192   -5.4654405  
O    1.9261041    1.6191054   -6.4943038  
C    3.5032852    0.0563441   -5.4840272  
H    3.0199242   -1.7930093   -1.4290215  
H    0.3218068    1.9898345   -5.2469674  
H    2.5782329    1.5750925   -7.2002746  
H    4.1606696    0.0916496   -6.3448859  
H    5.1854435   -2.8064344   -2.1736916  
C    1.1319246    0.0015678   -0.8009268  
C    0.7969914    0.0034958   -2.1169401  
C   -0.6453340    0.0035696   -2.1842669  
C   -1.1266832    0.0015410   -0.7896025  
N    0.0000000    0.0000000    0.0000000  
C   -2.4346129    0.0013913   -0.4276292  
C   -3.4350111    0.0031335   -1.4820181  
O   -4.6384614    0.0030875   -1.2583914  
C   -2.9478961    0.0050442   -2.9661074  
O   -3.7809382    0.0062135   -3.8623773  
C   -1.5113825    0.0053055   -3.2312122  
H   -2.7664565    0.0000174    0.6013448  
H   -1.1823533    0.0068381   -4.2614848  
H    2.1104316    0.0009435   -0.3488059  
C    2.5285572    2.1210227    2.9438989  
C    1.9331703    1.6216660    4.0790748  
C    0.8903039    0.7472258    3.6520102  
C    0.8972198    0.7527806    2.2336141  
N    1.9028376    1.5986179    1.8362361  
C    0.0000000    0.0000000    1.4700000  
C   -0.9207814   -0.7726952    2.1506477  
O   -1.8198395   -1.5274828    1.4542253  
C   -0.9436862   -0.7911793    3.5655508  
O   -1.9197945   -1.6098497    4.0950179  
C   -0.0590329   -0.0485852    4.3195194  
H    2.2150357    1.8593692    5.0905303  
H    2.1533708    1.7953814    0.8841339  
H   -2.3621246   -1.9821033    2.1118817  
H   -1.8668290   -1.5649508    5.0545920  
H   -0.1007624   -0.0827977    5.4019087  
H    3.3491200    2.8096064    2.8367138  
