62

C    3.3261220   -3.6258452   -3.8572060  
C    3.0007931   -3.0263969   -5.0518987  
C    3.9416244   -3.4884203   -6.0193544  
C    4.8242088   -4.3752732   -5.3511759  
N    4.4234405   -4.4345531   -4.0395023  
C    5.8813625   -5.0211202   -5.9993244  
C    6.0504507   -4.7673022   -7.3466043  
O    7.0667016   -5.3717435   -8.0284374  
C    5.1804491   -3.8852964   -8.0306947  
O    5.4798915   -3.7361683   -9.3691408  
C    4.1374968   -3.2475950   -7.3918568  
H    4.8551271   -4.9928858   -3.3254351  
H    6.5576226   -5.6980590   -5.4957092  
H    7.0057463   -5.0611892   -8.9411831  
H    4.8456104   -3.1252153   -9.7564744  
H    3.4876243   -2.5772333   -7.9420916  
H    2.8631157   -3.5394110   -2.8891600  
C    1.8886553   -2.0886683   -5.2633582  
C    0.9763563   -1.6271607   -4.3696036  
C    0.1009358   -0.7303187   -5.0866451  
C    0.5814320   -0.7070193   -6.4814111  
N    1.6673581   -1.5508183   -6.5221213  
C    0.0179864    0.0235615   -7.4766414  
C   -1.1387604    0.8416958   -7.1524076  
O   -1.7168214    1.5352814   -7.9788976  
C   -1.6645103    0.8324700   -5.6815891  
O   -2.6375207    1.5175330   -5.3966322  
C   -0.9736297    0.0040464   -4.6965763  
H    0.9228836   -1.8853689   -3.3269711  
H    0.3859637    0.0263862   -8.4932505  
H    2.2136183   -1.7473796   -7.3406635  
C    1.1188642    0.0008222   -0.8003808  
C    0.0000000    0.0000000    0.0000000  
C   -1.1323862    0.0008899   -0.8673528  
C   -0.6382663    0.0019679   -2.1969280  
N    0.7324016    0.0038481   -2.1202242  
C   -1.4770914    0.0027318   -3.3154808  
C   -2.8395473    0.0020945   -3.0876857  
O   -3.7039201    0.0024425   -4.1440349  
C   -3.3517868    0.0013931   -1.7684331  
O   -4.7300497    0.0012366   -1.7073121  
C   -2.5248543    0.0009123   -0.6644817  
H    1.3576314   -0.0056167   -2.9057046  
H   -4.5940032    0.0021826   -3.7685128  
H   -4.9934602    0.0007259   -0.7819913  
H   -2.9462577    0.0005603    0.3339659  
H    2.1619895    0.0009355   -0.5342068  
C    0.8175213    0.6860729    2.3021913  
C    0.0000000    0.0000000    1.4700000  
C   -0.8887526   -0.7456559    2.3478473  
C   -0.4549825   -0.3816753    3.7138435  
N    0.5448156    0.4573574    3.6934124  
C   -1.0945674   -0.9182058    4.8835240  
C   -2.1210866   -1.7789155    4.6970523  
O   -2.8083856   -2.3554314    5.6976972  
C   -2.5824069   -2.1655116    3.3310774  
O   -3.5227682   -2.9541547    3.2362962  
C   -1.9100805   -1.6015804    2.1470656  
H   -0.7567140   -0.6349833    5.8697035  
H   -3.4728268   -2.9124471    5.2533954  
H   -2.2742832   -1.9066565    1.1752040  
H    1.6189533    1.3585343    2.0405121  
