62

C    7.6757194   -1.1232368   -4.2718616  
C    8.9749809   -0.7495398   -4.5262997  
C    8.9615139    0.6528625   -4.7864662  
C    7.6147346    1.0838697   -4.6753641  
N    6.8600629   -0.0197958   -4.3638982  
C    7.2277993    2.4134497   -4.8684640  
C    8.2185204    3.3245828   -5.1790856  
O    7.8960904    4.6359372   -5.3775832  
C    9.5678501    2.9137781   -5.2947014  
O   10.4359300    3.9388064   -5.6095011  
C    9.9502561    1.6022315   -5.1046037  
H    9.8274173   -1.4070684   -4.5256725  
H    6.2030233    2.7483059   -4.7853610  
H    8.7228064    5.0926829   -5.5805306  
H   11.3253325    3.5767757   -5.6686648  
H   10.9914991    1.3172860   -5.1999868  
H    7.2661104   -2.0898418   -4.0334217  
C    4.2912319   -2.1143350   -1.4466315  
C    5.3462901   -1.6515578   -2.1654949  
C    4.8141498   -0.7557117   -3.1650556  
C    3.3521069   -0.7343358   -2.9681712  
N    3.0997459   -1.5788207   -1.9117393  
C    2.4861704   -0.0045255   -3.7159919  
C    3.0304433    0.8144035   -4.7863458  
O    2.3328586    1.5073002   -5.5154346  
C    4.5758853    0.8068262   -5.0129662  
O    5.0456355    1.4921000   -5.9112952  
C    5.4069285   -0.0204567   -4.1418622  
H    6.3794019   -1.9085783   -2.0130682  
H    4.2838594   -2.8017033   -0.6163541  
H    2.1903280   -1.7742810   -1.5351739  
C    0.0000000    0.0000000    0.0000000  
C    1.0521669   -0.0011848   -0.8862341  
C    0.4917221   -0.0011931   -2.1979130  
C   -0.9187427    0.0003100   -2.0478683  
N   -1.1833170   -0.0009472   -0.7007915  
C   -1.7951698    0.0010259   -3.1372090  
C   -1.2375835    0.0005161   -4.4010425  
O   -2.0474208    0.0015256   -5.4997580  
C    0.1673584   -0.0013557   -4.5711962  
O    0.5673529   -0.0020659   -5.8915551  
C    1.0325773   -0.0023359   -3.4969890  
H    2.0953059   -0.0030542   -0.6200560  
H   -2.0989777    0.0102265   -0.2891825  
H   -2.8710930    0.0020274   -3.0295514  
H   -1.4634881    0.0006427   -6.2693593  
H    1.5290715   -0.0033076   -5.9180042  
C    3.3321173   -0.0004715    2.8079335  
C    2.6974184   -0.0000116    4.0032312  
C    1.2800439    0.0002118    3.6752840  
C    1.2395035   -0.0000644    2.1971295  
N    2.4394063   -0.0005460    1.6831036  
C    0.0000000    0.0000000    1.4700000  
C   -1.1468701   -0.0000635    2.1869543  
O   -2.3742202   -0.0000073    1.6395491  
C   -1.1388768   -0.0001607    3.6796354  
O   -2.2206231   -0.0000905    4.2670412  
C    0.1454524   -0.0001816    4.4024240  
H    3.1367986    0.0000651    4.9860947  
H   -2.9844344   -0.0001026    2.3990168  
H    0.1083576   -0.0003682    5.4835595  
H    4.3940039   -0.0007619    2.6198634  
