64

C    9.5423628   -0.6698979   -3.2748856  
C    8.7913859    0.0430120   -4.1805683  
C    9.7052284    0.7808660   -4.9899287  
C   11.0109544    0.4753085   -4.5277190  
N   10.8758487   -0.4068371   -3.4845593  
C   12.1629663    1.0262213   -5.0970642  
C   11.9937864    1.9013031   -6.1524258  
O   13.0848314    2.4677968   -6.7454853  
C   10.6991160    2.2189118   -6.6275776  
O   10.6969211    3.1060350   -7.6841535  
C    9.5621704    1.6760077   -6.0662099  
H   11.6335029   -0.8097802   -2.9634273  
H   13.1609463    0.7975062   -4.7493155  
H   12.7480596    3.0375724   -7.4491929  
H    9.7847542    3.2670360   -7.9442159  
H    8.5837570    1.9382442   -6.4514605  
H    9.2322302   -1.3441084   -2.4950031  
C    5.5764488    0.0083482   -1.0736993  
C    6.7920324    0.0210898   -1.7176408  
C    6.5213447    0.0205731   -3.1181150  
C    5.1110770    0.0074286   -3.2694408  
N    4.5679461   -0.0016854   -2.0086701  
C    4.4845810    0.0036235   -4.5193514  
C    5.2965301    0.0135701   -5.6368565  
O    4.7370945    0.0107593   -6.8818617  
C    6.7056512    0.0263689   -5.5063537  
O    7.3755159    0.0347625   -6.7124026  
C    7.3243921    0.0298564   -4.2736030  
H    7.7553653    0.0285926   -1.2370925  
H    3.4102461   -0.0065222   -4.6414306  
H    5.4703963    0.0186807   -7.5107261  
H    8.3210779    0.0432149   -6.5350766  
H    5.3490393    0.0041782   -0.0214509  
C    3.1301149   -0.0010311   -1.7028252  
C    2.5367768   -0.0002767   -0.4864665  
C    1.1089904    0.0001028   -0.7656183  
C    1.0177872   -0.0004148   -2.2415132  
N    2.1993578   -0.0011611   -2.7963820  
C   -0.2459209   -0.0002877   -2.9257118  
C   -1.3675319   -0.0000605   -2.1698524  
O   -2.6129313    0.0000867   -2.6748490  
C   -1.3083584    0.0000910   -0.6783232  
O   -2.3693261    0.0004206   -0.0541692  
C    0.0000000    0.0000000    0.0000000  
H    3.0096017   -0.0001007    0.4807525  
H   -0.2829630   -0.0004687   -4.0053125  
H   -3.1967441    0.0002094   -1.8949034  
C    0.8576279    0.7185626    2.2703808  
C    0.0000000    0.0000000    1.4700000  
C   -0.8668858   -0.7285659    2.3373528  
C   -0.4876752   -0.4117774    3.6669281  
N    0.5635254    0.4678311    3.5902241  
C   -1.1297612   -0.9515493    4.7854808  
C   -2.1738724   -1.8268314    4.5576857  
O   -2.8357962   -2.3827064    5.6140350  
C   -2.5667212   -2.1555554    3.2384331  
O   -3.6226318   -3.0413663    3.1773122  
C   -1.9335634   -1.6236449    2.1344818  
H    1.0363952    0.8769718    4.3757045  
H   -0.8454472   -0.7142436    5.8013813  
H   -3.5178062   -2.9546422    5.2385129  
H   -3.8247440   -3.2102924    2.2519915  
H   -2.2566033   -1.8942483    1.1360343  
H    1.6567807    1.3889844    2.0042067  
