64

C   -8.6256366    2.6013003   -1.9708035  
C   -9.8335116    2.0373012   -1.6310831  
C   -9.7483646    0.6489844   -1.9471943  
C   -8.4539140    0.4222920   -2.4809868  
N   -7.7990290    1.6288317   -2.4830265  
C   -8.0196018   -0.8381979   -2.9020884  
C   -8.9081106   -1.8890424   -2.7818625  
O   -8.5355009   -3.1410676   -3.1776011  
C  -10.2040975   -1.6827633   -2.2520658  
O  -10.9710323   -2.8282584   -2.1973484  
C  -10.6333275   -0.4394802   -1.8366912  
H  -10.6731278    2.5621842   -1.2085488  
H   -6.8568502    1.7772363   -2.7964860  
H   -9.2928199   -3.7170173   -3.0102246  
H  -11.8299914   -2.6018257   -1.8278608  
H  -11.6318300   -0.3120877   -1.4351423  
H   -8.2888541    3.6205839   -1.8895864  
C   -3.9745997    0.7142314   -1.7986476  
C   -5.3260739    0.4613572   -1.8438008  
C   -5.5426145   -0.4551047   -2.9151590  
C   -4.2757939   -0.7280210   -3.4918819  
N   -3.3460097   -0.0004262   -2.7913647  
C   -4.1094176   -1.5946532   -4.5763429  
C   -5.2424929   -2.1969818   -5.0877318  
O   -5.1370822   -3.0523593   -6.1461412  
C   -6.5152631   -1.9370492   -4.5262085  
O   -7.5453136   -2.6127981   -5.1472581  
C   -6.6801770   -1.0819989   -3.4565265  
H   -6.0650964    0.8861350   -1.1862269  
H   -3.1466552   -1.8067350   -5.0205410  
H   -6.0329559   -3.3562863   -6.3418539  
H   -8.3692960   -2.3818220   -4.7075912  
H   -3.4094885    1.3489378   -1.1377722  
C    0.0000000    0.0000000    0.0000000  
C    1.0662919   -0.0000103   -0.8334272  
C    0.4961868    0.0000066   -2.1718889  
C   -0.9663860   -0.0000849   -1.9540248  
N   -1.2632775   -0.0000084   -0.6828659  
C   -1.8985364   -0.0000515   -3.0477258  
C   -1.3925778    0.0004567   -4.3020543  
O   -2.1456385    0.0005412   -5.4151314  
C    0.0786229    0.0009326   -4.5544999  
O    0.4683756    0.0012594   -5.7221104  
C    1.0143162    0.0008443   -3.4159034  
H    2.1107195    0.0000631   -0.5721869  
H   -1.5042277    0.0009692   -6.1484420  
H    2.0724151    0.0013151   -3.6409746  
C    0.0000000    0.0000000    1.4700000  
C    1.0521667    0.0011902    2.3562342  
C    0.4917218    0.0011957    3.6679131  
C   -0.9187428   -0.0003148    3.5178682  
N   -1.1833171    0.0009411    2.1707914  
C   -1.7951701   -0.0010350    4.6072090  
C   -1.2375837   -0.0005224    5.8710424  
O   -2.0474215   -0.0015360    6.9697579  
C    0.1673580    0.0013566    6.0411963  
O    0.5673524    0.0020687    7.3615553  
C    1.0325770    0.0023412    4.9669890  
H    2.0953057    0.0030649    2.0900562  
H   -2.0989778   -0.0102372    1.7591824  
H   -2.8710934   -0.0020419    4.4995513  
H   -1.4634884   -0.0006497    7.7393593  
H    1.5290710    0.0033153    7.3880045  
H    2.1042148    0.0039609    5.1284455  
