62

C    4.6640010   -0.6232454   -7.4858254  
C    4.0904394    0.6214828   -7.3668848  
C    4.8545814    1.5113164   -8.1786015  
C    5.8901713    0.7462827   -8.7737500  
N    5.7465027   -0.5450254   -8.3304671  
C    6.8375997    1.3003692   -9.6398671  
C    6.7376034    2.6513024   -9.9103450  
O    7.6365123    3.2434274  -10.7496101  
C    5.7116084    3.4314308   -9.3259242  
O    5.7463675    4.7607583   -9.6933816  
C    4.7767686    2.8855327   -8.4711763  
H    6.3320193   -1.3172287   -8.5928662  
H    7.6293952    0.7227371  -10.0965955  
H    7.3896880    4.1760577  -10.8000348  
H    5.0208958    5.2164026   -9.2555657  
H    4.0024232    3.5081910   -8.0385510  
H    4.3874311   -1.5603669   -7.0338620  
C    2.8410616   -0.7209468   -3.3424825  
C    1.6707636   -0.0012343   -3.2725974  
C    1.5557837    0.7262496   -4.4941321  
C    2.6948099    0.4076464   -5.2770987  
N    3.4554131   -0.4719556   -4.5474407  
C    2.9129639    0.9459794   -6.5488675  
C    1.9638377    1.8216618   -7.0392925  
O    2.1270880    2.3761830   -8.2757677  
C    0.8208862    2.1521881   -6.2729831  
O   -0.0311443    3.0381774   -6.8994107  
C    0.6051596    1.6216976   -5.0181650  
H    4.3199272   -0.8821911   -4.8512550  
H    1.3626831    2.9486839   -8.4213476  
H   -0.7762636    3.2083607   -6.3150826  
H   -0.2796645    1.8936672   -4.4546067  
H    3.2868719   -1.3910851   -2.6275510  
C    1.0965514    0.0001358   -0.8010306  
C    0.0000000    0.0000000    0.0000000  
C   -1.1546565    0.0001470   -0.8669508  
C   -0.6372019    0.0003520   -2.2486278  
N    0.7342867    0.0007338   -2.1395012  
C   -1.4147744    0.0001354   -3.3608712  
C   -2.8576052   -0.0001047   -3.1854454  
O   -3.6427785   -0.0002490   -4.1244896  
C   -3.4275841   -0.0000727   -1.7311660  
O   -4.6406832    0.0000333   -1.5710049  
C   -2.4891868   -0.0001090   -0.6116739  
H   -1.0150456    0.0001617   -4.3654239  
H   -2.8919122   -0.0002919    0.3920871  
H    2.1388270    0.0000663   -0.5261650  
C    2.5528530    2.1414826    2.8079335  
C    2.0663498    1.7338582    4.0032312  
C    0.9804344    0.8229586    3.6752840  
C    0.9495562    0.7966882    2.1971295  
N    1.8690446    1.5676019    1.6831036  
C    0.0000000    0.0000000    1.4700000  
C   -0.8785127   -0.7372425    2.1869543  
O   -1.8187535   -1.5261249    1.6395491  
C   -0.8723269   -0.7321790    3.6796354  
O   -1.7010379   -1.4274584    4.2670412  
C    0.1115397    0.0933559    4.4024240  
H    2.4028853    2.0163452    4.9860947  
H   -2.2861435   -1.9184361    2.3990168  
H    0.0832434    0.0693689    5.4835595  
H    3.3664920    2.8238276    2.6198634  
