60

C    2.1552145   -1.8471691   -8.4461110  
C    3.1265850   -2.6665665   -8.9728891  
C    3.0179134   -2.5816974  -10.3926028  
C    1.9537934   -1.6876430  -10.6758720  
N    1.4506645   -1.2615055   -9.4717604  
C    1.5636909   -1.3650381  -11.9791506  
C    2.2607025   -1.9555015  -13.0153475  
O    1.9215979   -1.6752771  -14.3074373  
C    3.3251626   -2.8504159  -12.7529151  
O    3.9198538   -3.3556940  -13.8906241  
C    3.7103765   -3.1693416  -11.4674493  
H    3.8265818   -3.2541285   -8.4038828  
H    0.6943340   -0.6114380   -9.3561863  
H    0.7534301   -0.6844894  -12.2017114  
H    2.5242561   -2.1848723  -14.8645557  
H    4.6278797   -3.9505354  -13.6251678  
H    4.5294515   -3.8583256  -11.2974638  
C    2.4602721   -2.0944455   -5.9392888  
C    1.9124732   -1.6318086   -4.7860506  
C    0.8432456   -0.7354855   -5.1577935  
C    0.8127887   -0.7137217   -6.6327131  
N    1.8180308   -1.5578236   -7.0448664  
C   -0.0596367    0.0159818   -7.3730587  
C   -1.0334823    0.8347249   -6.6703356  
O   -1.8613770    1.5276081   -7.2472273  
C   -1.0192491    0.8271227   -5.1084314  
O   -1.8341905    1.5127102   -4.5058525  
C   -0.0307352   -0.0004646   -4.4215603  
H    2.2221962   -1.8889424   -3.7887702  
H   -0.0651692    0.0176830   -8.4542048  
H    3.2792594   -2.7820942   -6.0745261  
C    3.2573670   -0.0002920   -1.5109380  
C    2.5379468   -0.0001709   -0.3591961  
C    1.1435043    0.0000332   -0.7338500  
C    1.1092609   -0.0000082   -2.2088477  
N    2.4227562    0.0001909   -2.6182613  
C   -0.0265532   -0.0002522   -2.9515663  
C   -1.3003035   -0.0002639   -2.2514981  
O   -2.3786784   -0.0004131   -2.8306429  
C   -1.2877725    0.0000312   -0.6895608  
O   -2.3539958    0.0003307   -0.0892036  
C    0.0000000    0.0000000    0.0000000  
H    2.9384091   -0.0000369    0.6389239  
H    4.3270394   -0.0004765   -1.6439446  
H    2.7280494   -0.0013406   -3.5742113  
C    0.8175213    0.6860729    2.3021913  
C    0.0000000    0.0000000    1.4700000  
C   -0.8887526   -0.7456559    2.3478473  
C   -0.4549825   -0.3816753    3.7138435  
N    0.5448156    0.4573574    3.6934124  
C   -1.0945674   -0.9182058    4.8835240  
C   -2.1210866   -1.7789155    4.6970523  
O   -2.8083856   -2.3554314    5.6976972  
C   -2.5824069   -2.1655116    3.3310774  
O   -3.5227682   -2.9541547    3.2362962  
C   -1.9100805   -1.6015804    2.1470656  
H   -0.7567140   -0.6349833    5.8697035  
H   -3.4728268   -2.9124471    5.2533954  
H   -2.2742832   -1.9066565    1.1752040  
H    1.6189533    1.3585343    2.0405121  
