64

C    0.6827532   -0.7107506   -5.1516732  
C    0.3353062   -0.4609401   -6.4590914  
C   -0.7638013    0.4477949   -6.4314647  
C   -1.0451347    0.7193736   -5.0680048  
N   -0.1496419   -0.0015610   -4.3176963  
C   -2.0711959    1.5789712   -4.6641738  
C   -2.8268260    2.1755111   -5.6548010  
O   -3.8410211    3.0239065   -5.3162069  
C   -2.5617280    1.9168005   -7.0206736  
O   -3.4017735    2.5862257   -7.8864319  
C   -1.5498284    1.0686877   -7.4197853  
H    0.8143256   -0.8827542   -7.3260446  
H   -2.2907868    1.7899961   -3.6266529  
H   -4.2338967    3.3246751   -6.1459378  
H   -3.1554898    2.3565578   -8.7876542  
H    1.4575545   -1.3398104   -4.7480328  
C    3.3003539    0.0005280   -1.4738993  
C    2.5232814    0.0003499   -2.6090749  
C    1.1623199   -0.0001318   -2.1820107  
C    1.1711883    0.0000584   -0.7636139  
N    2.4852299   -0.0014918   -0.3662363  
C    0.0000000    0.0000000    0.0000000  
C   -1.2020386    0.0000521   -0.6806478  
O   -2.3759249    0.0003494    0.0157743  
C   -1.2314659   -0.0005113   -2.0955513  
O   -2.5054393   -0.0008036   -2.6250183  
C   -0.0764519   -0.0007271   -2.8495194  
H    2.8919952   -0.0005617   -3.6205307  
H    2.8036268    0.0088183    0.5858658  
H   -3.0835640    0.0000347   -0.6418814  
H   -2.4360050   -0.0011527   -3.5845922  
H    4.3715552    0.0004897   -1.3667139  
C   -0.4984681   -2.6234169   -9.7116551  
C   -0.8134407   -1.7341481   -8.7104246  
C   -0.9846449   -0.4584877   -9.3252255  
C   -0.7599480   -0.6326754  -10.7148641  
N   -0.4651984   -1.9584512  -10.9150089  
C   -0.8452601    0.4188157  -11.6324031  
C   -1.1634928    1.6688621  -11.1381445  
O   -1.2602034    2.7307523  -11.9902297  
C   -1.3908860    1.8627365   -9.7548432  
O   -1.6976085    3.1652638   -9.4191539  
C   -1.3066280    0.8259248   -8.8490575  
H   -0.9070803   -1.9750230   -7.6653391  
H   -0.2694166   -2.3816391  -11.8041450  
H   -0.6750114    0.2926384  -12.6927306  
H   -1.4876688    3.4967051  -11.4472384  
H   -1.8361642    3.2096853   -8.4681367  
H   -0.2935087   -3.6791284   -9.6624219  
C    2.4951002    2.0940188    2.9809380  
C    1.9440701    1.6314916    1.8291961  
C    0.8759964    0.7350050    2.2038498  
C    0.8497377    0.7130254    3.6788474  
N    1.8560616    1.5571714    4.0882609  
C   -0.0205033   -0.0168748    4.4215661  
C   -0.9962600   -0.8356168    3.7214979  
O   -1.8224391   -1.5286685    4.3006425  
C   -0.9864710   -0.8277881    2.1595606  
O   -1.8030528   -1.5133726    1.5592035  
C    0.0000000    0.0000000    1.4700000  
H    2.2509283    1.8888011    0.8310761  
H   -0.0229599   -0.0187323    5.5027230  
H    3.3143982    2.7817323    3.1139444  
H    2.0889452    1.7545833    5.0442112  
