62

C    1.8832478   -1.9477862   -8.4618227  
C    2.8553852   -2.7794187   -8.9675929  
C    2.7463768   -2.7311283  -10.3889953  
C    1.6812703   -1.8457506  -10.6949022  
N    1.1779047   -1.3893751   -9.5020228  
C    1.2906022   -1.5571084  -12.0059528  
C    1.9880519   -2.1732433  -13.0267945  
O    1.6484278   -1.9266273  -14.3255822  
C    3.0534957   -3.0600151  -12.7416946  
O    3.6485179   -3.5937051  -13.8661802  
C    3.4392679   -3.3454412  -11.4485441  
H    3.5560972   -3.3514519   -8.3838342  
H    0.4209127   -0.7373455   -9.4030187  
H    0.4795888   -0.8833423  -12.2457437  
H    2.2515235   -2.4497239  -14.8695597  
H    4.3572136   -4.1807977  -13.5856875  
H    4.2590954   -4.0289801  -11.2610979  
C    2.1798966   -2.1221801   -5.9542194  
C    1.5460052   -1.6229249   -7.0683974  
C    0.5185215   -0.7482580   -6.6059748  
C    0.5740703   -0.7535762   -5.1886487  
N    1.5926023   -1.5994968   -4.8258419  
C   -0.2963293   -0.0005341   -4.3948471  
C   -1.2397986    0.7721842   -5.0436536  
O   -2.1143392    1.5272221   -4.3169415  
C   -1.3112052    0.7904346   -6.4569424  
O   -2.3047783    1.6091616   -6.9527679  
C   -0.4530326    0.0475825   -7.2406751  
H    1.8756083   -1.7961379   -3.8828567  
H   -2.6787918    1.9818131   -4.9556944  
H   -2.2847547    1.5640939   -7.9135863  
H   -0.5318484    0.0816199   -8.3210024  
H    3.0035538   -2.8108680   -5.8751160  
C    3.1301146   -0.0010313   -1.7028256  
C    2.5367765   -0.0002766   -0.4864669  
C    1.1089901    0.0001027   -0.7656184  
C    1.0177865   -0.0004150   -2.2415133  
N    2.1993571   -0.0011612   -2.7963824  
C   -0.2459219   -0.0002879   -2.9257116  
C   -1.3675326   -0.0000606   -2.1698520  
O   -2.6129318    0.0000865   -2.6748483  
C   -1.3083588    0.0000910   -0.6783229  
O   -2.3693264    0.0004206   -0.0541685  
C    0.0000000    0.0000000    0.0000000  
H    3.0096016   -0.0001007    0.4807518  
H   -3.1967444    0.0002093   -1.8949026  
H    4.1849275   -0.0015114   -1.9271979  
C    0.0000000    0.0000000    1.4700000  
C    1.0662921    0.0000102    2.3034270  
C    0.4961870   -0.0000064    3.6418889  
C   -0.9663858    0.0000850    3.4240247  
N   -1.2632773    0.0000084    2.1528658  
C   -1.8985362    0.0000517    4.5177257  
C   -1.3925775   -0.0004564    5.7720543  
O   -2.1456383   -0.0005410    6.8851312  
C    0.0786232   -0.0009323    6.0245000  
O    0.4683759   -0.0012588    7.1921102  
C    1.0143166   -0.0008442    4.8859032  
H    2.1107198   -0.0000632    2.0421868  
H   -2.9622183    0.0003270    4.3293377  
H   -1.5042274   -0.0009692    7.6184419  
H    2.0724152   -0.0013148    5.1109744  
