62

C    1.6674536   -2.3692146   -7.8118619  
C    1.2378930   -1.0660618   -7.7131804  
C    1.5491608   -0.4301599   -8.9514614  
C    2.1727289   -1.4031902   -9.7738372  
N    2.2305223   -2.5686272   -9.0506257  
C    2.6146833   -1.1260802  -11.0710164  
C    2.4233950    0.1565839  -11.5467886  
O    2.8356896    0.4812420  -12.8067993  
C    1.8035533    1.1413345  -10.7412588  
O    1.6856305    2.3700215  -11.3575114  
C    1.3675505    0.8687384   -9.4613686  
H    2.6118073   -3.4372933   -9.3792938  
H    3.0907920   -1.8632149  -11.7028048  
H    2.6102444    1.4116102  -12.9366226  
H    1.2571645    2.9769797  -10.7462644  
H    0.8963784    1.6435307   -8.8679287  
H    1.6180316   -3.1718355   -7.0960995  
C    0.9246159   -0.7181116   -5.2309988  
C    0.0950446    0.0004351   -4.4015596  
C   -0.8009655    0.7292742   -5.2385542  
C   -0.4676171    0.4126608   -6.5804038  
N    0.5854650   -0.4671106   -6.5399388  
C   -1.1476016    0.9527170   -7.6761905  
C   -2.1831577    1.8281085   -7.4125793  
O   -2.8808328    2.3842600   -8.4455167  
C   -2.5304884    2.1566611   -6.0805765  
O   -3.5835509    3.0426118   -5.9831350  
C   -1.8599263    1.6244698   -4.9990749  
H   -0.8983262    0.7155460   -8.7012823  
H   -3.5494798    2.9562284   -8.0467324  
H   -3.7537892    3.2114070   -5.0514001  
H   -2.1484987    1.8949471   -3.9900921  
H    1.7323267   -1.3886934   -4.9924970  
C    3.3321173    0.0004713   -1.3379338  
C    2.6974181    0.0000116   -2.5332314  
C    1.2800438   -0.0002119   -2.2052841  
C    1.2395034    0.0000643   -0.7271299  
N    2.4394062    0.0005460   -0.2131038  
C    0.0000000    0.0000000    0.0000000  
C   -1.1468702    0.0000634   -0.7169543  
O   -2.3742203    0.0000074   -0.1695487  
C   -1.1388770    0.0001607   -2.2096355  
O   -2.2206234    0.0000905   -2.7970411  
C    0.1454522    0.0001815   -2.9324241  
H    3.1367984   -0.0000653   -3.5160950  
H   -2.9844346    0.0001026   -0.9290167  
H    4.3940038    0.0007618   -1.1498640  
C    2.5128556    2.1077716    2.9199648  
C    1.9592212    1.6432552    4.0696553  
C    0.8915788    0.7479214    3.6910360  
C    0.8684491    0.7287414    2.2159470  
N    1.8754542    1.5738793    1.8102719  
C    0.0000000    0.0000000    1.4700000  
C   -0.9772830   -0.8200135    2.1664417  
O   -1.8021297   -1.5120829    1.5842315  
C   -0.9711318   -0.8147624    3.7284083  
O   -1.7894187   -1.5009653    4.3257297  
C    0.0140216    0.0115358    4.4216297  
H    2.2638494    1.8988021    5.0689105  
H    0.0117648    0.0094386    5.5031631  
H    3.3327358    2.7953732    2.7900019  
H    2.1123206    1.7707734    0.8551938  
