62

C   -6.3595656    1.1123830   -1.1903153  
C   -6.2449715    1.9965747   -0.1426798  
C   -7.5656211    2.2553632    0.3300924  
C   -8.4522001    1.4945121   -0.4742765  
N   -7.6872803    0.8137352   -1.3886387  
C   -9.8381724    1.5053942   -0.2905623  
C  -10.3382341    2.2985691    0.7238288  
O  -11.6839396    2.3460283    0.9470743  
C   -9.4697705    3.0651895    1.5367743  
O  -10.1206710    3.8036005    2.5034277  
C   -8.1023931    3.0551484    1.3559305  
H   -5.3230260    2.4056651    0.2336903  
H   -8.0401757    0.1835209   -2.0859732  
H  -10.5192797    0.9278964   -0.9003092  
H  -11.8164947    2.9504709    1.6889257  
H   -9.4626131    4.2915356    3.0078903  
H   -7.4623387    3.6529890    1.9942051  
C   -3.9842744    0.7276678   -1.9452930  
C   -5.3215471    0.5113829   -2.0401486  
C   -5.5219107   -0.4154377   -3.1290444  
C   -4.1821414   -0.7236131   -3.6646156  
N   -3.2941076    0.0012878   -2.9038237  
C   -3.9439111   -1.5640382   -4.7031903  
C   -5.0830926   -2.2078650   -5.3358733  
O   -4.9725183   -2.9811916   -6.2782324  
C   -6.5111093   -1.8958666   -4.7852100  
O   -7.4778755   -2.4317670   -5.3100289  
C   -6.6412645   -0.9729340   -3.6604400  
H   -2.9532724   -1.7765350   -5.0805358  
H   -7.6334405   -0.7623668   -3.2849773  
H   -3.4449081    1.3567584   -1.2559324  
C    0.0000000    0.0000000    0.0000000  
C    1.0541688   -0.0001723   -0.8560392  
C    0.5103136   -0.0000455   -2.1935956  
C   -0.9576373    0.0002461   -2.0455730  
N   -1.2018460   -0.0001389   -0.6915968  
C   -1.8348314    0.0008319   -3.0810607  
C   -1.2972851    0.0009739   -4.4314603  
O   -2.0050676    0.0014268   -5.4301316  
C    0.2542619    0.0004184   -4.6117572  
O    0.7184666    0.0002257   -5.7439122  
C    1.0974551    0.0000873   -3.4189129  
H    2.0940752   -0.0005484   -0.5817983  
H    2.1707276   -0.0000912   -3.5523673  
H   -2.1128194    0.0014915   -0.2706789  
C    3.3003543   -0.0005276    2.9438989  
C    2.5232812   -0.0003497    4.0790748  
C    1.1623199    0.0001319    3.6520102  
C    1.1711883   -0.0000583    2.2336141  
N    2.4852299    0.0014920    1.8362361  
C    0.0000000    0.0000000    1.4700000  
C   -1.2020384   -0.0000520    2.1506477  
O   -2.3759250   -0.0003494    1.4542253  
C   -1.2314658    0.0005113    3.5655508  
O   -2.5054393    0.0008037    4.0950179  
C   -0.0764518    0.0007272    4.3195194  
H    2.8919952    0.0005619    5.0905303  
H    2.8036267   -0.0088181    0.8841339  
H   -3.0835639   -0.0000348    2.1118817  
H   -2.4360050    0.0011527    5.0545920  
H   -0.1304098    0.0013421    5.4019087  
H    4.3715549   -0.0004895    2.8367138  
