64

C   -9.1002596    3.1144671   -2.0045724  
C  -10.2176894    2.3149332   -2.0721162  
C   -9.7652084    0.9886401   -2.3382131  
C   -8.3502917    1.0407799   -2.4231680  
N   -7.9794811    2.3465015   -2.2177207  
C   -7.5657081   -0.0885040   -2.6760230  
C   -8.2214005   -1.2924066   -2.8459151  
O   -7.5037761   -2.4264664   -3.0947883  
C   -9.6324585   -1.3646084   -2.7651583  
O  -10.1359481   -2.6346190   -2.9572905  
C  -10.4071216   -0.2509001   -2.5160093  
H  -11.2340038    2.6470006   -1.9462934  
H   -7.0351178    2.6872317   -2.2097552  
H   -8.1461622   -3.1430129   -3.1794353  
H  -11.0946486   -2.5956121   -2.8867571  
H  -11.4859697   -0.3370513   -2.4599459  
H   -9.0141442    4.1720315   -1.8226391  
C   -4.4706944    2.1246862   -0.3281859  
C   -5.6599778    1.6264299   -0.8075742  
C   -5.3396889    0.7516500   -1.8877480  
C   -3.9276472    0.7558729   -2.0220872  
N   -3.4313258    1.6012781   -1.0610605  
C   -3.2578655    0.0024282   -2.9908505  
C   -4.0275333   -0.7695740   -3.8392615  
O   -3.4247947   -1.5249624   -4.8031638  
C   -5.4377033   -0.7867288   -3.7211790  
O   -6.0624936   -1.6048448   -4.6396926  
C   -6.0991482   -0.0434787   -2.7658800  
H   -6.6381202    1.8650658   -0.4264137  
H   -2.4588260    1.7971332   -0.9065740  
H   -4.1336020   -1.9789343   -5.2772601  
H   -7.0119839   -1.5590485   -4.4914533  
H   -4.2816969    2.8131210    0.4776036  
C    0.0000000    0.0000000    0.0000000  
C    1.0521666   -0.0011982   -0.8862343  
C    0.4917215   -0.0011996   -2.1979132  
C   -0.9187429    0.0003215   -2.0478682  
N   -1.1833171   -0.0009323   -0.7007913  
C   -1.7951703    0.0010483   -3.1372089  
C   -1.2375841    0.0005313   -4.4010422  
O   -2.0474218    0.0015510   -5.4997578  
C    0.1673576   -0.0013585   -4.5711963  
O    0.5673520   -0.0020735   -5.8915554  
C    1.0325768   -0.0023493   -3.4969892  
H    2.0953056   -0.0030808   -0.6200564  
H   -2.0989778    0.0102529   -0.2891822  
H   -1.4634888    0.0006601   -6.2693595  
H    1.5290707   -0.0033271   -5.9180047  
H    2.1042146   -0.0039770   -3.6584456  
C    3.2798086   -0.0005857    2.9199648  
C    2.5571146   -0.0005566    4.0696553  
C    1.1637436   -0.0001548    3.6910360  
C    1.1336965    0.0000200    2.2159470  
N    2.4483514    0.0001428    1.8102719  
C    0.0000000    0.0000000    1.4700000  
C   -1.2757367    0.0000186    2.1664417  
O   -2.3524596    0.0000640    1.5842315  
C   -1.2676493    0.0000873    3.7284083  
O   -2.3355761    0.0004100    4.3257297  
C    0.0181563   -0.0001760    4.4216297  
H    2.9547357   -0.0006076    5.0689105  
H    0.0150794   -0.0003319    5.5031631  
H    4.3498549   -0.0008612    2.7900019  
H    2.7563627   -0.0012824    0.8551938  
