60

C    5.5764312    0.0162910   -1.0737990  
C    6.7919958    0.0263692   -1.7178235  
C    6.5213119    0.0157775   -3.1182583  
C    5.1110655   -0.0004850   -3.2694781  
N    4.5679461   -0.0016852   -2.0086700  
C    4.4845782   -0.0138475   -4.5193276  
C    5.2965137   -0.0104295   -5.6368819  
O    4.7370851   -0.0226656   -6.8818327  
C    6.7056139    0.0053416   -5.5064817  
O    7.3754679    0.0063860   -6.7125655  
C    7.3243470    0.0182566   -4.2737895  
H    7.7553163    0.0386081   -1.2373465  
H    3.4102598   -0.0264157   -4.6413244  
H    5.4703764   -0.0180120   -7.5107429  
H    8.3210162    0.0174528   -6.5353096  
H    8.4058491    0.0300186   -4.2052793  
H    5.3490261    0.0190576   -0.0215454  
C    3.1301152   -0.0010311   -1.7028251  
C    2.5367770   -0.0002766   -0.4864665  
C    1.1089905    0.0001028   -0.7656183  
C    1.0177873   -0.0004148   -2.2415130  
N    2.1993580   -0.0011610   -2.7963820  
C   -0.2459208   -0.0002877   -2.9257119  
C   -1.3675318   -0.0000605   -2.1698523  
O   -2.6129310    0.0000866   -2.6748492  
C   -1.3083584    0.0000911   -0.6783232  
O   -2.3693259    0.0004206   -0.0541692  
C    0.0000000    0.0000000    0.0000000  
H    3.0096019   -0.0001007    0.4807529  
H   -3.1967440    0.0002093   -1.8949035  
C   -0.2963281   -0.0005339   -4.3948471  
C    0.7278665   -0.0010064   -5.2865314  
C    0.1384656   -0.0010227   -6.6046519  
C   -1.3235462   -0.0004881   -6.4063793  
N   -1.5211825   -0.0006101   -5.0448252  
C   -2.2357319    0.0000548   -7.4111785  
C   -1.7448078   -0.0001095   -8.7792167  
O   -2.4864189    0.0002815   -9.7530306  
C   -0.2003558   -0.0009258   -9.0126111  
O    0.2247535   -0.0013773  -10.1600176  
C    0.6832446   -0.0011826   -7.8493818  
H    1.7765651   -0.0014913   -5.0481107  
H   -3.3039046    0.0005714   -7.2440975  
H    1.7513098   -0.0015430   -8.0195609  
H   -2.4171865    0.0012263   -4.5929176  
C    2.5528530    2.1414826    2.8079335  
C    2.0663498    1.7338582    4.0032312  
C    0.9804344    0.8229586    3.6752840  
C    0.9495562    0.7966882    2.1971295  
N    1.8690446    1.5676019    1.6831036  
C    0.0000000    0.0000000    1.4700000  
C   -0.8785127   -0.7372425    2.1869543  
O   -1.8187535   -1.5261249    1.6395491  
C   -0.8723269   -0.7321790    3.6796354  
O   -1.7010379   -1.4274584    4.2670412  
C    0.1115397    0.0933559    4.4024240  
H    2.4028853    2.0163452    4.9860947  
H   -2.2861435   -1.9184361    2.3990168  
H    0.0832434    0.0693689    5.4835595  
H    3.3664920    2.8238276    2.6198634  
