60

C    2.7830093   -5.4787793   -8.9015126  
C    2.9571690   -5.0108076  -10.1833623  
C    2.6553478   -3.6168703  -10.1623113  
C    2.3005042   -3.2879394   -8.8289635  
N    2.3865956   -4.4416684   -8.0899672  
C    1.9416131   -1.9941028   -8.4391276  
C    1.9412156   -1.0144119   -9.4129772  
O    1.5991577    0.2660807   -9.0868650  
C    2.2918924   -1.3230640  -10.7488581  
O    2.2429309   -0.2391755  -11.6009903  
C    2.6457920   -2.5993025  -11.1342107  
H    3.2629482   -5.6016914  -11.0297358  
H    2.2027116   -4.5155172   -7.1057346  
H    1.6631394    0.7816449   -9.9013366  
H    2.4935365   -0.5333870  -12.4820353  
H    2.9093958   -2.8055920  -12.1649559  
H    2.9088107   -6.4705905   -8.5022110  
C    2.1650264   -2.1089225   -5.9297635  
C    1.5723604   -1.6445161   -7.0598730  
C    0.5184570   -0.7489598   -6.6450207  
C    0.5459257   -0.7295295   -5.1700098  
N    1.5661287   -1.5747495   -4.7989582  
C   -0.2963293   -0.0005341   -4.3948471  
C   -1.2968019    0.8195084   -5.0575088  
O   -2.1010999    1.5117980   -4.4474755  
C   -1.3442161    0.8139948   -6.6187671  
O   -2.1824061    1.5002194   -7.1877956  
C   -0.3835315   -0.0125661   -7.3452196  
H   -0.4228732   -0.0106495   -8.4260400  
H    2.9887823   -2.7966239   -5.8278731  
H    1.8355780   -1.7715191   -3.8525303  
C    3.1301146   -0.0010313   -1.7028256  
C    2.5367765   -0.0002766   -0.4864669  
C    1.1089901    0.0001027   -0.7656184  
C    1.0177865   -0.0004150   -2.2415133  
N    2.1993571   -0.0011612   -2.7963824  
C   -0.2459219   -0.0002879   -2.9257116  
C   -1.3675326   -0.0000606   -2.1698520  
O   -2.6129318    0.0000865   -2.6748483  
C   -1.3083588    0.0000910   -0.6783229  
O   -2.3693264    0.0004206   -0.0541685  
C    0.0000000    0.0000000    0.0000000  
H    3.0096016   -0.0001007    0.4807518  
H   -3.1967444    0.0002093   -1.8949026  
H    4.1849275   -0.0015114   -1.9271979  
C    0.0000000    0.0000000    1.4700000  
C    1.0541688    0.0001722    2.3260392  
C    0.5103138    0.0000454    3.6635956  
C   -0.9576371   -0.0002459    3.5155732  
N   -1.2018458    0.0001392    2.1615969  
C   -1.8348311   -0.0008317    4.5510609  
C   -1.2972847   -0.0009736    5.9014604  
O   -2.0050672   -0.0014265    6.9001319  
C    0.2542623   -0.0004184    6.0817573  
O    0.7184670   -0.0002256    7.2139121  
C    1.0974552   -0.0000873    4.8889129  
H    2.0940752    0.0005483    2.0517982  
H   -2.9081052   -0.0011668    4.4207061  
H    2.1707277    0.0000911    5.0223670  
H   -2.1128194   -0.0014912    1.7406791  
