60

C    7.4947795   -5.4946096   -1.4712187  
C    6.5394049   -4.5329743   -1.7057070  
C    7.2306831   -3.3066934   -1.9358581  
C    8.6175406   -3.5841968   -1.8284105  
N    8.7427515   -4.9213243   -1.5437539  
C    9.6002257   -2.6040869   -1.9972378  
C    9.1751544   -1.3205182   -2.2799784  
O   10.0926121   -0.3251489   -2.4546919  
C    7.7958305   -1.0238547   -2.3907658  
O    7.5331950    0.3002098   -2.6757552  
C    6.8258252   -1.9902023   -2.2240697  
H    5.4751296   -4.6951412   -1.7092278  
H    9.6113222   -5.4097668   -1.4213242  
H   10.6588305   -2.8091154   -1.9164883  
H    9.5907943    0.4792802   -2.6399927  
H    6.5798076    0.4155399   -2.7336797  
H    7.3846870   -6.5437795   -1.2565540  
C    4.3939408   -2.1065673   -1.5664979  
C    5.4031210   -1.6413498   -2.3470119  
C    4.8103423   -0.7457937   -3.3121173  
C    3.3627144   -0.7272473   -3.0278283  
N    3.1757285   -1.5729269   -1.9588325  
C    2.4521483    0.0014840   -3.7217481  
C    2.9297306    0.8221548   -4.8221798  
O    2.1884027    1.5142699   -5.5075341  
C    4.4587975    0.8175815   -5.1411450  
O    4.8725560    1.5043408   -6.0654969  
C    5.3421068   -0.0087721   -4.3221483  
H    6.3995022   -0.0062035   -4.5493762  
H    4.4376453   -2.7945223   -0.7378260  
H    2.2909017   -1.7703225   -1.5285258  
C    0.0000000    0.0000000    0.0000000  
C    1.0662923   -0.0000101   -0.8334270  
C    0.4961873    0.0000065   -2.1718887  
C   -0.9663854   -0.0000848   -1.9540250  
N   -1.2632773   -0.0000083   -0.6828660  
C   -1.8985359   -0.0000514   -3.0477261  
C   -1.3925770    0.0004566   -4.3020547  
O   -2.1456378    0.0005414   -5.4151314  
C    0.0786240    0.0009326   -4.5545000  
O    0.4683767    0.0012591   -5.7221100  
C    1.0143171    0.0008444   -3.4159031  
H    2.1107200    0.0000633   -0.5721865  
H   -2.9622181   -0.0003268   -2.8593381  
H   -1.5042265    0.0009697   -6.1484419  
C    3.2573670    0.0002920    2.9809380  
C    2.5379467    0.0001709    1.8291961  
C    1.1435042   -0.0000331    2.2038498  
C    1.1092607    0.0000083    3.6788474  
N    2.4227561   -0.0001909    4.0882609  
C   -0.0265533    0.0002524    4.4215661  
C   -1.3003036    0.0002640    3.7214979  
O   -2.3786784    0.0004133    4.3006425  
C   -1.2877726   -0.0000311    2.1595606  
O   -2.3539958   -0.0003306    1.5592035  
C    0.0000000    0.0000000    1.4700000  
H    2.9384090    0.0000368    0.8310761  
H   -0.0296291    0.0004086    5.5027230  
H    4.3270393    0.0004765    3.1139444  
H    2.7280493    0.0013407    5.0442112  
