62

C   -9.1162058    3.1095154   -1.7933327  
C  -10.2343371    2.3093292   -1.8374955  
C   -9.7867918    0.9833883   -2.1135075  
C   -8.3740169    1.0364049   -2.2283283  
N   -7.9997250    2.3422880   -2.0303571  
C   -7.5942802   -0.0923311   -2.4980583  
C   -8.2526995   -1.2965775   -2.6544302  
O   -7.5398196   -2.4301309   -2.9187657  
C   -9.6616920   -1.3696527   -2.5438943  
O  -10.1683731   -2.6399084   -2.7257379  
C  -10.4315808   -0.2564852   -2.2780839  
H  -11.2479631    2.6407472   -1.6901200  
H   -7.0556078    2.6835841   -2.0422443  
H   -8.1834244   -3.1470389   -2.9900415  
H  -11.1253930   -2.6014999   -2.6349485  
H  -11.5089508   -0.3433025   -2.1992609  
H   -9.0268946    4.1670768   -1.6129308  
C   -4.4516595    2.1220212   -0.2154637  
C   -5.6505107    1.6231922   -0.6697670  
C   -5.3526002    0.7489274   -1.7567400  
C   -3.9437154    0.7540403   -1.9208883  
N   -3.4276993    1.5994574   -0.9703020  
C   -3.2941076    0.0012878   -2.9038237  
C   -4.0810730   -0.7709245   -3.7360201  
O   -3.4983895   -1.5256626   -4.7126798  
C   -5.4884225   -0.7889632   -3.5881685  
O   -6.1319969   -1.6071811   -4.4935277  
C   -6.1299739   -0.0463964   -2.6188736  
H   -6.6205221    1.8611255   -0.2679466  
H   -2.4522687    1.7958517   -0.8363407  
H   -4.2167867   -1.9799191   -5.1718316  
H   -7.0781690   -1.5620006   -4.3252420  
H   -4.2460849    2.8103292    0.5863658  
C    0.0000000    0.0000000    0.0000000  
C    1.0541688   -0.0001723   -0.8560392  
C    0.5103136   -0.0000455   -2.1935956  
C   -0.9576373    0.0002461   -2.0455730  
N   -1.2018460   -0.0001389   -0.6915968  
C   -1.8348314    0.0008319   -3.0810607  
C   -1.2972851    0.0009739   -4.4314603  
O   -2.0050676    0.0014268   -5.4301316  
C    0.2542619    0.0004184   -4.6117572  
O    0.7184666    0.0002257   -5.7439122  
C    1.0974551    0.0000873   -3.4189129  
H    2.0940752   -0.0005484   -0.5817983  
H    2.1707276   -0.0000912   -3.5523673  
H   -2.1128194    0.0014915   -0.2706789  
C    0.0000000    0.0000000    1.4700000  
C    1.0541688    0.0001722    2.3260392  
C    0.5103138    0.0000454    3.6635956  
C   -0.9576371   -0.0002459    3.5155732  
N   -1.2018458    0.0001392    2.1615969  
C   -1.8348311   -0.0008317    4.5510609  
C   -1.2972847   -0.0009736    5.9014604  
O   -2.0050672   -0.0014265    6.9001319  
C    0.2542623   -0.0004184    6.0817573  
O    0.7184670   -0.0002256    7.2139121  
C    1.0974552   -0.0000873    4.8889129  
H    2.0940752    0.0005483    2.0517982  
H   -2.9081052   -0.0011668    4.4207061  
H    2.1707277    0.0000911    5.0223670  
H   -2.1128194   -0.0014912    1.7406791  
