62

C    2.1962520   -3.0746702   -8.9480690  
C    2.3913386   -2.9696252  -10.3057782  
C    2.1620952   -1.6057904  -10.6550656  
C    1.8279223   -0.9203549   -9.4590589  
N    1.8559635   -1.8420074   -8.4420106  
C    1.5373842    0.4468839   -9.4268878  
C    1.5853572    1.1347713  -10.6238369  
O    1.3107882    2.4715468  -10.6494515  
C    1.9164122    0.4684190  -11.8276619  
O    1.9215678    1.2911573  -12.9351002  
C    2.2028862   -0.8804327  -11.8601873  
H    2.6641190   -3.7769288  -10.9636879  
H    1.2818563    0.9751266   -8.5186661  
H    1.3994197    2.7509040  -11.5699777  
H    2.1545161    0.7633668  -13.7050191  
H    2.4530086   -1.3635295  -12.7974896  
H    2.2715194   -3.9316405   -8.3008476  
C    2.2783847   -2.0910255   -5.9524496  
C    1.7853127   -1.6292412   -4.7744386  
C    0.6997749   -0.7327360   -5.0949402  
C    0.6001065   -0.7099363   -6.5667883  
N    1.5849250   -1.5536732   -7.0262771  
C   -0.3061445    0.0202236   -7.2648431  
C   -1.2459586    0.8383997   -6.5165965  
O   -2.1000523    1.5316272   -7.0534947  
C   -1.1584128    0.8296992   -4.9570889  
O   -1.9441938    1.5148019   -4.3164303  
C   -0.1387079    0.0017019   -4.3179684  
H    2.1415246   -1.8870540   -3.7929805  
H   -0.3624283    0.0226852   -8.3445354  
H    3.0901479   -2.7785183   -6.1264735  
C    3.3041273    0.0001178   -1.5420428  
C    2.5845373   -0.0004780   -0.3695851  
C    1.2040007   -0.0000007   -0.7283589  
C    1.1422374    0.0006038   -2.1454372  
N    2.4348641    0.0026111   -2.6077464  
C   -0.0655179    0.0008799   -2.8497918  
C   -1.2321766    0.0002325   -2.1101402  
O   -2.4392814    0.0001148   -2.7472522  
C   -1.1911209   -0.0000007   -0.6955266  
O   -2.4371528   -0.0002320   -0.1032862  
C    0.0000000    0.0000000    0.0000000  
H    3.0031533   -0.0000660    0.6222584  
H    2.7054631   -0.0071097   -3.5745261  
H   -3.1132988   -0.0000648   -2.0551787  
H   -2.3200282   -0.0004072    0.8516409  
H    4.3686625    0.0004073   -1.7024290  
C    2.3971438    2.0127888    3.1728260  
C    1.9431056    1.6308205    1.9564670  
C    0.8496017    0.7127664    2.2356185  
C    0.7794028    0.6545384    3.7115134  
N    1.6840587    1.4146091    4.2663826  
C   -0.1885723   -0.1578550    4.3957118  
C   -1.0476298   -0.8789867    3.6398520  
O   -2.0015663   -1.6796266    4.1448486  
C   -1.0022026   -0.8410666    2.1483229  
O   -1.8147390   -1.5232959    1.5241687  
C    0.0000000    0.0000000    1.4700000  
H    2.3054237    1.9346118    0.9892483  
H   -0.2170646   -0.1815267    5.4753125  
H   -2.4487139   -2.0549881    3.3649027  
H    3.2048689    2.6911772    3.3971983  
