60

C   -3.3846725   -0.0016376   -7.2033945  
C   -4.0704434   -0.0008123   -6.0108403  
C   -5.4606740   -0.0012024   -6.3299927  
C   -5.5629319   -0.0025671   -7.7447250  
N   -4.2840537   -0.0008476   -8.2438089  
C   -6.7903340   -0.0035879   -8.4142560  
C   -7.9353657   -0.0035314   -7.6415471  
O   -9.1601943   -0.0048531   -8.2438817  
C   -7.8538772   -0.0018044   -6.2286875  
O   -9.0824653   -0.0015563   -5.6010600  
C   -6.6433561   -0.0005235   -5.5675046  
H   -3.6236379    0.0010793   -5.0313738  
H   -4.0412060   -0.0118273   -9.2179165  
H   -6.8750288   -0.0044858   -9.4922302  
H   -9.8141466   -0.0042613   -7.5328185  
H   -8.9380837   -0.0003841   -4.6498732  
H   -6.6123683    0.0009697   -4.4842155  
C   -0.0307354   -0.0004645   -4.4215603  
C    1.0331812   -0.0004858   -5.2580174  
C    0.4592707   -0.0007209   -6.5948520  
C   -1.0026764   -0.0009309   -6.3728274  
N   -1.2959504   -0.0007012   -5.1008292  
C   -1.9379345   -0.0011514   -7.4638724  
C   -1.4355466   -0.0007724   -8.7196356  
O   -2.1917708   -0.0009260   -9.8305658  
C    0.0349300   -0.0001820   -8.9762653  
O    0.4213595    0.0000158  -10.1449796  
C    0.9738589   -0.0000096   -7.8403354  
H    2.0783477   -0.0002673   -4.9997493  
H   -1.5524487   -0.0005379  -10.5656984  
H    2.0313129    0.0005370   -8.0684157  
C    3.2573669   -0.0002919   -1.5109381  
C    2.5379467   -0.0001709   -0.3591962  
C    1.1435042    0.0000332   -0.7338501  
C    1.1092607   -0.0000081   -2.2088477  
N    2.4227561    0.0001910   -2.6182614  
C   -0.0265534   -0.0002522   -2.9515663  
C   -1.3003036   -0.0002639   -2.2514981  
O   -2.3786785   -0.0004131   -2.8306428  
C   -1.2877726    0.0000312   -0.6895608  
O   -2.3539957    0.0003306   -0.0892035  
C    0.0000000    0.0000000    0.0000000  
H    2.9384091   -0.0000368    0.6389238  
H    4.3270391   -0.0004764   -1.6439447  
H    2.7280492   -0.0013405   -3.5742114  
C    2.5528530    2.1414826    2.8079335  
C    2.0663498    1.7338582    4.0032312  
C    0.9804344    0.8229586    3.6752840  
C    0.9495562    0.7966882    2.1971295  
N    1.8690446    1.5676019    1.6831036  
C    0.0000000    0.0000000    1.4700000  
C   -0.8785127   -0.7372425    2.1869543  
O   -1.8187535   -1.5261249    1.6395491  
C   -0.8723269   -0.7321790    3.6796354  
O   -1.7010379   -1.4274584    4.2670412  
C    0.1115397    0.0933559    4.4024240  
H    2.4028853    2.0163452    4.9860947  
H   -2.2861435   -1.9184361    2.3990168  
H    0.0832434    0.0693689    5.4835595  
H    3.3664920    2.8238276    2.6198634  
