62

C    3.3809361   -0.7075743   -6.0819563  
C    4.7322574   -0.4571579   -6.0212052  
C    5.0353846    0.4508928   -7.0786350  
C    3.8190948    0.7214492   -7.7563999  
N    2.8349221    0.0005892   -7.1268112  
C    3.7414579    1.5801721   -8.8570161  
C    4.9129487    2.1768724   -9.2809720  
O    4.8939849    3.0244410  -10.3506821  
C    6.1364074    1.9191756   -8.6179796  
O    7.2140886    2.5886320   -9.1599897  
C    6.2137874    1.0719263   -7.5322968  
H    5.4156610   -0.8781399   -5.3037606  
H    2.8175779    1.7904159   -9.3780202  
H    5.8032501    3.3254892  -10.4766647  
H    7.9999495    2.3596764   -8.6544144  
H    7.1651874    0.8937202   -7.0448973  
H    2.7636345   -1.3364161   -5.4635272  
C   -0.8712823    0.0001712   -4.7267111  
C    0.4246872    0.0002200   -5.1323438  
C    0.4138927    0.0002765   -6.5761993  
C   -1.0047698    0.0002858   -6.9813994  
N   -1.7322696   -0.0001788   -5.8136521  
C   -1.4369651    0.0007305   -8.2678333  
C   -0.4382355    0.0010077   -9.3238034  
O   -0.7266353    0.0013508  -10.5133953  
C    1.0700322    0.0007511   -8.9176838  
O    1.9199275    0.0006741   -9.7979906  
C    1.4124576    0.0005506   -7.4976145  
H    1.2895154    0.0000344   -4.4930585  
H   -2.4823848    0.0008590   -8.5435282  
H   -2.7343167    0.0012684   -5.7593670  
C    1.0965515    0.0001358   -0.8010304  
C    0.0000000    0.0000000    0.0000000  
C   -1.1546562    0.0001470   -0.8669514  
C   -0.6372012    0.0003520   -2.2486282  
N    0.7342873    0.0007338   -2.1395014  
C   -1.4147737    0.0001354   -3.3608717  
C   -2.8576047   -0.0001047   -3.1854463  
O   -3.6427778   -0.0002491   -4.1244908  
C   -3.4275837   -0.0000725   -1.7311667  
O   -4.6406828    0.0000333   -1.5710061  
C   -2.4891866   -0.0001090   -0.6116745  
H   -2.8919121   -0.0002919    0.3920865  
H    2.1388272    0.0000662   -0.5261647  
H    1.3735873   -0.0006098   -2.9130261  
C    0.0000000    0.0000000    1.4700000  
C    1.0521667    0.0011902    2.3562342  
C    0.4917218    0.0011957    3.6679131  
C   -0.9187428   -0.0003148    3.5178682  
N   -1.1833171    0.0009411    2.1707914  
C   -1.7951701   -0.0010350    4.6072090  
C   -1.2375837   -0.0005224    5.8710424  
O   -2.0474215   -0.0015360    6.9697579  
C    0.1673580    0.0013566    6.0411963  
O    0.5673524    0.0020687    7.3615553  
C    1.0325770    0.0023412    4.9669890  
H    2.0953057    0.0030649    2.0900562  
H   -2.0989778   -0.0102372    1.7591824  
H   -2.8710934   -0.0020419    4.4995513  
H   -1.4634884   -0.0006497    7.7393593  
H    1.5290710    0.0033153    7.3880045  
H    2.1042148    0.0039609    5.1284455  
