64

C    5.2950770   -3.0249223   -2.0281963  
C    6.4829603   -3.6687063   -2.2869314  
C    6.7776369   -4.4730529   -1.1464083  
C    5.7247687   -4.2778652   -0.2161948  
N    4.8425376   -3.3914099   -0.7823056  
C    5.6852916   -4.9173453    1.0265026  
C    6.7275120   -5.7696201    1.3356627  
O    6.7387491   -6.4200673    2.5355825  
C    7.7872028   -5.9770756    0.4208758  
O    8.7500632   -6.8544199    0.8753075  
C    7.8269377   -5.3463387   -0.8051420  
H    7.0659913   -3.5698076   -3.1865351  
H    3.9905931   -3.0702961   -0.3591540  
H    4.8857552   -4.7727178    1.7399639  
H    7.5424793   -6.9559076    2.5481793  
H    9.4286384   -6.9385315    0.1985027  
H    8.6517840   -5.5248129   -1.4850345  
C    4.5310512   -2.0790477   -2.8543233  
C    4.8140926   -1.6029419   -4.0941966  
C    3.7433598   -0.7037137   -4.4544110  
C    2.8066150   -0.6948781   -3.3145769  
N    3.3414841   -1.5491125   -2.3780469  
C    1.6628945    0.0339172   -3.2649299  
C    1.3323524    0.8649110   -4.4106726  
O    0.3247026    1.5579296   -4.4623203  
C    2.3099249    0.8707268   -5.6289189  
O    2.0419932    1.5662246   -6.5993602  
C    3.5120765    0.0432796   -5.5655573  
H    5.6746396   -1.8532639   -4.6886805  
H    4.1838692    0.0530800   -6.4130965  
H    2.9319197   -1.7542582   -1.4851755  
C    1.1243410    0.0100105   -0.7919003  
C    0.7474072    0.0234665   -2.1148542  
C   -0.6787384    0.0234379   -2.1414698  
C   -1.1201748    0.0098411   -0.7935547  
N    0.0000000    0.0000000    0.0000000  
C   -2.4730818    0.0063307   -0.4408240  
C   -3.3971962    0.0170429   -1.4675058  
O   -4.7313520    0.0145490   -1.1793468  
C   -2.9763654    0.0303020   -2.8186325  
O   -4.0166484    0.0394464   -3.7247625  
C   -1.6418567    0.0334992   -3.1673480  
H   -2.8160166   -0.0041569    0.5845966  
H   -5.1938823    0.0230023   -2.0274386  
H   -3.6464680    0.0481700   -4.6127343  
H   -1.3497475    0.0435647   -4.2109234  
H    2.1062466    0.0053162   -0.3505405  
C    0.8676693    0.7151171    2.2619005  
C    0.5875920    0.4624972    3.5848544  
C   -0.5048400   -0.4542819    3.6114698  
C   -0.8517165   -0.7276451    2.2635546  
N    0.0000000    0.0000000    1.4700000  
C   -1.8902865   -1.5946756    1.9108239  
C   -2.5912627   -2.1969500    2.9375057  
O   -3.6148162   -3.0527051    2.6493466  
C   -2.2603868   -1.9365747    4.2886322  
O   -3.0513550   -2.6123276    5.1947621  
C   -1.2361111   -1.0811317    4.6373480  
H    1.1060808    0.8876438    4.4271209  
H   -2.1597133   -1.8070987    0.8854031  
H   -3.9636755   -3.3565188    3.4974381  
H   -2.7621927   -2.3810384    6.0827341  
H   -1.0058879   -0.9010589    5.6809233  
H    1.6167816    1.3499334    1.8205408  
