62

C    5.8838805   -1.7974174   -5.0580262  
C    6.9710483   -2.6191136   -4.8700136  
C    7.7735791   -2.5232879   -6.0453268  
C    7.1203227   -1.6204898   -6.9229015  
N    5.9751735   -1.1999000   -6.2933349  
C    7.6304894   -1.2860003   -8.1809301  
C    8.8219715   -1.8733506   -8.5598316  
O    9.3649374   -1.5816434   -9.7776611  
C    9.4885160   -2.7768599   -7.6983176  
O   10.6636058   -3.2776468   -8.2195873  
C    8.9856678   -3.1075107   -6.4572133  
H    7.1616034   -3.2151965   -3.9940181  
H    5.3128029   -0.5459116   -6.6695602  
H    7.1373686   -0.5987441   -8.8545124  
H   10.1833733   -2.0909985   -9.8407910  
H   11.0501459   -3.8788630   -7.5755920  
H    9.5185255   -3.8028772   -5.8192430  
C    4.5551378   -2.0647521   -2.9129526  
C    3.4069297   -1.6070138   -2.3506641  
C    2.8049834   -0.7012746   -3.3004706  
C    3.7030479   -0.6686468   -4.4706014  
N    4.7450052   -1.5160901   -4.1721822  
C    3.4850378    0.0719021   -5.5867390  
C    2.2859710    0.8916867   -5.6389643  
O    2.0005484    1.5939524   -6.6000356  
C    1.3208825    0.8726932   -4.4109379  
O    0.3083946    1.5590471   -4.4433028  
C    1.6628945    0.0339172   -3.2649299  
H    3.0252945   -1.8733122   -1.3811003  
H    4.1564398    0.0814611   -6.4341099  
H    5.2786931   -2.7565742   -2.5132781  
C    1.1243410    0.0100105   -0.7919003  
C    0.7474072    0.0234665   -2.1148542  
C   -0.6787384    0.0234379   -2.1414698  
C   -1.1201748    0.0098411   -0.7935547  
N    0.0000000    0.0000000    0.0000000  
C   -2.4730818    0.0063307   -0.4408240  
C   -3.3971962    0.0170429   -1.4675058  
O   -4.7313520    0.0145490   -1.1793468  
C   -2.9763654    0.0303020   -2.8186325  
O   -4.0166484    0.0394464   -3.7247625  
C   -1.6418567    0.0334992   -3.1673480  
H   -2.8160166   -0.0041569    0.5845966  
H   -5.1938823    0.0230023   -2.0274386  
H   -3.6464680    0.0481700   -4.6127343  
H   -1.3497475    0.0435647   -4.2109234  
H    2.1062466    0.0053162   -0.3505405  
C    0.8681109    0.7263879    2.2709268  
C    0.6127770    0.5096195    3.5869401  
C   -0.4920590   -0.4175482    3.6542670  
C   -0.8620974   -0.7254003    2.2596025  
N    0.0000000    0.0000000    1.4700000  
C   -1.8641242   -1.5660088    1.8976294  
C   -2.6293522   -2.2103885    2.9520183  
O   -3.5512764   -2.9839180    2.7283916  
C   -2.2549728   -1.8987399    4.4361073  
O   -2.8923672   -2.4351063    5.3323774  
C   -1.1543735   -0.9755647    4.7012123  
H    1.1382914    0.9492124    4.4159191  
H   -2.1192137   -1.7782617    0.8686553  
H   -0.9013378   -0.7652422    5.7314848  
H    1.6172880    1.3558399    1.8188057  
