62

C   -7.6598464   -0.0128205   -2.5743482  
C   -8.4640379    0.6635908   -1.6865354  
C   -9.8109929    0.3023948   -1.9862830  
C   -9.7660083   -0.6051004   -3.0754822  
N   -8.4449959   -0.7731210   -3.4091133  
C  -10.9150337   -1.1697490   -3.6373553  
C  -12.1316136   -0.8120006   -3.0895155  
O  -13.2850191   -1.3340871   -3.5995107  
C  -12.1970439    0.0922121   -2.0028070  
O  -13.4815615    0.3487907   -1.5697683  
C  -11.0639267    0.6498485   -1.4481773  
H   -8.1219966    1.3356223   -0.9181769  
H   -8.1024392   -1.3698267   -4.1402616  
H  -10.8874953   -1.8618942   -4.4676441  
H  -14.0077852   -0.9587350   -3.0799088  
H  -13.4367503    0.9677873   -0.8346228  
H  -11.1453646    1.3396668   -0.6163138  
C   -4.5109061    2.0977187   -0.3577878  
C   -3.4201849    1.6341429   -1.0207351  
C   -3.9001610    0.7380705   -2.0461681  
C   -5.3704639    0.7174770   -1.9254394  
N   -5.6768567    1.5619484   -0.8833829  
C   -6.1968217   -0.0116750   -2.7173828  
C   -5.5981518   -0.8310167   -3.7579633  
O   -6.2573276   -1.5234766   -4.5223513  
C   -4.0429941   -0.8246549   -3.9037354  
O   -3.5275665   -1.5107550   -4.7760092  
C   -3.2578655    0.0024282   -2.9908505  
H   -2.3962310    1.8904974   -0.8147871  
H   -4.5610337    2.7855090    0.4706575  
H   -6.6046839    1.7602438   -0.5564856  
C    0.0000000    0.0000000    0.0000000  
C    1.0521666   -0.0011982   -0.8862343  
C    0.4917215   -0.0011996   -2.1979132  
C   -0.9187429    0.0003215   -2.0478682  
N   -1.1833171   -0.0009323   -0.7007913  
C   -1.7951703    0.0010483   -3.1372089  
C   -1.2375841    0.0005313   -4.4010422  
O   -2.0474218    0.0015510   -5.4997578  
C    0.1673576   -0.0013585   -4.5711963  
O    0.5673520   -0.0020735   -5.8915554  
C    1.0325768   -0.0023493   -3.4969892  
H    2.0953056   -0.0030808   -0.6200564  
H   -2.0989778    0.0102529   -0.2891822  
H   -1.4634888    0.0006601   -6.2693595  
H    1.5290707   -0.0033271   -5.9180047  
H    2.1042146   -0.0039770   -3.6584456  
C    1.0672568    0.0000697    2.3021913  
C    0.0000000    0.0000000    1.4700000  
C   -1.1601224    0.0000736    2.3478473  
C   -0.5938729    0.0000769    3.7138435  
N    0.7113367    0.0001554    3.6934124  
C   -1.4286986    0.0001879    4.8835240  
C   -2.7683114    0.0006799    4.6970523  
O   -3.6653903    0.0008304    5.6976972  
C   -3.3702025    0.0010610    3.3310774  
O   -4.5974910    0.0013779    3.2362962  
C   -2.4926826    0.0008943    2.1470656  
H   -0.9878360   -0.0000190    5.8697035  
H   -4.5324246    0.0012261    5.2533954  
H   -2.9677772    0.0012974    1.1752040  
H    2.1134392    0.0000545    2.0405121  
