60

C    6.4090289    0.0004331    3.3745381  
C    7.2044671   -0.0013309    2.2521554  
C    8.5583005   -0.0011907    2.7013045  
C    8.5263577    0.0004217    4.1193675  
N    7.2060266    0.0033274    4.4953121  
C    9.6849684    0.0006882    4.9019339  
C   10.8979206   -0.0010055    4.2409334  
O   12.0603208   -0.0011817    4.9563615  
C   10.9503620   -0.0022538    2.8266971  
O   12.2327801   -0.0034581    2.3180269  
C    9.8077672   -0.0022441    2.0540371  
H    6.8721761   -0.0055701    5.4421200  
H    9.6673769    0.0020580    5.9830864  
H   12.7785649   -0.0021590    4.3103065  
H   12.1789664   -0.0042797    1.3574504  
H    9.8793269   -0.0030355    0.9726695  
H    5.3362268    0.0013016    3.4642811  
C    6.7235408   -0.0015094    0.8630512  
C    5.4473216   -0.0011276    0.3990033  
C    5.5236519   -0.0015785   -1.0428735  
C    6.9592470   -0.0022883   -1.3832528  
N    7.6329841   -0.0018115   -0.1836830  
C    7.4493963   -0.0032606   -2.6487389  
C    6.4996345   -0.0034066   -3.7489602  
O    6.8417402   -0.0041912   -4.9242320  
C    4.9744852   -0.0024120   -3.4117301  
O    4.1654296   -0.0022186   -4.3297116  
C    4.5679461   -0.0016854   -2.0086701  
H    4.5543636   -0.0004090    0.9983692  
H    8.5062543   -0.0038991   -2.8766912  
H    8.6315332   -0.0036617   -0.0839633  
C    3.1301149   -0.0010311   -1.7028252  
C    2.5367768   -0.0002767   -0.4864665  
C    1.1089904    0.0001028   -0.7656183  
C    1.0177872   -0.0004148   -2.2415132  
N    2.1993578   -0.0011611   -2.7963820  
C   -0.2459209   -0.0002877   -2.9257118  
C   -1.3675319   -0.0000605   -2.1698524  
O   -2.6129313    0.0000867   -2.6748490  
C   -1.3083584    0.0000910   -0.6783232  
O   -2.3693261    0.0004206   -0.0541692  
C    0.0000000    0.0000000    0.0000000  
H    3.0096017   -0.0001007    0.4807525  
H   -0.2829630   -0.0004687   -4.0053125  
H   -3.1967441    0.0002094   -1.8949034  
C    0.0000000    0.0000000    1.4700000  
C    1.0541688    0.0001722    2.3260392  
C    0.5103138    0.0000454    3.6635956  
C   -0.9576371   -0.0002459    3.5155732  
N   -1.2018458    0.0001392    2.1615969  
C   -1.8348311   -0.0008317    4.5510609  
C   -1.2972847   -0.0009736    5.9014604  
O   -2.0050672   -0.0014265    6.9001319  
C    0.2542623   -0.0004184    6.0817573  
O    0.7184670   -0.0002256    7.2139121  
C    1.0974552   -0.0000873    4.8889129  
H    2.0940752    0.0005483    2.0517982  
H   -2.9081052   -0.0011668    4.4207061  
H    2.1707277    0.0000911    5.0223670  
H   -2.1128194   -0.0014912    1.7406791  
