60

C    6.2341968   -3.2321197   -9.1020192  
C    5.6426338   -2.5255537   -8.0806058  
C    5.5681862   -1.1654286   -8.5038295  
C    6.1342545   -1.1021709   -9.8028649  
N    6.5302859   -2.3739445  -10.1350809  
C    6.2275486    0.0883456  -10.5300204  
C    5.7402524    1.2358554   -9.9350909  
O    5.8059931    2.4255522  -10.6009090  
C    5.1722113    1.1930576   -8.6395934  
O    4.7324638    2.4190431   -8.1847027  
C    5.0800927    0.0189842   -7.9215452  
H    5.3071542   -2.9393367   -7.1450698  
H    6.9573222   -2.6405115  -11.0037368  
H    6.6579970    0.1432431  -11.5204246  
H    5.4171408    3.0881044  -10.0151759  
H    4.3632786    2.3021053   -7.3040028  
H    6.4696511   -4.2800815   -9.1747975  
C    6.1923726   -2.0934465   -4.2359235  
C    5.2191579   -1.6310079   -3.4094375  
C    4.3967570   -0.7348791   -4.1875409  
C    4.9747510   -0.7130130   -5.5448310  
N    6.0607565   -1.5568761   -5.5077370  
C    4.4832131    0.0165646   -6.5781804  
C    3.3064982    0.8350540   -6.3374475  
O    2.7884378    1.5278083   -7.2034761  
C    2.6779835    0.8273398   -4.9075121  
O    1.6873118    1.5127140   -4.6928207  
C    3.2973506   -0.0000934   -3.8752374  
H    5.0920135   -1.8881513   -2.3729410  
H    6.9947907   -2.7809153   -4.0228480  
H    6.6635527   -1.7542842   -6.2853701  
C    3.3321174    0.0004714   -1.3379332  
C    2.6974186    0.0000115   -2.5332308  
C    1.2800441   -0.0002119   -2.2052838  
C    1.2395035    0.0000643   -0.7271293  
N    2.4394063    0.0005458   -0.2131034  
C    0.0000000    0.0000000    0.0000000  
C   -1.1468701    0.0000634   -0.7169542  
O   -2.3742201    0.0000072   -0.1695492  
C   -1.1388767    0.0001606   -2.2096354  
O   -2.2206229    0.0000903   -2.7970413  
C    0.1454526    0.0001815   -2.9324239  
H   -2.9844344    0.0001023   -0.9290168  
H    0.1083580    0.0003680   -4.0135594  
H    4.3940040    0.0007617   -1.1498630  
C    0.0000000    0.0000000    1.4700000  
C    1.0662921    0.0000102    2.3034270  
C    0.4961870   -0.0000064    3.6418889  
C   -0.9663858    0.0000850    3.4240247  
N   -1.2632773    0.0000084    2.1528658  
C   -1.8985362    0.0000517    4.5177257  
C   -1.3925775   -0.0004564    5.7720543  
O   -2.1456383   -0.0005410    6.8851312  
C    0.0786232   -0.0009323    6.0245000  
O    0.4683759   -0.0012588    7.1921102  
C    1.0143166   -0.0008442    4.8859032  
H    2.1107198   -0.0000632    2.0421868  
H   -2.9622183    0.0003270    4.3293377  
H   -1.5042274   -0.0009692    7.6184419  
H    2.0724152   -0.0013148    5.1109744  
