62

C    7.3437255   -3.0807419   -1.6144196  
C    8.7122122   -2.9767691   -1.5200773  
C    9.0446642   -1.6131170   -1.7741024  
C    7.8277736   -0.9266828   -2.0188689  
N    6.8148668   -1.8475901   -1.9160717  
C    7.7752846    0.4406769   -2.3058565  
C    8.9730342    1.1276603   -2.3461944  
O    8.9793280    2.4645084   -2.6215313  
C   10.1975053    0.4603045   -2.1051092  
O   11.3029302    1.2822196   -2.1815013  
C   10.2500616   -0.8886669   -1.8221955  
H    9.3878496   -3.7846519   -1.2968417  
H    6.8510792    0.9696786   -2.4934840  
H    9.9040989    2.7431531   -2.6010273  
H   12.0875431    0.7537802   -2.0061804  
H   11.2029031   -1.3725425   -1.6420931  
H    6.7031733   -3.9372571   -1.4918119  
C    4.3630986   -2.0949034   -1.3110654  
C    3.1522517   -1.6320804   -1.7156885  
C    3.3924175   -0.7354492   -2.8216760  
C    4.8529069   -0.7137076   -3.0297345  
N    5.3832068   -1.5581153   -2.0817645  
C    5.4827049    0.0162382   -3.9848461  
C    4.6677390    0.8352839   -4.8666226  
O    5.1406425    1.5283994   -5.7578312  
C    3.1189444    0.8277105   -4.6641777  
O    2.4225432    1.5135518   -5.4003220  
C    2.5562217   -0.0001543   -3.6003001  
H    2.1995752   -1.8892845   -1.2880585  
H    6.5552965    0.0179179   -4.1206910  
H    4.5960548   -2.7827973   -0.5145584  
C    0.0000000    0.0000000    0.0000000  
C    1.0541688   -0.0001719   -0.8560391  
C    0.5103141   -0.0000449   -2.1935955  
C   -0.9576367    0.0002461   -2.0455733  
N   -1.2018459   -0.0001392   -0.6915970  
C   -1.8348306    0.0008319   -3.0810611  
C   -1.2972842    0.0009739   -4.4314605  
O   -2.0050664    0.0014267   -5.4301321  
C    0.2542628    0.0004190   -4.6117571  
O    0.7184677    0.0002263   -5.7439119  
C    1.0974556    0.0000880   -3.4189127  
H    2.0940752   -0.0005479   -0.5817978  
H   -2.9081050    0.0011669   -2.9507065  
H   -2.1128195    0.0014911   -0.2706793  
C    1.1243417   -0.0099156    2.2619005  
C    0.7474090   -0.0234034    3.5848544  
C   -0.6787367   -0.0234952    3.6114698  
C   -1.1201739   -0.0099357    2.2635546  
N    0.0000000    0.0000000    1.4700000  
C   -2.4730812   -0.0065396    1.9108239  
C   -3.3971947   -0.0173298    2.9375057  
O   -4.7313508   -0.0149487    2.6493466  
C   -2.9763630   -0.0305536    4.2886322  
O   -4.0166453   -0.0397858    5.1947621  
C   -1.6418541   -0.0336380    4.6373480  
H    1.4178735   -0.0310004    4.4271209  
H   -2.8160170    0.0039190    0.8854031  
H   -5.1938803   -0.0234410    3.4974381  
H   -3.6464643   -0.0484781    6.0827341  
H   -1.3497443   -0.0436789    5.6809233  
H    2.1062470   -0.0051382    1.8205408  
