60

C    3.6229474   -2.1182925   -4.3065148  
C    4.8716914   -1.6194009   -4.5967087  
C    4.7216580   -0.7458390   -5.7142856  
C    3.3473833   -0.7514253   -6.0653752  
N    2.7090352   -1.5964372   -5.1918284  
C    2.8349221    0.0005892   -7.1268112  
C    3.7259664    0.7725368   -7.8467519  
O    3.2789880    1.5265582   -8.8930197  
C    5.1008965    0.7910390   -7.5120259  
O    5.8596132    1.6089119   -8.3236770  
C    5.6071962    0.0492003   -6.4651914  
H    5.7792957   -1.8568433   -4.0686281  
H    1.7244891   -1.7930173   -5.1894020  
H    4.0522507    1.9807456   -9.2522449  
H    6.7747889    1.5640823   -8.0303376  
H    6.6651165    0.0834067   -6.2325704  
H    3.3121168   -2.8061963   -3.5389660  
C   -0.8712823    0.0001712   -4.7267111  
C    0.4246872    0.0002200   -5.1323438  
C    0.4138927    0.0002765   -6.5761993  
C   -1.0047698    0.0002858   -6.9813994  
N   -1.7322696   -0.0001788   -5.8136521  
C   -1.4369651    0.0007305   -8.2678333  
C   -0.4382355    0.0010077   -9.3238034  
O   -0.7266353    0.0013508  -10.5133953  
C    1.0700322    0.0007511   -8.9176838  
O    1.9199275    0.0006741   -9.7979906  
C    1.4124576    0.0005506   -7.4976145  
H    1.2895154    0.0000344   -4.4930585  
H   -2.4823848    0.0008590   -8.5435282  
H   -2.7343167    0.0012684   -5.7593670  
C    1.0965515    0.0001358   -0.8010304  
C    0.0000000    0.0000000    0.0000000  
C   -1.1546562    0.0001470   -0.8669514  
C   -0.6372012    0.0003520   -2.2486282  
N    0.7342873    0.0007338   -2.1395014  
C   -1.4147737    0.0001354   -3.3608717  
C   -2.8576047   -0.0001047   -3.1854463  
O   -3.6427778   -0.0002491   -4.1244908  
C   -3.4275837   -0.0000725   -1.7311667  
O   -4.6406828    0.0000333   -1.5710061  
C   -2.4891866   -0.0001090   -0.6116745  
H   -2.8919121   -0.0002919    0.3920865  
H    2.1388272    0.0000662   -0.5261647  
H    1.3735873   -0.0006098   -2.9130261  
C    0.8681109    0.7263879    2.2709268  
C    0.6127770    0.5096195    3.5869401  
C   -0.4920590   -0.4175482    3.6542670  
C   -0.8620974   -0.7254003    2.2596025  
N    0.0000000    0.0000000    1.4700000  
C   -1.8641242   -1.5660088    1.8976294  
C   -2.6293522   -2.2103885    2.9520183  
O   -3.5512764   -2.9839180    2.7283916  
C   -2.2549728   -1.8987399    4.4361073  
O   -2.8923672   -2.4351063    5.3323774  
C   -1.1543735   -0.9755647    4.7012123  
H    1.1382914    0.9492124    4.4159191  
H   -2.1192137   -1.7782617    0.8686553  
H   -0.9013378   -0.7652422    5.7314848  
H    1.6172880    1.3558399    1.8188057  
