64

C    0.9735614   -0.0122826   -4.6965759  
C   -0.3184492   -0.0009345   -5.1688551  
C   -0.2411499   -0.0027667   -6.5931519  
C    1.1353397   -0.0158152   -6.9352515  
N    1.8452693   -0.0193654   -5.7602602  
C    1.5856416   -0.0213360   -8.2588780  
C    0.6289552   -0.0138495   -9.2553077  
O    1.0134847   -0.0191144  -10.5649347  
C   -0.7492295   -0.0004363   -8.9339920  
O   -1.5772180    0.0061073  -10.0375029  
C   -1.1941828    0.0052899   -7.6284236  
H   -1.2072875    0.0087179   -4.5615113  
H    2.8463995   -0.0386631   -5.6871415  
H    2.6333213   -0.0311305   -8.5262243  
H    0.2013163   -0.0120343  -11.0880010  
H   -2.4897890    0.0150690   -9.7329747  
C   -1.1188311    0.0086427   -0.8003809  
C    0.0000000    0.0000000    0.0000000  
C    1.1323381   -0.0104692   -0.8673524  
C    0.6382270   -0.0073672   -2.1969280  
N   -0.7324077    0.0023476   -2.1202242  
C    1.4770158   -0.0152270   -3.3154808  
C    2.8394284   -0.0261153   -3.0876855  
O    3.7037675   -0.0337755   -4.1440345  
C    3.3516555   -0.0297471   -1.7684322  
O    4.7298700   -0.0412500   -1.7073116  
C    2.5247562   -0.0222710   -0.6644814  
H   -1.3575349    0.0171012   -2.9057046  
H    4.5938212   -0.0410452   -3.7685124  
H    4.9932759   -0.0429679   -0.7819903  
H    2.9461477   -0.0254838    0.3339667  
H   -2.1619200    0.0173537   -0.5342070  
C   -3.6226032    2.1559546   -4.5515625  
C   -2.5876409    1.6830136   -5.3246388  
C   -3.1578779    0.7996563   -6.2885422  
C   -4.5563453    0.7732386   -6.0529203  
N   -4.8044073    1.6061840   -4.9902421  
C   -5.4379102    0.0043229   -6.8186882  
C   -4.8979303   -0.7514615   -7.8411308  
O   -5.7135405   -1.5203081   -8.6200196  
C   -3.5051141   -0.7386012   -8.0915610  
O   -3.1221229   -1.5442456   -9.1439861  
C   -2.6348027    0.0195065   -7.3363411  
H   -1.5492581    1.9419046   -5.2074648  
H   -5.7101686    1.7967407   -4.6013130  
H   -6.5047363   -0.0202655   -6.6441053  
H   -5.1420927   -1.9596591   -9.2632016  
H   -2.1677488   -1.4781393   -9.2459853  
H   -3.6111153    2.8408364   -3.7210418  
C    0.0000000    0.0000000    1.4700000  
C    1.0541688    0.0001722    2.3260392  
C    0.5103138    0.0000454    3.6635956  
C   -0.9576371   -0.0002459    3.5155732  
N   -1.2018458    0.0001392    2.1615969  
C   -1.8348311   -0.0008317    4.5510609  
C   -1.2972847   -0.0009736    5.9014604  
O   -2.0050672   -0.0014265    6.9001319  
C    0.2542623   -0.0004184    6.0817573  
O    0.7184670   -0.0002256    7.2139121  
C    1.0974552   -0.0000873    4.8889129  
H    2.0940752    0.0005483    2.0517982  
H   -2.9081052   -0.0011668    4.4207061  
H    2.1707277    0.0000911    5.0223670  
H   -2.1128194   -0.0014912    1.7406791  
