60

C    3.3419165   -3.0774480   -7.8416489  
C    2.8177467   -1.8449276   -7.5276313  
C    3.2962253   -0.9267530   -8.5087595  
C    4.1146247   -1.6627118   -9.4034739  
N    4.1223959   -2.9647255   -8.9683664  
C    4.7551079   -1.0760794  -10.4991156  
C    4.5657316    0.2781097  -10.6952951  
O    5.1675417    0.9014386  -11.7499503  
C    3.7531422    1.0295290   -9.8133185  
O    3.6636665    2.3662560  -10.1427091  
C    3.1212014    0.4515138   -8.7320797  
H    4.6105486   -3.7218429   -9.4116066  
H    5.3802686   -1.6314502  -11.1846371  
H    4.9077693    1.8306937  -11.7023378  
H    3.0973645    2.8011460   -9.4979013  
H    2.5050657    1.0526604   -8.0736901  
H    3.2219545   -4.0277520   -7.3502324  
C    2.0663728   -2.0930016   -5.1167678  
C    1.0931325   -1.6308353   -4.2901601  
C    0.2706809   -0.7345480   -5.0680274  
C    0.8486731   -0.7122923   -6.4253114  
N    1.9347262   -1.5561043   -6.3884398  
C    0.3570941    0.0175291   -7.4584694  
C   -0.8196664    0.8358894   -7.2175211  
O   -1.3377660    1.5288420   -8.0833671  
C   -1.4481802    0.8277638   -5.7875877  
O   -2.4388904    1.5130257   -5.5727154  
C   -0.8287665    0.0000939   -4.7555305  
H    0.9660024   -1.8882582   -3.2537308  
H    0.7960888    0.0195932   -8.4464916  
H    2.8688295   -2.7804818   -4.9038726  
C    1.0672569   -0.0000698   -0.8321910  
C    0.0000000    0.0000000    0.0000000  
C   -1.1601223   -0.0000736   -0.8778472  
C   -0.5938729   -0.0000768   -2.2438435  
N    0.7113367   -0.0001553   -2.2234123  
C   -1.4286985   -0.0001877   -3.4135239  
C   -2.7683113   -0.0006798   -3.2270524  
O   -3.6653902   -0.0008302   -4.2276970  
C   -3.3702024   -0.0010610   -1.8610774  
O   -4.5974910   -0.0013779   -1.7662963  
C   -2.4926825   -0.0008943   -0.6770658  
H   -4.5324245   -0.0012258   -3.7833954  
H   -2.9677772   -0.0012974    0.2947961  
H    2.1134391   -0.0000547   -0.5705119  
C    0.8400945    0.7047457    2.2710304  
C    0.0000000    0.0000000    1.4700000  
C   -0.8844236   -0.7423113    2.3369512  
C   -0.4878984   -0.4098547    3.7186280  
N    0.5629682    0.4714286    3.6095011  
C   -1.0836927   -0.9095027    4.8308716  
C   -2.1891196   -1.8367527    4.6554461  
O   -2.7906899   -2.3413415    5.5944904  
C   -2.6257283   -2.2031529    3.2011665  
O   -3.5549479   -2.9829990    3.0410059  
C   -1.9068976   -1.5999348    2.0816745  
H   -0.7774656   -0.6525820    5.8354244  
H   -2.2155208   -1.8586617    1.0779135  
H    1.6384792    1.3747609    1.9961646  
H    1.0518368    0.8833920    4.3830260  
