60

C   10.0245062    0.7212415   -1.4616189  
C    9.1246828    0.0025454   -0.7091160  
C    9.8787092   -0.7254865    0.2583624  
C   11.2447977   -0.4082493    0.0460254  
N   11.2980660    0.4711007   -1.0068390  
C   12.2757746   -0.9474358    0.8213685  
C   11.9212070   -1.8225826    1.8296236  
O   12.8880126   -2.3778922    2.6169813  
C   10.5636828   -2.1517476    2.0567712  
O   10.3730654   -3.0373539    3.0973042  
C    9.5460996   -1.6204151    1.2920923  
H   12.1357413    0.8804521   -1.3792806  
H   13.3189050   -0.7097860    0.6645187  
H   12.4314163   -2.9498298    3.2475935  
H    9.4299391   -3.2066055    3.1837391  
H    8.5155206   -1.8913470    1.4895338  
H    9.8587283    1.3913837   -2.2876855  
C    6.6317365    0.0027576   -4.3241616  
C    5.4016570    0.0020952   -3.7488541  
C    5.6054515    0.0015082   -2.3194126  
C    7.0655606    0.0019148   -2.1075802  
N    7.6303538    0.0022712   -3.3621311  
C    7.6659168    0.0019587   -0.8905032  
C    6.8173813    0.0013543    0.2895486  
O    7.2622824    0.0012813    1.4298835  
C    5.2683493    0.0006643    0.0887879  
O    4.5438187   -0.0001547    1.0748485  
C    4.7390840    0.0009613   -1.2727298  
H    4.4591015    0.0018435   -4.2667371  
H    6.8927419    0.0033433   -5.3699943  
H    8.6161382    0.0041518   -3.5499387  
C    3.2798077    0.0005856   -1.4499661  
C    2.5571132    0.0005565   -2.5996564  
C    1.1637425    0.0001547   -2.2210366  
C    1.1336959   -0.0000200   -0.7459475  
N    2.4483509   -0.0001429   -0.3402730  
C    0.0000000    0.0000000    0.0000000  
C   -1.2757370   -0.0000187   -0.6964411  
O   -2.3524597   -0.0000640   -0.1142306  
C   -1.2676502   -0.0000874   -2.2584078  
O   -2.3355774   -0.0004102   -2.8557287  
C    0.0181551    0.0001758   -2.9516297  
H    2.9547342    0.0006074   -3.5989118  
H    0.0150776    0.0003317   -4.0331632  
H    2.7563626    0.0012823    0.6148051  
C    2.5528530    2.1414826    2.8079335  
C    2.0663498    1.7338582    4.0032312  
C    0.9804344    0.8229586    3.6752840  
C    0.9495562    0.7966882    2.1971295  
N    1.8690446    1.5676019    1.6831036  
C    0.0000000    0.0000000    1.4700000  
C   -0.8785127   -0.7372425    2.1869543  
O   -1.8187535   -1.5261249    1.6395491  
C   -0.8723269   -0.7321790    3.6796354  
O   -1.7010379   -1.4274584    4.2670412  
C    0.1115397    0.0933559    4.4024240  
H    2.4028853    2.0163452    4.9860947  
H   -2.2861435   -1.9184361    2.3990168  
H    0.0832434    0.0693689    5.4835595  
H    3.3664920    2.8238276    2.6198634  
