66

C   -0.1719614    0.6847514   -7.3393156  
C   -1.1329666    0.4346923   -8.2913692  
C   -0.5663664   -0.4843549   -9.2235261  
C    0.7536342   -0.7616765   -8.7846430  
N    0.9614695   -0.0341082   -7.6391880  
C    1.6100524   -1.6317659   -9.4660238  
C    1.1249996   -2.2330854  -10.6111511  
O    1.9190452   -3.0917128  -11.3149008  
C   -0.1890715   -1.9687778  -11.0652164  
O   -0.5242756   -2.6440556  -12.2206301  
C   -1.0344080   -1.1103162  -10.3936685  
H   -2.1204644    0.8629567   -8.3121276  
H    2.6172258   -1.8472125   -9.1368018  
H    1.3942680   -3.3942464  -12.0674614  
H   -1.4265554   -2.4100291  -12.4588053  
H   -2.0357020   -0.9272605  -10.7656616  
H   -0.2048513    1.3201126   -6.4708728  
C    1.6478440   -0.0100107   -3.2702995  
C    3.0229493   -0.0201034   -3.3083795  
C    3.4013070   -0.0321833   -4.6836249  
C    2.2043347   -0.0285244   -5.4446567  
N    1.1584330   -0.0169428   -4.5555144  
C    2.1970123   -0.0376179   -6.8427451  
C    3.4203138   -0.0503357   -7.4842653  
O    3.4709314   -0.0592589   -8.8482201  
C    4.6254864   -0.0545500   -6.7424037  
O    5.7606893   -0.0679178   -7.5262917  
C    4.6334620   -0.0458573   -5.3631331  
H    3.6733233   -0.0200114   -2.4504710  
H    0.1857645   -0.0014081   -4.8038214  
H    4.4070618   -0.0677046   -9.0866605  
H    6.5295975   -0.0699139   -6.9480355  
H    5.5724440   -0.0495567   -4.8220437  
C    1.1188644    0.0008217   -0.8003806  
C    0.0000000    0.0000000    0.0000000  
C   -1.1323859    0.0008905   -0.8673530  
C   -0.6382659    0.0019682   -2.1969281  
N    0.7324019    0.0038478   -2.1202239  
C   -1.4770907    0.0027326   -3.3154809  
C   -2.8395470    0.0020959   -3.0876861  
O   -3.7039194    0.0024444   -4.1440354  
C   -3.3517867    0.0013946   -1.7684335  
O   -4.7300493    0.0012389   -1.7073127  
C   -2.5248543    0.0009135   -0.6644820  
H   -1.1067564    0.0036994   -4.3313814  
H   -4.5940025    0.0021851   -3.7685133  
H   -4.9934599    0.0007285   -0.7819921  
H   -2.9462578    0.0005616    0.3339655  
H    2.1619897    0.0009344   -0.5342063  
C    0.8576279    0.7185626    2.2703808  
C    0.0000000    0.0000000    1.4700000  
C   -0.8668858   -0.7285659    2.3373528  
C   -0.4876752   -0.4117774    3.6669281  
N    0.5635254    0.4678311    3.5902241  
C   -1.1297612   -0.9515493    4.7854808  
C   -2.1738724   -1.8268314    4.5576857  
O   -2.8357962   -2.3827064    5.6140350  
C   -2.5667212   -2.1555554    3.2384331  
O   -3.6226318   -3.0413663    3.1773122  
C   -1.9335634   -1.6236449    2.1344818  
H    1.0363952    0.8769718    4.3757045  
H   -0.8454472   -0.7142436    5.8013813  
H   -3.5178062   -2.9546422    5.2385129  
H   -3.8247440   -3.2102924    2.2519915  
H   -2.2566033   -1.8942483    1.1360343  
H    1.6567807    1.3889844    2.0042067  
