64

C    9.9352845    0.7132629   -1.3291507  
C   11.1913481    0.4636672   -0.8266815  
C   11.0316718   -0.4454520    0.2607951  
C    9.6443179   -0.7174757    0.3756010  
N    9.0072401    0.0035745   -0.6035994  
C    9.1199770   -1.5775288    1.3452214  
C   10.0124482   -2.1740746    2.2145930  
O    9.5542938   -3.0229048    3.1803030  
C   11.4002426   -1.9149242    2.1161909  
O   12.1585991   -2.5844162    3.0542839  
C   11.9181961   -1.0663620    1.1600563  
H   12.1096058    0.8858672   -1.1975483  
H    8.0636109   -1.7888942    1.4380519  
H   10.3306912   -3.3235962    3.6702585  
H   13.0828732   -2.3544335    2.9185276  
H   12.9857810   -0.8870582    1.1091685  
H    9.6278196    1.3424854   -2.1467710  
C    6.6001506    0.0019434   -4.3713014  
C    7.6333543    0.0021445   -3.4630303  
C    7.0453162    0.0020497   -2.1634877  
C    5.6383364    0.0015001   -2.3433062  
N    5.4022893    0.0033999   -3.6956728  
C    4.7390840    0.0009613   -1.2727298  
C    5.2698382    0.0006706    0.0026046  
O    4.4369625   -0.0002077    1.0839605  
C    6.6708713    0.0015853    0.2024108  
O    7.0428744    0.0015759    1.5309279  
C    7.5585984    0.0023904   -0.8532721  
H    8.6818863    0.0034411   -3.7071040  
H    4.4955245   -0.0070443   -4.1265437  
H    5.0045013    0.0000322    1.8657303  
H    8.0038195    0.0021938    1.5776951  
H    6.6229005    0.0023217   -5.4476109  
C    3.2798077    0.0005856   -1.4499661  
C    2.5571132    0.0005565   -2.5996564  
C    1.1637425    0.0001547   -2.2210366  
C    1.1336959   -0.0000200   -0.7459475  
N    2.4483509   -0.0001429   -0.3402730  
C    0.0000000    0.0000000    0.0000000  
C   -1.2757370   -0.0000187   -0.6964411  
O   -2.3524597   -0.0000640   -0.1142306  
C   -1.2676502   -0.0000874   -2.2584078  
O   -2.3355774   -0.0004102   -2.8557287  
C    0.0181551    0.0001758   -2.9516297  
H    2.9547342    0.0006074   -3.5989118  
H    0.0150776    0.0003317   -4.0331632  
H    2.7563626    0.0012823    0.6148051  
C    0.8676693    0.7151171    2.2619005  
C    0.5875920    0.4624972    3.5848544  
C   -0.5048400   -0.4542819    3.6114698  
C   -0.8517165   -0.7276451    2.2635546  
N    0.0000000    0.0000000    1.4700000  
C   -1.8902865   -1.5946756    1.9108239  
C   -2.5912627   -2.1969500    2.9375057  
O   -3.6148162   -3.0527051    2.6493466  
C   -2.2603868   -1.9365747    4.2886322  
O   -3.0513550   -2.6123276    5.1947621  
C   -1.2361111   -1.0811317    4.6373480  
H    1.1060808    0.8876438    4.4271209  
H   -2.1597133   -1.8070987    0.8854031  
H   -3.9636755   -3.3565188    3.4974381  
H   -2.7621927   -2.3810384    6.0827341  
H   -1.0058879   -0.9010589    5.6809233  
H    1.6167816    1.3499334    1.8205408  
