62

C    1.1243417    0.0099321   -0.7919012  
C    0.7474087    0.0234143   -2.1148546  
C   -0.6787370    0.0234851   -2.1414702  
C   -1.1201741    0.0099191   -0.7935548  
N    0.0000000    0.0000000    0.0000000  
C   -2.4730811    0.0065030   -0.4408244  
C   -3.3971946    0.0172796   -1.4675061  
O   -4.7313510    0.0148789   -1.1793468  
C   -2.9763635    0.0305094   -2.8186326  
O   -4.0166456    0.0397262   -3.7247623  
C   -1.6418545    0.0336135   -3.1673482  
H    1.4178729    0.0310212   -2.9571211  
H   -2.8160170   -0.0039605    0.5845960  
H   -5.1938807    0.0233640   -2.0274383  
H   -3.6464653    0.0484238   -4.6127344  
H    2.1062469    0.0051692   -0.3505411  
C    1.5647051   -2.0539353   -5.3222156  
C    1.3415240   -1.5772550   -6.5740306  
C    0.2114874   -0.6825236   -6.4885403  
C   -0.2083787   -0.6769531   -5.0741600  
N    0.6518740   -1.5285930   -4.4202760  
C   -1.2456306    0.0472387   -4.5828770  
C   -1.9988922    0.8763687   -5.5089849  
O   -2.9500277    1.5652873   -5.1639738  
C   -1.5719569    0.8855785   -7.0114651  
O   -2.1988453    1.5795461   -7.8005664  
C   -0.4365472    0.0630232   -7.4214651  
H    1.9041759   -1.8243693   -7.4566241  
H   -0.1472037    0.0751514   -8.4635095  
H    0.6225102   -1.7349847   -3.4386513  
C    3.5568615   -3.5883003   -5.6619228  
C    4.3572268   -4.4105872   -4.9357450  
C    3.8897975   -4.3553149   -3.5707214  
C    2.7432662   -3.4267873   -3.5611101  
N    2.5935108   -2.9963395   -4.8592540  
C    2.0234630   -3.1053010   -2.4564678  
C    2.4034576   -3.7142787   -1.1926301  
O    1.8176843   -3.4886991   -0.1417806  
C    3.6147039   -4.7004392   -1.1794284  
O    3.9440898   -5.2190385   -0.1212128  
C    4.3125113   -4.9686902   -2.4344017  
H    5.1811537   -4.9896250   -5.3132028  
H    1.1857927   -2.4219241   -2.4711011  
H    5.1499883   -5.6528286   -2.4167662  
H    3.5898742   -3.3647911   -6.7158885  
C    0.8676693    0.7151171    2.2619005  
C    0.5875920    0.4624972    3.5848544  
C   -0.5048400   -0.4542819    3.6114698  
C   -0.8517165   -0.7276451    2.2635546  
N    0.0000000    0.0000000    1.4700000  
C   -1.8902865   -1.5946756    1.9108239  
C   -2.5912627   -2.1969500    2.9375057  
O   -3.6148162   -3.0527051    2.6493466  
C   -2.2603868   -1.9365747    4.2886322  
O   -3.0513550   -2.6123276    5.1947621  
C   -1.2361111   -1.0811317    4.6373480  
H    1.1060808    0.8876438    4.4271209  
H   -2.1597133   -1.8070987    0.8854031  
H   -3.9636755   -3.3565188    3.4974381  
H   -2.7621927   -2.3810384    6.0827341  
H   -1.0058879   -0.9010589    5.6809233  
H    1.6167816    1.3499334    1.8205408  
