62

C    5.6445762   -3.5941489   -1.4182821  
C    6.7744076   -4.3742962   -1.3327308  
C    7.4800067   -4.2215171   -2.5629289  
C    6.7263759   -3.3283922   -3.3668546  
N    5.6172697   -2.9681173   -2.6424911  
C    7.1249754   -2.9474799   -4.6516945  
C    8.3060276   -3.4775959   -5.1336393  
O    8.7420694   -3.1389034   -6.3819057  
C    9.0716922   -4.3705561   -4.3467487  
O   10.2220862   -4.8119431   -4.9673225  
C    8.6789340   -4.7469853   -3.0792442  
H    7.0548867   -4.9799560   -0.4880410  
H    6.5550062   -2.2673036   -5.2695104  
H    9.5726272   -3.6128862   -6.5189419  
H   10.6802221   -5.4099297   -4.3688841  
H    9.2860786   -5.4329028   -2.5001325  
H    4.8553116   -3.4358549   -0.7034649  
C    4.5711696   -2.0399899   -3.0954300  
C    3.4608405   -1.6463392   -2.4292562  
C    2.7848869   -0.7303973   -3.3351462  
C    3.6494421   -0.6860496   -4.5339630  
N    4.6980184   -1.4517807   -4.3993064  
C    3.3232823    0.1203534   -5.6778249  
C    2.1849706    0.8490188   -5.6265612  
O    1.7581224    1.6453513   -6.6213962  
C    1.2914252    0.8251381   -4.4310831  
O    0.2712870    1.5136375   -4.4536140  
C    1.6478437   -0.0100096   -3.2702997  
H    3.1400759   -1.9411842   -1.4447500  
H    3.9734595    0.1338610   -6.5403776  
H    0.9249192    2.0282779   -6.2923182  
C    1.1188642    0.0008224   -0.8003808  
C    0.0000000    0.0000000    0.0000000  
C   -1.1323861    0.0008899   -0.8673529  
C   -0.6382661    0.0019681   -2.1969282  
N    0.7324017    0.0038483   -2.1202240  
C   -1.4770912    0.0027320   -3.3154810  
C   -2.8395474    0.0020946   -3.0876860  
O   -3.7039199    0.0024426   -4.1440353  
C   -3.3517867    0.0013927   -1.7684331  
O   -4.7300496    0.0012363   -1.7073125  
C   -2.5248543    0.0009121   -0.6644818  
H   -1.1067568    0.0036992   -4.3313814  
H   -4.5940031    0.0021828   -3.7685133  
H   -4.9934602    0.0007260   -0.7819919  
H   -2.9462579    0.0005600    0.3339656  
H    2.1619896    0.0009357   -0.5342065  
C    0.0000000    0.0000000    1.4700000  
C    1.0541688    0.0001722    2.3260392  
C    0.5103138    0.0000454    3.6635956  
C   -0.9576371   -0.0002459    3.5155732  
N   -1.2018458    0.0001392    2.1615969  
C   -1.8348311   -0.0008317    4.5510609  
C   -1.2972847   -0.0009736    5.9014604  
O   -2.0050672   -0.0014265    6.9001319  
C    0.2542623   -0.0004184    6.0817573  
O    0.7184670   -0.0002256    7.2139121  
C    1.0974552   -0.0000873    4.8889129  
H    2.0940752    0.0005483    2.0517982  
H   -2.9081052   -0.0011668    4.4207061  
H    2.1707277    0.0000911    5.0223670  
H   -2.1128194   -0.0014912    1.7406791  
