60

C    5.6528274   -3.5923851   -1.3774560  
C    5.6441270   -2.9417550   -2.5895087  
C    6.8259607   -3.3377188   -3.2831099  
C    7.5225095   -4.2388768   -2.4377348  
N    6.7837215   -4.3698450   -1.2881010  
C    8.7356800   -4.8317426   -2.8003879  
C    9.2549980   -4.5092502   -4.0391312  
O   10.4366138   -5.0599155   -4.4435630  
C    8.5750179   -3.6119128   -4.8965850  
O    9.2206999   -3.3918748   -6.0957597  
C    7.3782915   -3.0264525   -4.5393619  
H    7.0235525   -4.9539019   -0.5074992  
H    9.2715754   -5.5192385   -2.1605685  
H   10.6151576   -4.7064235   -5.3247163  
H    8.6958194   -2.7751367   -6.6151226  
H    6.8806142   -2.3427390   -5.2171016  
H    4.9425375   -3.5622743   -0.5690374  
C    4.6014569   -2.0165232   -3.0560759  
C    3.4769382   -1.6328847   -2.4081112  
C    2.8127343   -0.7151039   -3.3208056  
C    3.6989105   -0.6588457   -4.5032229  
N    4.7490138   -1.4197422   -4.3538640  
C    3.3894076    0.1527205   -5.6480612  
C    2.2463729    0.8749431   -5.6134072  
O    1.8335177    1.6749946   -6.6111594  
C    1.3311611    0.8390159   -4.4347392  
O    0.3078539    1.5221556   -4.4719311  
C    1.6707636   -0.0012343   -3.2725974  
H    3.1397616   -1.9354141   -1.4314516  
H    4.0552368    0.1749493   -6.4984067  
H    0.9923250    2.0514417   -6.2951915  
C    1.0965514    0.0001358   -0.8010306  
C    0.0000000    0.0000000    0.0000000  
C   -1.1546565    0.0001470   -0.8669508  
C   -0.6372019    0.0003520   -2.2486278  
N    0.7342867    0.0007338   -2.1395012  
C   -1.4147744    0.0001354   -3.3608712  
C   -2.8576052   -0.0001047   -3.1854454  
O   -3.6427785   -0.0002490   -4.1244896  
C   -3.4275841   -0.0000727   -1.7311660  
O   -4.6406832    0.0000333   -1.5710049  
C   -2.4891868   -0.0001090   -0.6116739  
H   -1.0150456    0.0001617   -4.3654239  
H   -2.8919122   -0.0002919    0.3920871  
H    2.1388270    0.0000663   -0.5261650  
C    0.0000000    0.0000000    1.4700000  
C    1.0662921    0.0000102    2.3034270  
C    0.4961870   -0.0000064    3.6418889  
C   -0.9663858    0.0000850    3.4240247  
N   -1.2632773    0.0000084    2.1528658  
C   -1.8985362    0.0000517    4.5177257  
C   -1.3925775   -0.0004564    5.7720543  
O   -2.1456383   -0.0005410    6.8851312  
C    0.0786232   -0.0009323    6.0245000  
O    0.4683759   -0.0012588    7.1921102  
C    1.0143166   -0.0008442    4.8859032  
H    2.1107198   -0.0000632    2.0421868  
H   -2.9622183    0.0003270    4.3293377  
H   -1.5042274   -0.0009692    7.6184419  
H    2.0724152   -0.0013148    5.1109744  
