62

C   -2.4230947    2.2463020   -1.5420426  
C   -1.8949929    1.7575085   -0.3695846  
C   -0.8829291    0.8185687   -0.7283585  
C   -0.8380475    0.7761344   -2.1454372  
N   -1.7873335    1.6534847   -2.6077461  
C    0.0474476   -0.0451884   -2.8497921  
C    0.9034335   -0.8378945   -2.1101402  
O    1.7887189   -1.6584859   -2.7472525  
C    0.8734845   -0.8098110   -0.6955265  
O    1.7873937   -1.6567849   -0.1032869  
C    0.0000000    0.0000000    0.0000000  
H   -2.2022566    2.0418121    0.6222589  
H    0.0865169   -0.0822342   -3.9297471  
H    2.2831179   -2.1166009   -2.0551794  
H    1.7016219   -1.5770266    0.8516404  
H   -3.2039467    2.9698385   -1.7024286  
C   -2.7165354    5.3825691   -4.7819000  
C   -2.4170994    4.4650468   -3.8266170  
C   -2.3348036    3.1828675   -4.4854633  
C   -2.6128049    3.4303926   -5.9131316  
N   -2.8363602    4.7831868   -6.0265378  
C   -2.6289749    2.4693657   -6.8711872  
C   -2.3544591    1.0997966   -6.4693694  
O   -2.3458145    0.1633717   -7.2576175  
C   -2.0576948    0.8146114   -4.9625829  
O   -1.8254650   -0.3345958   -4.6123642  
C   -2.0682040    1.9332898   -4.0232747  
H   -2.2707703    4.6637347   -2.7798483  
H   -2.8350575    2.6721947   -7.9129647  
H   -3.0512518    5.2616922   -6.8820501  
C   -2.5036451    7.9228742   -1.2479184  
C   -2.7740495    9.1462039   -1.7597037  
C   -2.9798749    8.9205830   -3.1821072  
C   -2.7906021    7.4648381   -3.3597834  
N   -2.5113046    6.8746676   -2.2294377  
C   -2.9121340    6.8330280   -4.6447469  
C   -3.2096229    7.6196849   -5.7039946  
O   -3.3529359    7.1643685   -6.9602543  
C   -3.4069260    9.0919560   -5.5568607  
O   -3.6755747    9.7463070   -6.5642699  
C   -3.2768777    9.7163928   -4.2282931  
H   -2.8273551   10.0856540   -1.2365714  
H   -3.5615771    7.9558888   -7.4885694  
H   -3.4274505   10.7856922   -4.1638158  
H   -2.2918454    7.6638904   -0.2227151  
C    2.5311839    2.1237619    3.0120429  
C    1.9795631    1.6616747    1.8395852  
C    0.9223175    0.7739173    2.1983588  
C    0.8753926    0.7337535    3.6154372  
N    1.8668922    1.5631002    4.0777464  
C   -0.0496243   -0.0427881    4.3197917  
C   -0.9437528   -0.7922060    3.5801400  
O   -1.8685244   -1.5680278    4.2172520  
C   -0.9124520   -0.7656372    2.1655264  
O   -1.8671164   -1.5663939    1.5732860  
C    0.0000000    0.0000000    1.4700000  
H    2.3005065    1.9304404    0.8477417  
H    2.0679347    1.7444845    5.0445261  
H   -0.0904770   -0.0778569    5.3997470  
H   -2.3849669   -2.0011402    3.5251786  
H   -1.7775064   -1.4909735    0.6183591  
H    3.3468514    2.8078103    3.1724291  
