62

C    1.4919828   -1.1073957   -9.4411309  
C    0.9857760   -0.0077410   -8.7876914  
C    1.1563798    1.1090789   -9.6584424  
C    1.7770807    0.6256470  -10.8386760  
N    1.9685456   -0.7235871  -10.6727670  
C    2.0969288    1.4539741  -11.9186582  
C    1.7842151    2.7946933  -11.8052561  
O    2.0743037    3.6479656  -12.8303361  
C    1.1651261    3.2960512  -10.6355625  
O    0.9180022    4.6527707  -10.6753671  
C    0.8495466    2.4795136   -9.5696335  
H    2.3798795   -1.3391030  -11.3509441  
H    2.5701596    1.0917193  -12.8208918  
H    1.7780614    4.5233924  -12.5490312  
H    0.4992108    4.9100339   -9.8483043  
H    0.3757271    2.8921897   -8.6866439  
H    1.5520980   -2.1348829   -9.1255120  
C    2.0577019   -2.1067617   -5.0538575  
C    2.0213371   -1.6421655   -6.3293585  
C    0.8918565   -0.7471753   -6.4193649  
C    0.2687259   -0.7282840   -5.0821507  
N    1.0227496   -1.5732438   -4.3008824  
C   -0.8287665    0.0000939   -4.7555305  
C   -1.4369816    0.8199928   -5.7901201  
O   -2.4278331    1.5117413   -5.5951874  
C   -0.7938994    0.8150427   -7.2135754  
O   -1.2973735    1.5011524   -8.0927953  
C    0.3886478   -0.0108725   -7.4444391  
H    2.7073334   -1.8974435   -7.1173024  
H    2.7533684   -2.7941800   -4.6006527  
H    0.8492697   -1.7702611   -3.3323080  
C    1.0672569   -0.0000698   -0.8321910  
C    0.0000000    0.0000000    0.0000000  
C   -1.1601223   -0.0000736   -0.8778472  
C   -0.5938729   -0.0000768   -2.2438435  
N    0.7113367   -0.0001553   -2.2234123  
C   -1.4286985   -0.0001877   -3.4135239  
C   -2.7683113   -0.0006798   -3.2270524  
O   -3.6653902   -0.0008302   -4.2276970  
C   -3.3702024   -0.0010610   -1.8610774  
O   -4.5974910   -0.0013779   -1.7662963  
C   -2.4926825   -0.0008943   -0.6770658  
H   -4.5324245   -0.0012258   -3.7833954  
H   -2.9677772   -0.0012974    0.2947961  
H    2.1134391   -0.0000547   -0.5705119  
C    2.5311839    2.1237619    3.0120429  
C    1.9795631    1.6616747    1.8395852  
C    0.9223175    0.7739173    2.1983588  
C    0.8753926    0.7337535    3.6154372  
N    1.8668922    1.5631002    4.0777464  
C   -0.0496243   -0.0427881    4.3197917  
C   -0.9437528   -0.7922060    3.5801400  
O   -1.8685244   -1.5680278    4.2172520  
C   -0.9124520   -0.7656372    2.1655264  
O   -1.8671164   -1.5663939    1.5732860  
C    0.0000000    0.0000000    1.4700000  
H    2.3005065    1.9304404    0.8477417  
H    2.0679347    1.7444845    5.0445261  
H   -0.0904770   -0.0778569    5.3997470  
H   -2.3849669   -2.0011402    3.5251786  
H   -1.7775064   -1.4909735    0.6183591  
H    3.3468514    2.8078103    3.1724291  
