62

C    8.9823671   -0.0028153   -2.3735989  
C   10.0369475   -0.0046530   -1.4902392  
C   11.2321687   -0.0056137   -2.2687280  
C   10.8408627   -0.0039918   -3.6321074  
N    9.4683362   -0.0042654   -3.6601374  
C   11.7625326   -0.0040642   -4.6834470  
C   13.1036539   -0.0054989   -4.3524330  
O   14.0460530   -0.0052848   -5.3398016  
C   13.5138111   -0.0075039   -2.9979652  
O   14.8834007   -0.0091790   -2.8319356  
C   12.6051135   -0.0077069   -1.9602781  
H    9.9548618   -0.0063353   -0.4168091  
H    8.9048286    0.0072142   -4.4909857  
H   11.4707356   -0.0029773   -5.7246270  
H   14.9049122   -0.0067329   -4.8975082  
H   15.0754932   -0.0104463   -1.8892253  
H   12.9491609   -0.0094459   -0.9326077  
C    6.5860086   -0.0008868    1.4009371  
C    7.6166242   -0.0011132    0.4897296  
C    7.0248897   -0.0012665   -0.8081343  
C    5.6184276   -0.0008354   -0.6243131  
N    5.3862298   -0.0025640    0.7287198  
C    4.7161325   -0.0005435   -1.6923264  
C    5.2432551   -0.0003826   -2.9691658  
O    4.4073057    0.0002541   -4.0481476  
C    6.6437146   -0.0011823   -3.1729577  
O    7.0119354   -0.0013265   -4.5025278  
C    7.5344416   -0.0017439   -2.1198052  
H    8.6658466   -0.0022670    0.7308191  
H    4.4806937    0.0078492    1.1621680  
H    4.9726182   -0.0000404   -4.8315292  
H    7.9727445   -0.0018527   -4.5520297  
H    6.6118216   -0.0011074    2.4771771  
C    3.2573665   -0.0002920   -1.5109385  
C    2.5379463   -0.0001709   -0.3591964  
C    1.1435038    0.0000331   -0.7338500  
C    1.1092599   -0.0000083   -2.2088477  
N    2.4227553    0.0001909   -2.6182613  
C   -0.0265539   -0.0002524   -2.9515660  
C   -1.3003040   -0.0002640   -2.2514977  
O   -2.3786790   -0.0004133   -2.8306421  
C   -1.2877727    0.0000311   -0.6895603  
O   -2.3539959    0.0003306   -0.0892030  
C    0.0000000    0.0000000    0.0000000  
H    2.9384091   -0.0000367    0.6389234  
H   -0.0296303   -0.0004086   -4.0327229  
H    2.7280482   -0.0013407   -3.5742119  
C    2.3971438    2.0127888    3.1728260  
C    1.9431056    1.6308205    1.9564670  
C    0.8496017    0.7127664    2.2356185  
C    0.7794028    0.6545384    3.7115134  
N    1.6840587    1.4146091    4.2663826  
C   -0.1885723   -0.1578550    4.3957118  
C   -1.0476298   -0.8789867    3.6398520  
O   -2.0015663   -1.6796266    4.1448486  
C   -1.0022026   -0.8410666    2.1483229  
O   -1.8147390   -1.5232959    1.5241687  
C    0.0000000    0.0000000    1.4700000  
H    2.3054237    1.9346118    0.9892483  
H   -0.2170646   -0.1815267    5.4753125  
H   -2.4487139   -2.0549881    3.3649027  
H    3.2048689    2.6911772    3.3971983  
