60

C   -6.5739163    0.0018723   -5.8237888  
C   -5.5217493    0.0005832   -6.7100226  
C   -6.0821948    0.0005333   -8.0217017  
C   -7.4926588    0.0021200   -7.8716567  
N   -7.7572334    0.0009501   -6.5245796  
C   -8.3690866    0.0028231   -8.9609972  
C   -7.8115001    0.0022149  -10.2248316  
O   -8.6213377    0.0032077  -11.3235461  
C   -6.4065584    0.0002590  -10.3949847  
O   -6.0065639   -0.0005443  -11.7153439  
C   -5.5413392   -0.0007089   -9.3207777  
H   -4.4786106   -0.0013273   -6.4438443  
H   -8.6728934    0.0121949   -6.1129715  
H   -9.4450094    0.0038878   -8.8533403  
H   -8.0374046    0.0022515  -12.0931477  
H   -5.0448456   -0.0018386  -11.7417941  
H   -4.4697016   -0.0023891   -9.4822333  
C   -3.2941076    0.0012874   -2.9038237  
C   -4.0168015    0.0014138   -1.7541332  
C   -5.4101727    0.0018622   -2.1327525  
C   -5.4402198    0.0019582   -3.6078415  
N   -4.1255647    0.0019955   -4.0135168  
C   -6.5739158    0.0019523   -4.3537883  
C   -7.8496529    0.0020702   -3.6573468  
O   -8.9263750    0.0021359   -4.2395567  
C   -7.8415654    0.0022235   -2.0953801  
O   -8.9094927    0.0026302   -1.4980586  
C   -6.5557597    0.0019359   -1.4021586  
H   -3.6191803    0.0013980   -0.7548779  
H   -6.5588367    0.0018391   -0.3206253  
H   -3.8175535    0.0005036   -4.9685944  
C    0.0000000    0.0000000    0.0000000  
C    1.0541688   -0.0001722   -0.8560393  
C    0.5103135   -0.0000454   -2.1935957  
C   -0.9576374    0.0002459   -2.0455730  
N   -1.2018460   -0.0001391   -0.6915968  
C   -1.8348314    0.0008317   -3.0810607  
C   -1.2972851    0.0009737   -4.4314604  
O   -2.0050676    0.0014265   -5.4301315  
C    0.2542619    0.0004184   -4.6117571  
O    0.7184666    0.0002257   -5.7439121  
C    1.0974550    0.0000874   -3.4189130  
H    2.0940752   -0.0005483   -0.5817984  
H    2.1707276   -0.0000911   -3.5523671  
H   -2.1128194    0.0014912   -0.2706789  
C    3.2798086   -0.0005857    2.9199648  
C    2.5571146   -0.0005566    4.0696553  
C    1.1637436   -0.0001548    3.6910360  
C    1.1336965    0.0000200    2.2159470  
N    2.4483514    0.0001428    1.8102719  
C    0.0000000    0.0000000    1.4700000  
C   -1.2757367    0.0000186    2.1664417  
O   -2.3524596    0.0000640    1.5842315  
C   -1.2676493    0.0000873    3.7284083  
O   -2.3355761    0.0004100    4.3257297  
C    0.0181563   -0.0001760    4.4216297  
H    2.9547357   -0.0006076    5.0689105  
H    0.0150794   -0.0003319    5.5031631  
H    4.3498549   -0.0008612    2.7900019  
H    2.7563627   -0.0012824    0.8551938  
