60

C    4.2280224    0.5609076   -8.6040237  
C    5.3172674   -0.2786427   -8.6381954  
C    5.8189540   -0.2556445   -9.9732540  
C    4.9885177    0.6231761  -10.7148577  
N    4.0315789    1.1001412   -9.8538175  
C    5.1898896    0.8881795  -12.0728014  
C    6.2490564    0.2547100  -12.6933328  
O    6.4912415    0.4779589  -14.0179160  
C    7.0885750   -0.6258726  -11.9704220  
O    8.0992046   -1.1788423  -12.7294972  
C    6.8903446   -0.8879826  -10.6308210  
H    5.7021520   -0.8395870   -7.8038103  
H    3.3079177    1.7531122  -10.0944920  
H    4.5604587    1.5568309  -12.6437004  
H    7.2641443   -0.0541270  -14.2476366  
H    8.6192789   -1.7602092  -12.1663457  
H    7.5498018   -1.5673238  -10.1034794  
C    4.1774647   -0.7039260   -4.3991477  
C    3.1006054    0.0006263   -3.9654951  
C    2.5992403    0.7428150   -5.0980253  
C    3.4785679    0.4104973   -6.2351876  
N    4.4147932   -0.4705968   -5.7452436  
C    3.3361164    0.9100879   -7.4889112  
C    2.2439825    1.8371250   -7.7346381  
O    2.0321281    2.3416470   -8.8295706  
C    1.3005628    2.2033754   -6.5448385  
O    0.3778225    2.9830418   -6.7395979  
C    1.5546721    1.6002371   -5.2388884  
H    0.8967559    1.8588592   -4.4203626  
H    4.8177810   -1.3738065   -3.8485618  
H    5.1550885   -0.8824329   -6.2832024  
C    3.2798083    0.0005857   -1.4499652  
C    2.5571142    0.0005565   -2.5996556  
C    1.1637432    0.0001548   -2.2210361  
C    1.1336964   -0.0000200   -0.7459473  
N    2.4483512   -0.0001428   -0.3402723  
C    0.0000000    0.0000000    0.0000000  
C   -1.2757368   -0.0000186   -0.6964415  
O   -2.3524598   -0.0000639   -0.1142311  
C   -1.2676497   -0.0000872   -2.2584083  
O   -2.3355766   -0.0004101   -2.8557295  
C    0.0181558    0.0001758   -2.9516296  
H    0.0150788    0.0003319   -4.0331631  
H    4.3498547    0.0008612   -1.3200026  
H    2.7563626    0.0012823    0.6148059  
C    0.8681109    0.7263879    2.2709268  
C    0.6127770    0.5096195    3.5869401  
C   -0.4920590   -0.4175482    3.6542670  
C   -0.8620974   -0.7254003    2.2596025  
N    0.0000000    0.0000000    1.4700000  
C   -1.8641242   -1.5660088    1.8976294  
C   -2.6293522   -2.2103885    2.9520183  
O   -3.5512764   -2.9839180    2.7283916  
C   -2.2549728   -1.8987399    4.4361073  
O   -2.8923672   -2.4351063    5.3323774  
C   -1.1543735   -0.9755647    4.7012123  
H    1.1382914    0.9492124    4.4159191  
H   -2.1192137   -1.7782617    0.8686553  
H   -0.9013378   -0.7652422    5.7314848  
H    1.6172880    1.3558399    1.8188057  
