62

C    4.7012962   -1.0255991   -5.0388768  
C    5.5322583   -1.9179266   -4.4019150  
C    6.6251523   -2.1709530   -5.2829152  
C    6.4048997   -1.3983655   -6.4518994  
N    5.2271814   -0.7164333   -6.2714389  
C    7.2861514   -1.4010089   -7.5373380  
C    8.4103786   -2.1978613   -7.4408134  
O    9.3041845   -2.2376361   -8.4716100  
C    8.6474000   -2.9761539   -6.2828413  
O    9.8099360   -3.7168708   -6.3393243  
C    7.7783155   -2.9742436   -5.2117595  
H    5.3700381   -2.3359943   -3.4231935  
H    4.8188058   -0.0789027   -6.9308060  
H    7.1239201   -0.8145525   -8.4311796  
H   10.0043947   -2.8463711   -8.2025137  
H    9.8946902   -4.2128676   -5.5193199  
H    7.9862809   -3.5809611   -4.3381907  
C    2.8187457   -0.6703162   -3.3751030  
C    1.6628945    0.0339172   -3.2649299  
C    1.5111624    0.7878481   -4.4869776  
C    2.6817413    0.4627684   -5.3241509  
N    3.4355960   -0.4257736   -4.5926554  
C    2.9084914    0.9739993   -6.5606511  
C    1.9347546    1.9068215   -7.1030665  
O    2.0491225    2.4217977   -8.2076123  
C    0.6876137    2.2655760   -6.2337337  
O   -0.1388155    3.0500157   -6.6797485  
C    0.5525682    1.6499645   -4.9159183  
H    3.7735881    0.7223314   -7.1582968  
H   -0.3139096    1.9034591   -4.3203671  
H    3.2719313   -1.3472106   -2.6691812  
C    1.1243410    0.0100105   -0.7919003  
C    0.7474072    0.0234665   -2.1148542  
C   -0.6787384    0.0234379   -2.1414698  
C   -1.1201748    0.0098411   -0.7935547  
N    0.0000000    0.0000000    0.0000000  
C   -2.4730818    0.0063307   -0.4408240  
C   -3.3971962    0.0170429   -1.4675058  
O   -4.7313520    0.0145490   -1.1793468  
C   -2.9763654    0.0303020   -2.8186325  
O   -4.0166484    0.0394464   -3.7247625  
C   -1.6418567    0.0334992   -3.1673480  
H   -2.8160166   -0.0041569    0.5845966  
H   -5.1938823    0.0230023   -2.0274386  
H   -3.6464680    0.0481700   -4.6127343  
H   -1.3497475    0.0435647   -4.2109234  
H    2.1062466    0.0053162   -0.3505405  
C    0.0000000    0.0000000    1.4700000  
C    1.0662921    0.0000102    2.3034270  
C    0.4961870   -0.0000064    3.6418889  
C   -0.9663858    0.0000850    3.4240247  
N   -1.2632773    0.0000084    2.1528658  
C   -1.8985362    0.0000517    4.5177257  
C   -1.3925775   -0.0004564    5.7720543  
O   -2.1456383   -0.0005410    6.8851312  
C    0.0786232   -0.0009323    6.0245000  
O    0.4683759   -0.0012588    7.1921102  
C    1.0143166   -0.0008442    4.8859032  
H    2.1107198   -0.0000632    2.0421868  
H   -2.9622183    0.0003270    4.3293377  
H   -1.5042274   -0.0009692    7.6184419  
H    2.0724152   -0.0013148    5.1109744  
