62

C   -4.5558751    0.7960314   -7.5329404  
C   -3.6351213    0.0847390   -8.2669320  
C   -4.3614614   -0.6331378   -9.2627648  
C   -5.7330036   -0.3176197   -9.0860020  
N   -5.8160456    0.5509701   -8.0261563  
C   -6.7416181   -0.8485260   -9.8957093  
C   -6.3586615   -1.7134693  -10.9023845  
O   -7.3027916   -2.2603974  -11.7224474  
C   -4.9952617   -2.0407610  -11.0943160  
O   -4.7752736   -2.9157788  -12.1380077  
C   -3.9997317   -1.5175951  -10.2957280  
H   -6.6639201    0.9567872   -7.6734475  
H   -7.7887633   -0.6121344   -9.7660683  
H   -6.8285350   -2.8260315  -12.3456677  
H   -3.8300861   -3.0844597  -12.1994020  
H   -2.9639855   -1.7868487  -10.4666379  
H   -4.4135418    1.4576620   -6.6957157  
C   -1.2456296    0.0472577   -4.5828766  
C    0.0002605    0.0520438   -5.1230708  
C   -0.1629407    0.0660968   -6.5576456  
C   -1.6164593    0.0691566   -6.8107556  
N   -2.2165808    0.0569157   -5.5727758  
C   -2.1820820    0.0818099   -8.0442930  
C   -1.3004434    0.0929475   -9.1997693  
O   -1.7128481    0.1046491  -10.3521949  
C    0.2422766    0.0896871   -8.9552089  
O    0.9944621    0.0986747   -9.9202986  
C    0.7327427    0.0759264   -7.5793069  
H    0.9277601    0.0461943   -4.5787146  
H    1.8022635    0.0739577   -7.4185433  
H   -3.2072924    0.0572152   -5.4129701  
C    1.1243418    0.0099155   -0.7919003  
C    0.7474093    0.0234033   -2.1148542  
C   -0.6787365    0.0234953   -2.1414700  
C   -1.1201738    0.0099357   -0.7935546  
N    0.0000000    0.0000000    0.0000000  
C   -2.4730811    0.0065398   -0.4408241  
C   -3.3971945    0.0173300   -1.4675058  
O   -4.7313507    0.0149490   -1.1793472  
C   -2.9763626    0.0305537   -2.8186325  
O   -4.0166449    0.0397860   -3.7247623  
C   -1.6418538    0.0336381   -3.1673481  
H    1.4178738    0.0310004   -2.9571209  
H   -2.8160170   -0.0039189    0.5845965  
H   -5.1938800    0.0234412   -2.0274384  
H   -3.6464643    0.0484782   -4.6127344  
H    2.1062469    0.0051381   -0.3505407  
C    0.8175213    0.6860729    2.3021913  
C    0.0000000    0.0000000    1.4700000  
C   -0.8887526   -0.7456559    2.3478473  
C   -0.4549825   -0.3816753    3.7138435  
N    0.5448156    0.4573574    3.6934124  
C   -1.0945674   -0.9182058    4.8835240  
C   -2.1210866   -1.7789155    4.6970523  
O   -2.8083856   -2.3554314    5.6976972  
C   -2.5824069   -2.1655116    3.3310774  
O   -3.5227682   -2.9541547    3.2362962  
C   -1.9100805   -1.6015804    2.1470656  
H   -0.7567140   -0.6349833    5.8697035  
H   -3.4728268   -2.9124471    5.2533954  
H   -2.2742832   -1.9066565    1.1752040  
H    1.6189533    1.3585343    2.0405121  
