60

C   -3.9846534    0.7173437   -1.8067787  
C   -3.3460098   -0.0004261   -2.7913644  
C   -4.3511567   -0.7286177   -3.4942278  
C   -5.5942658   -0.4124284   -2.8887285  
N   -5.3355279    0.4664778   -1.8663802  
C   -6.8075837   -0.9520445   -3.3262933  
C   -6.7652526   -1.8265514   -4.3947613  
O   -7.9207781   -2.3822411   -4.8627191  
C   -5.5346850   -2.1546694   -5.0118978  
O   -5.6585305   -3.0397397   -6.0629245  
C   -4.3373009   -1.6229124   -4.5805841  
H   -6.0265586    0.8750933   -1.2634780  
H   -7.7583635   -0.7151928   -2.8689968  
H   -7.6698755   -2.9536129   -5.6001788  
H   -4.7826150   -3.2082910   -6.4234334  
H   -3.4104553   -1.8930392   -5.0729928  
H   -3.5832772    1.3872843   -1.0658091  
C    0.0000000    0.0000000    0.0000000  
C    1.0662918   -0.0000103   -0.8334272  
C    0.4961866    0.0000066   -2.1718888  
C   -0.9663862   -0.0000848   -1.9540246  
N   -1.2632777   -0.0000084   -0.6828658  
C   -1.8985367   -0.0000514   -3.0477256  
C   -1.3925783    0.0004569   -4.3020543  
O   -2.1456389    0.0005417   -5.4151310  
C    0.0786225    0.0009329   -4.5544999  
O    0.4683752    0.0012595   -5.7221105  
C    1.0143159    0.0008446   -3.4159033  
H    2.1107193    0.0000632   -0.5721869  
H   -1.5042282    0.0009699   -6.1484418  
C    4.2926939   -2.1403416   -1.5040825  
C    5.3604699   -1.7320207   -2.2284491  
C    4.8134469   -0.8208702   -3.2219631  
C    3.3612062   -0.7952317   -2.9446121  
N    3.0500060   -1.5667024   -1.9386414  
C    2.4521470    0.0014842   -3.7217487  
C    2.9703718    0.7393572   -4.7298763  
O    2.2390450    1.5283422   -5.5352977  
C    4.4316761    0.7349409   -5.0343922  
O    4.8335641    1.4307763   -5.9668731  
C    5.3436383   -0.0906362   -4.2228059  
H    6.3919426   -2.0142022   -2.1038967  
H    2.8845110    1.9211532   -6.1502982  
H    6.3952192   -0.0661685   -4.4754112  
H    4.2782624   -2.8230633   -0.6694231  
C    0.0000000    0.0000000    1.4700000  
C    1.0541688    0.0001722    2.3260392  
C    0.5103138    0.0000454    3.6635956  
C   -0.9576371   -0.0002459    3.5155732  
N   -1.2018458    0.0001392    2.1615969  
C   -1.8348311   -0.0008317    4.5510609  
C   -1.2972847   -0.0009736    5.9014604  
O   -2.0050672   -0.0014265    6.9001319  
C    0.2542623   -0.0004184    6.0817573  
O    0.7184670   -0.0002256    7.2139121  
C    1.0974552   -0.0000873    4.8889129  
H    2.0940752    0.0005483    2.0517982  
H   -2.9081052   -0.0011668    4.4207061  
H    2.1707277    0.0000911    5.0223670  
H   -2.1128194   -0.0014912    1.7406791  
