60

C    6.8229604   -2.1212978    2.5681913  
C    6.9610045   -1.6599625    1.2795563  
C    8.0781398   -0.7730833    1.2722536  
C    8.5861264   -0.7326557    2.5959760  
N    7.7997908   -1.5610064    3.3576382  
C    9.6912841    0.0432018    2.9585519  
C   10.2948079    0.7916516    1.9667063  
O   11.3777343    1.5667750    2.2658212  
C    9.8024029    0.7648055    0.6401945  
O   10.5114003    1.5645708   -0.2321826  
C    8.7120167   -0.0001571    0.2818446  
H    6.3330205   -1.9286523    0.4474291  
H    7.9259618   -1.7419998    4.3370776  
H   10.0832349    0.0784671    3.9656928  
H   11.6396760    1.9992710    1.4426571  
H   10.1142486    1.4890255   -1.1052041  
H    6.1041166   -2.8045740    2.9869472  
C    4.7161325   -0.0005435   -1.6923264  
C    5.6747634   -0.0008966   -0.7370220  
C    6.9326496   -0.0010022   -1.4679270  
C    6.5359791   -0.0007821   -2.8924396  
N    5.2379004   -0.0004321   -3.0302104  
C    7.5063014   -0.0007614   -3.9524215  
C    8.8134762   -0.0005627   -3.6051048  
O    9.8251247   -0.0005273   -4.4897564  
C    9.2455284   -0.0004059   -2.1762968  
O   10.4523083   -0.0003525   -1.9335978  
C    8.2310902   -0.0004746   -1.1072594  
H    5.5443945   -0.0009742    0.3316593  
H    7.1881021   -0.0008049   -4.9847295  
H   10.6319771   -0.0003454   -3.9437325  
C    3.2573665   -0.0002920   -1.5109385  
C    2.5379463   -0.0001709   -0.3591964  
C    1.1435038    0.0000331   -0.7338500  
C    1.1092599   -0.0000083   -2.2088477  
N    2.4227553    0.0001909   -2.6182613  
C   -0.0265539   -0.0002524   -2.9515660  
C   -1.3003040   -0.0002640   -2.2514977  
O   -2.3786790   -0.0004133   -2.8306421  
C   -1.2877727    0.0000311   -0.6895603  
O   -2.3539959    0.0003306   -0.0892030  
C    0.0000000    0.0000000    0.0000000  
H    2.9384091   -0.0000367    0.6389234  
H   -0.0296303   -0.0004086   -4.0327229  
H    2.7280482   -0.0013407   -3.5742119  
C    0.8175213    0.6860729    2.3021913  
C    0.0000000    0.0000000    1.4700000  
C   -0.8887526   -0.7456559    2.3478473  
C   -0.4549825   -0.3816753    3.7138435  
N    0.5448156    0.4573574    3.6934124  
C   -1.0945674   -0.9182058    4.8835240  
C   -2.1210866   -1.7789155    4.6970523  
O   -2.8083856   -2.3554314    5.6976972  
C   -2.5824069   -2.1655116    3.3310774  
O   -3.5227682   -2.9541547    3.2362962  
C   -1.9100805   -1.6015804    2.1470656  
H   -0.7567140   -0.6349833    5.8697035  
H   -3.4728268   -2.9124471    5.2533954  
H   -2.2742832   -1.9066565    1.1752040  
H    1.6189533    1.3585343    2.0405121  
