62

C    1.1243409    0.0100070   -0.7919007  
C    0.7474068    0.0234643   -2.1148546  
C   -0.6787389    0.0234403   -2.1414699  
C   -1.1201744    0.0098447   -0.7935549  
N    0.0000000    0.0000000    0.0000000  
C   -2.4730818    0.0063386   -0.4408239  
C   -3.3971962    0.0170538   -1.4675059  
O   -4.7313518    0.0145642   -1.1793467  
C   -2.9763658    0.0303120   -2.8186320  
O   -4.0166485    0.0394598   -3.7247620  
C   -1.6418572    0.0335049   -3.1673484  
H   -2.8160158   -0.0041479    0.5845963  
H   -5.1938823    0.0230192   -2.0274378  
H   -3.6464686    0.0481820   -4.6127340  
H   -1.3497480    0.0435693   -4.2109233  
H    2.1062464    0.0053094   -0.3505411  
C    4.6004726   -1.9778649   -3.1213376  
C    3.4874117   -1.6024409   -2.4492285  
C    2.8049893   -0.6773435   -3.3408530  
C    3.6691788   -0.6083010   -4.5387649  
N    4.7231353   -1.3686135   -4.4159196  
C    3.3373083    0.2134339   -5.6700036  
C    2.1938855    0.9331678   -5.6075337  
O    1.7614046    1.7418104   -6.5899279  
C    1.3005623    0.8844367   -4.4126448  
O    0.2755919    1.5659892   -4.4245744  
C    1.6628942    0.0339122   -3.2649305  
H    3.1687607   -1.9147832   -1.4694426  
H    0.9255291    2.1136975   -6.2550170  
H    5.3726996   -2.6583955   -2.7995969  
C    5.7232495   -2.7778628   -7.9555821  
C    4.9013761   -2.2286622   -7.0311997  
C    4.8518614   -0.8139067   -7.3666324  
C    5.7256787   -0.6811412   -8.5521285  
N    6.2392293   -1.8291018   -8.9020463  
C    5.9447355    0.5837356   -9.1980286  
C    5.3189761    1.6666832   -8.6832616  
O    5.4330054    2.9083049   -9.1846741  
C    4.4305782    1.5649539   -7.4880382  
O    3.8934052    2.5920150   -7.0735373  
C    4.2218964    0.2562677   -6.8432767  
H    4.3916051   -2.7226107   -6.2217409  
H    6.5886041    0.6516545  -10.0627421  
H    4.8747058    3.4607313   -8.6082367  
H    6.0187933   -3.8105354   -8.0515759  
C    0.8676693    0.7151171    2.2619005  
C    0.5875920    0.4624972    3.5848544  
C   -0.5048400   -0.4542819    3.6114698  
C   -0.8517165   -0.7276451    2.2635546  
N    0.0000000    0.0000000    1.4700000  
C   -1.8902865   -1.5946756    1.9108239  
C   -2.5912627   -2.1969500    2.9375057  
O   -3.6148162   -3.0527051    2.6493466  
C   -2.2603868   -1.9365747    4.2886322  
O   -3.0513550   -2.6123276    5.1947621  
C   -1.2361111   -1.0811317    4.6373480  
H    1.1060808    0.8876438    4.4271209  
H   -2.1597133   -1.8070987    0.8854031  
H   -3.9636755   -3.3565188    3.4974381  
H   -2.7621927   -2.3810384    6.0827341  
H   -1.0058879   -0.9010589    5.6809233  
H    1.6167816    1.3499334    1.8205408  
