60

C   -0.2618279    0.5746544   -9.3363591  
C    0.8221428   -0.2650648   -9.4474756  
C    1.2297955   -0.2400928  -10.8141488  
C    0.3500797    0.6400503  -11.4948650  
N   -0.5445258    1.1158715  -10.5686398  
C    0.4566289    0.9071244  -12.8631147  
C    1.4698884    0.2744038  -13.5567611  
O    1.6194585    0.4996632  -14.8946330  
C    2.3573645   -0.6074738  -12.8953277  
O    3.3125968   -1.1594693  -13.7236847  
C    2.2526747   -0.8716266  -11.5455903  
H    1.2639353   -0.8273851   -8.6427337  
H   -1.2829659    1.7693643  -10.7574101  
H   -0.2107644    1.5767919  -13.3878386  
H    2.3743522   -0.0322229  -15.1783567  
H    3.8703864   -1.7418178  -13.1989509  
H    2.9469900   -1.5519223  -11.0664224  
C   -0.0202922   -0.6967077   -5.1400949  
C   -1.0641734    0.0073898   -4.6315339  
C   -1.6428383    0.7514419   -5.7253206  
C   -0.8448098    0.4207133   -6.9213805  
N    0.1229401   -0.4613335   -6.4990734  
C   -1.0739323    0.9222826   -8.1613951  
C   -2.1802185    1.8499244   -8.3291660  
O   -2.4675339    2.3561923   -9.4059403  
C   -3.0385134    2.2145166   -7.0760871  
O   -3.9723185    2.9946740   -7.2050180  
C   -2.6944047    1.6092961   -5.7918949  
H   -3.2937355    1.8667792   -4.9292081  
H    0.6565472   -1.3675748   -4.6363932  
H    0.8239110   -0.8724840   -7.0878369  
C    1.1319248    0.0015675   -0.8009270  
C    0.7969916    0.0034959   -2.1169404  
C   -0.6453336    0.0035703   -2.1842672  
C   -1.1266831    0.0015415   -0.7896027  
N    0.0000000    0.0000000    0.0000000  
C   -2.4346129    0.0013924   -0.4276297  
C   -3.4350110    0.0031352   -1.4820184  
O   -4.6384610    0.0030897   -1.2583919  
C   -2.9478958    0.0050460   -2.9661075  
O   -3.7809377    0.0062160   -3.8623775  
C   -1.5113821    0.0053068   -3.2312125  
H    1.4821240    0.0045436   -2.9459192  
H   -2.7664565    0.0000185    0.6013447  
H    2.1104318    0.0009428   -0.3488058  
C    2.4951002    2.0940188    2.9809380  
C    1.9440701    1.6314916    1.8291961  
C    0.8759964    0.7350050    2.2038498  
C    0.8497377    0.7130254    3.6788474  
N    1.8560616    1.5571714    4.0882609  
C   -0.0205033   -0.0168748    4.4215661  
C   -0.9962600   -0.8356168    3.7214979  
O   -1.8224391   -1.5286685    4.3006425  
C   -0.9864710   -0.8277881    2.1595606  
O   -1.8030528   -1.5133726    1.5592035  
C    0.0000000    0.0000000    1.4700000  
H    2.2509283    1.8888011    0.8310761  
H   -0.0229599   -0.0187323    5.5027230  
H    3.3143982    2.7817323    3.1139444  
H    2.0889452    1.7545833    5.0442112  
