60

C    7.0150381   -5.5043606   -4.6343556  
C    6.1216857   -4.5412715   -4.2258857  
C    6.5214107   -3.3162987   -4.8376553  
C    7.6745143   -3.5960620   -5.6148370  
N    7.9482691   -4.9332174   -5.4675585  
C    8.3404342   -2.6177107   -6.3592609  
C    7.8328825   -1.3336093   -6.3186225  
O    8.4440536   -0.3398927   -7.0271495  
C    6.6836237   -1.0347006   -5.5487684  
O    6.3019789    0.2896223   -5.6108919  
C    6.0263266   -1.9993125   -4.8139147  
H    5.2854970   -4.7016532   -3.5670543  
H    8.7044149   -5.4230405   -5.9106136  
H    9.2198312   -2.8244651   -6.9534956  
H    7.9364791    0.4652604   -6.8617399  
H    5.5191197    0.4065162   -5.0640180  
H    7.0612072   -6.5532080   -4.3961410  
C    4.5294740   -2.1111779   -2.7873606  
C    4.8355748   -1.6481497   -4.0267077  
C    3.7722454   -0.7522108   -4.4158861  
C    2.8147156   -0.7310539   -3.2936206  
N    3.3317095   -1.5757414   -2.3385760  
C    1.6707636   -0.0012343   -3.2725974  
C    1.3618921    0.8179368   -4.4328097  
O    0.3558258    1.5108615   -4.5101839  
C    2.3616940    0.8105940   -5.6328715  
O    2.1121101    1.4960723   -6.6152604  
C    3.5619233   -0.0167228   -5.5388103  
H    4.2491866   -0.0160733   -6.3739109  
H    5.0780198   -2.7986805   -2.1642017  
H    2.9056662   -1.7713787   -1.4512991  
C    1.0965514    0.0001358   -0.8010306  
C    0.0000000    0.0000000    0.0000000  
C   -1.1546565    0.0001470   -0.8669508  
C   -0.6372019    0.0003520   -2.2486278  
N    0.7342867    0.0007338   -2.1395012  
C   -1.4147744    0.0001354   -3.3608712  
C   -2.8576052   -0.0001047   -3.1854454  
O   -3.6427785   -0.0002490   -4.1244896  
C   -3.4275841   -0.0000727   -1.7311660  
O   -4.6406832    0.0000333   -1.5710049  
C   -2.4891868   -0.0001090   -0.6116739  
H   -1.0150456    0.0001617   -4.3654239  
H   -2.8919122   -0.0002919    0.3920871  
H    2.1388270    0.0000663   -0.5261650  
C    2.5128556    2.1077716    2.9199648  
C    1.9592212    1.6432552    4.0696553  
C    0.8915788    0.7479214    3.6910360  
C    0.8684491    0.7287414    2.2159470  
N    1.8754542    1.5738793    1.8102719  
C    0.0000000    0.0000000    1.4700000  
C   -0.9772830   -0.8200135    2.1664417  
O   -1.8021297   -1.5120829    1.5842315  
C   -0.9711318   -0.8147624    3.7284083  
O   -1.7894187   -1.5009653    4.3257297  
C    0.0140216    0.0115358    4.4216297  
H    2.2638494    1.8988021    5.0689105  
H    0.0117648    0.0094386    5.5031631  
H    3.3327358    2.7953732    2.7900019  
H    2.1123206    1.7707734    0.8551938  
