60

C    1.3013605   -2.3796165   -7.7933974  
C    0.8696306   -1.0761646   -7.7091951  
C    1.2064498   -0.4454442   -8.9434335  
C    1.8471241   -1.4217984   -9.7485391  
N    1.8900719   -2.5841420   -9.0193411  
C    2.3158836   -1.1500837  -11.0374237  
C    2.1343109    0.1305024  -11.5225105  
O    2.5726371    0.4499147  -12.7750513  
C    1.4977099    1.1185063  -10.7342190  
O    1.3924135    2.3445374  -11.3580001  
C    1.0352593    0.8512334   -9.4625150  
H    2.2782432   -3.4540988   -9.3363252  
H    2.8051334   -1.8897726  -11.6560497  
H    2.3497859    1.3796669  -12.9134806  
H    0.9512443    2.9539761  -10.7583682  
H    0.5517356    1.6284183   -8.8822861  
H    1.2372116   -3.1792057   -7.0754134  
C    0.5157023   -0.7055390   -5.2240925  
C   -0.2963293   -0.0005341   -4.3948471  
C   -1.2098551    0.7417637   -5.2310887  
C   -0.8609897    0.4090167   -6.6254926  
N    0.1928749   -0.4724046   -6.5523132  
C   -1.4945019    0.9085670   -7.7167381  
C   -2.5931305    1.8360110   -7.5036697  
O   -3.2264754    2.3405319   -8.4216202  
C   -2.9795614    2.2027197   -6.0353372  
O   -3.9026313    2.9827310   -5.8435412  
C   -2.2228515    1.5995820   -4.9410487  
H   -1.2229387    0.6514327   -8.7311565  
H   -2.4968365    1.8585228   -3.9273394  
H    1.3229471   -1.3756270   -4.9766502  
C    3.1301146   -0.0010313   -1.7028256  
C    2.5367765   -0.0002766   -0.4864669  
C    1.1089901    0.0001027   -0.7656184  
C    1.0177865   -0.0004150   -2.2415133  
N    2.1993571   -0.0011612   -2.7963824  
C   -0.2459219   -0.0002879   -2.9257116  
C   -1.3675326   -0.0000606   -2.1698520  
O   -2.6129318    0.0000865   -2.6748483  
C   -1.3083588    0.0000910   -0.6783229  
O   -2.3693264    0.0004206   -0.0541685  
C    0.0000000    0.0000000    0.0000000  
H    3.0096016   -0.0001007    0.4807518  
H   -3.1967444    0.0002093   -1.8949026  
H    4.1849275   -0.0015114   -1.9271979  
C    2.4951002    2.0940188    2.9809380  
C    1.9440701    1.6314916    1.8291961  
C    0.8759964    0.7350050    2.2038498  
C    0.8497377    0.7130254    3.6788474  
N    1.8560616    1.5571714    4.0882609  
C   -0.0205033   -0.0168748    4.4215661  
C   -0.9962600   -0.8356168    3.7214979  
O   -1.8224391   -1.5286685    4.3006425  
C   -0.9864710   -0.8277881    2.1595606  
O   -1.8030528   -1.5133726    1.5592035  
C    0.0000000    0.0000000    1.4700000  
H    2.2509283    1.8888011    0.8310761  
H   -0.0229599   -0.0187323    5.5027230  
H    3.3143982    2.7817323    3.1139444  
H    2.0889452    1.7545833    5.0442112  
