62

C    3.3854269   -3.0285937   -6.1897748  
C    4.2032810   -3.6789172   -5.2949782  
C    5.1105494   -4.4706780   -6.0595557  
C    4.7958275   -4.2609889   -7.4266352  
N    3.7425298   -3.3816182   -7.4700866  
C    5.4907130   -4.8851092   -8.4670185  
C    6.5222931   -5.7361817   -8.1210502  
O    7.2339950   -6.3713822   -9.0972731  
C    6.8511282   -5.9585365   -6.7626534  
O    7.9025023   -6.8332072   -6.5812500  
C    6.1658598   -5.3433748   -5.7357602  
H    4.1515284   -3.5940329   -4.2230131  
H    3.3081409   -3.0372802   -8.3071766  
H    5.2556644   -4.7296021   -9.5109402  
H    7.8969209   -6.9096273   -8.6455136  
H    8.0598269   -6.9279665   -5.6368595  
H    6.4404141   -5.5333213   -4.7047321  
C    2.2783844   -2.0910254   -5.9524496  
C    1.7853124   -1.6292409   -4.7744381  
C    0.6997746   -0.7327358   -5.0949402  
C    0.6001061   -0.7099358   -6.5667882  
N    1.5849247   -1.5536729   -7.0262771  
C   -0.3061446    0.0202239   -7.2648431  
C   -1.2459586    0.8383999   -6.5165965  
O   -2.1000525    1.5316277   -7.0534947  
C   -1.1584128    0.8296992   -4.9570884  
O   -1.9441938    1.5148019   -4.3164298  
C   -0.1387079    0.0017019   -4.3179684  
H    2.1415246   -1.8870539   -3.7929808  
H   -0.3624287    0.0226859   -8.3445354  
H    1.7699531   -1.7505084   -7.9927486  
C    3.3041273    0.0001178   -1.5420428  
C    2.5845373   -0.0004780   -0.3695851  
C    1.2040007   -0.0000007   -0.7283589  
C    1.1422374    0.0006038   -2.1454372  
N    2.4348641    0.0026111   -2.6077464  
C   -0.0655179    0.0008799   -2.8497918  
C   -1.2321766    0.0002325   -2.1101402  
O   -2.4392814    0.0001148   -2.7472522  
C   -1.1911209   -0.0000007   -0.6955266  
O   -2.4371528   -0.0002320   -0.1032862  
C    0.0000000    0.0000000    0.0000000  
H    3.0031533   -0.0000660    0.6222584  
H    2.7054631   -0.0071097   -3.5745261  
H   -3.1132988   -0.0000648   -2.0551787  
H   -2.3200282   -0.0004072    0.8516409  
H    4.3686625    0.0004073   -1.7024290  
C    0.8175213    0.6860729    2.3021913  
C    0.0000000    0.0000000    1.4700000  
C   -0.8887526   -0.7456559    2.3478473  
C   -0.4549825   -0.3816753    3.7138435  
N    0.5448156    0.4573574    3.6934124  
C   -1.0945674   -0.9182058    4.8835240  
C   -2.1210866   -1.7789155    4.6970523  
O   -2.8083856   -2.3554314    5.6976972  
C   -2.5824069   -2.1655116    3.3310774  
O   -3.5227682   -2.9541547    3.2362962  
C   -1.9100805   -1.6015804    2.1470656  
H   -0.7567140   -0.6349833    5.8697035  
H   -3.4728268   -2.9124471    5.2533954  
H   -2.2742832   -1.9066565    1.1752040  
H    1.6189533    1.3585343    2.0405121  
