62

C   -4.4516595    2.1220205   -0.2154630  
C   -5.6505107    1.6231913   -0.6697669  
C   -5.3525996    0.7489266   -1.7567399  
C   -3.9437155    0.7540398   -1.9208881  
N   -3.4276992    1.5994572   -0.9703017  
C   -3.2941075    0.0012873   -2.9038235  
C   -4.0810730   -0.7709252   -3.7360196  
O   -3.4983893   -1.5256630   -4.7126791  
C   -5.4884223   -0.7889639   -3.5881684  
O   -6.1319964   -1.6071818   -4.4935272  
C   -6.1299737   -0.0463973   -2.6188732  
H   -6.6205215    1.8611249   -0.2679462  
H   -2.4522689    1.7958516   -0.8363403  
H   -4.2167866   -1.9799196   -5.1718314  
H   -7.0781684   -1.5620013   -4.3252413  
H   -7.2095094   -0.0802620   -2.5298041  
H   -4.2460853    2.8103285    0.5863659  
C    0.0000000    0.0000000    0.0000000  
C    1.0541688   -0.0001722   -0.8560392  
C    0.5103135   -0.0000454   -2.1935954  
C   -0.9576375    0.0002459   -2.0455728  
N   -1.2018462   -0.0001392   -0.6915966  
C   -1.8348315    0.0008316   -3.0810604  
C   -1.2972851    0.0009737   -4.4314603  
O   -2.0050681    0.0014265   -5.4301316  
C    0.2542617    0.0004185   -4.6117570  
O    0.7184664    0.0002257   -5.7439119  
C    1.0974549    0.0000874   -3.4189129  
H    2.0940751   -0.0005482   -0.5817983  
H   -2.1128195    0.0014911   -0.2706785  
C    3.4580094   -0.7268426   -2.8377771  
C    4.7324998   -0.5102420   -3.2535095  
C    4.6631571    0.4171278   -4.3580512  
C    3.2335486    0.7252813   -4.5531172  
N    2.5562209   -0.0001551   -3.6003007  
C    2.7508561    1.5661430   -5.5026773  
C    3.7028844    2.2104962   -6.3920511  
O    3.3673528    2.9842405   -7.2792038  
C    5.2217690    1.8985308   -6.2037126  
O    6.0326405    2.4348721   -6.9467376  
C    5.6204815    0.9750994   -5.1443944  
H    5.6199065   -0.9500731   -2.8343767  
H    1.6983092    1.7786148   -5.6288126  
H    6.6740638    0.7645581   -5.0204570  
H    3.1016690   -1.3563645   -2.0386445  
C    0.0000000    0.0000000    1.4700000  
C    1.0521667    0.0011902    2.3562342  
C    0.4917218    0.0011957    3.6679131  
C   -0.9187428   -0.0003148    3.5178682  
N   -1.1833171    0.0009411    2.1707914  
C   -1.7951701   -0.0010350    4.6072090  
C   -1.2375837   -0.0005224    5.8710424  
O   -2.0474215   -0.0015360    6.9697579  
C    0.1673580    0.0013566    6.0411963  
O    0.5673524    0.0020687    7.3615553  
C    1.0325770    0.0023412    4.9669890  
H    2.0953057    0.0030649    2.0900562  
H   -2.0989778   -0.0102372    1.7591824  
H   -2.8710934   -0.0020419    4.4995513  
H   -1.4634884   -0.0006497    7.7393593  
H    1.5290710    0.0033153    7.3880045  
H    2.1042148    0.0039609    5.1284455  
