62

C    2.8541260   -0.6406701   -6.5910307  
C    4.1922238   -0.3880742   -6.7863691  
C    4.2881781    0.5306427   -7.8732696  
C    2.9649932    0.8051575   -8.3042566  
N    2.1189241    0.0763075   -7.5057820  
C    2.6789390    1.6741800   -9.3614996  
C    3.7480931    2.2772984   -9.9950103  
O    3.5255273    3.1349922  -11.0331996  
C    5.0754991    2.0157981   -9.5797638  
O    6.0300590    2.6926035  -10.3105820  
C    5.3584542    1.1583907   -8.5370200  
H    4.9998705   -0.8144786   -6.2163862  
H    1.6726840    1.8874891   -9.6948939  
H    4.3940819    3.4390928  -11.3271403  
H    6.8978863    2.4604472   -9.9662237  
H    6.3853174    0.9774945   -8.2415427  
H    2.3660652   -1.2766475   -5.8724986  
C   -1.2456296    0.0472577   -4.5828766  
C    0.0058404    0.0519619   -5.0980275  
C   -0.1823949    0.0659870   -6.5405493  
C   -1.6495596    0.0680016   -6.7249606  
N   -2.2780918    0.0571383   -5.5809245  
C   -2.2524138    0.0807966   -8.0293725  
C   -1.4270886    0.0914993   -9.1008472  
O   -1.8522588    0.1040203  -10.3756471  
C    0.0577063    0.0901652   -8.9474068  
O    0.7477518    0.1002103   -9.9666992  
C    0.6518707    0.0768892   -7.5988091  
H    0.9411980    0.0466696   -4.5649666  
H   -3.3275062    0.0817756   -8.1346577  
H   -1.0369298    0.1094333  -10.9089037  
C    1.1243418    0.0099155   -0.7919003  
C    0.7474093    0.0234033   -2.1148542  
C   -0.6787365    0.0234953   -2.1414700  
C   -1.1201738    0.0099357   -0.7935546  
N    0.0000000    0.0000000    0.0000000  
C   -2.4730811    0.0065398   -0.4408241  
C   -3.3971945    0.0173300   -1.4675058  
O   -4.7313507    0.0149490   -1.1793472  
C   -2.9763626    0.0305537   -2.8186325  
O   -4.0166449    0.0397860   -3.7247623  
C   -1.6418538    0.0336381   -3.1673481  
H    1.4178738    0.0310004   -2.9571209  
H   -2.8160170   -0.0039189    0.5845965  
H   -5.1938800    0.0234412   -2.0274384  
H   -3.6464643    0.0484782   -4.6127344  
H    2.1062469    0.0051381   -0.3505407  
C    2.5128556    2.1077716    2.9199648  
C    1.9592212    1.6432552    4.0696553  
C    0.8915788    0.7479214    3.6910360  
C    0.8684491    0.7287414    2.2159470  
N    1.8754542    1.5738793    1.8102719  
C    0.0000000    0.0000000    1.4700000  
C   -0.9772830   -0.8200135    2.1664417  
O   -1.8021297   -1.5120829    1.5842315  
C   -0.9711318   -0.8147624    3.7284083  
O   -1.7894187   -1.5009653    4.3257297  
C    0.0140216    0.0115358    4.4216297  
H    2.2638494    1.8988021    5.0689105  
H    0.0117648    0.0094386    5.5031631  
H    3.3327358    2.7953732    2.7900019  
H    2.1123206    1.7707734    0.8551938  
