62

C    2.5005942   -3.0785044   -8.9936618  
C    2.7167496   -2.9740646  -10.3482223  
C    2.4933720   -1.6103011  -10.7015666  
C    2.1408990   -0.9242838   -9.5111599  
N    2.1528770   -1.8455355   -8.4934327  
C    1.8503184    0.4430557   -9.4840428  
C    1.9170639    1.1304470  -10.6803770  
O    1.6433374    2.4672951  -10.7107780  
C    2.2665465    0.4635106  -11.8786562  
O    2.2891330    1.2858018  -12.9862082  
C    2.5530749   -0.8854406  -11.9061979  
H    2.9994533   -3.7817150  -11.0015016  
H    1.5808963    0.9717408   -8.5801040  
H    1.7463229    2.7462551  -11.6299296  
H    2.5338330    0.7576313  -13.7522113  
H    2.8175571   -1.3689899  -12.8393155  
H    2.5655492   -3.9352370   -8.3450102  
C    2.5365542   -2.0936798   -5.9975195  
C    2.0254114   -1.6312727   -4.8274822  
C    0.9452519   -0.7345686   -5.1651398  
C    0.8684328   -0.7123308   -6.6383657  
N    1.8600001   -1.5565500   -7.0821879  
C   -0.0266561    0.0178219   -7.3506841  
C   -0.9777112    0.8365829   -6.6174311  
O   -1.8231604    1.5298522   -7.1677880  
C   -0.9143687    0.8284832   -5.0567494  
O   -1.7097814    1.5140808   -4.4286288  
C    0.0950446    0.0004351   -4.4015596  
H    2.3662772   -1.8887983   -3.8405144  
H   -0.0661850    0.0198663   -8.4311199  
H    3.3507072   -2.7814877   -6.1586571  
C    3.3321173    0.0004713   -1.3379338  
C    2.6974181    0.0000116   -2.5332314  
C    1.2800438   -0.0002119   -2.2052841  
C    1.2395034    0.0000643   -0.7271299  
N    2.4394062    0.0005460   -0.2131038  
C    0.0000000    0.0000000    0.0000000  
C   -1.1468702    0.0000634   -0.7169543  
O   -2.3742203    0.0000074   -0.1695487  
C   -1.1388770    0.0001607   -2.2096355  
O   -2.2206234    0.0000905   -2.7970411  
C    0.1454522    0.0001815   -2.9324241  
H    3.1367984   -0.0000653   -3.5160950  
H   -2.9844346    0.0001026   -0.9290167  
H    4.3940038    0.0007618   -1.1498640  
C    2.5311839    2.1237619    3.0120429  
C    1.9795631    1.6616747    1.8395852  
C    0.9223175    0.7739173    2.1983588  
C    0.8753926    0.7337535    3.6154372  
N    1.8668922    1.5631002    4.0777464  
C   -0.0496243   -0.0427881    4.3197917  
C   -0.9437528   -0.7922060    3.5801400  
O   -1.8685244   -1.5680278    4.2172520  
C   -0.9124520   -0.7656372    2.1655264  
O   -1.8671164   -1.5663939    1.5732860  
C    0.0000000    0.0000000    1.4700000  
H    2.3005065    1.9304404    0.8477417  
H    2.0679347    1.7444845    5.0445261  
H   -0.0904770   -0.0778569    5.3997470  
H   -2.3849669   -2.0011402    3.5251786  
H   -1.7775064   -1.4909735    0.6183591  
H    3.3468514    2.8078103    3.1724291  
