62

C   -5.8332104    0.7157396    0.8279703  
C   -6.1530164    0.4668938    2.1426067  
C   -7.2527044   -0.4415508    2.1388212  
C   -7.5628620   -0.7139549    0.7817936  
N   -6.6832335    0.0062306    0.0122456  
C   -8.5974578   -1.5735326    0.4003121  
C   -9.3321419   -2.1692027    1.4070855  
O  -10.3534924   -3.0175383    1.0905683  
C   -9.0381695   -1.9096607    2.7668780  
O   -9.8599089   -2.5782759    3.6506430  
C   -8.0178351   -1.0615671    3.1439475  
H   -5.6556703    0.8891485    2.9989598  
H   -8.8389818   -1.7851836   -0.6321952  
H  -10.7288256   -3.3176460    1.9286169  
H   -9.5945732   -2.3480792    4.5463055  
H   -7.8162630   -0.8819458    4.1935111  
H   -5.0669453    1.3443141    0.4076252  
C   -3.2941076    0.0012874   -2.9038237  
C   -4.0470170    0.0024362   -1.7524795  
C   -5.4166997    0.0030165   -2.1506875  
C   -5.4378086    0.0018828   -3.5689539  
N   -4.1324579    0.0028008   -3.9940138  
C   -6.6248728    0.0017633   -4.3076465  
C   -7.8122586    0.0025002   -3.6017482  
O   -9.0006004    0.0020702   -4.2732066  
C   -7.8117774    0.0040101   -2.1865396  
O   -9.0742766    0.0050115   -1.6302683  
C   -6.6410879    0.0044022   -1.4571488  
H   -3.6570098    0.0039153   -0.7490428  
H   -3.8342563   -0.0082301   -4.9526250  
H   -6.6477244    0.0010461   -5.3887014  
H   -9.6941832    0.0030193   -3.6007429  
H   -8.9845787    0.0059773   -0.6723762  
C    0.0000000    0.0000000    0.0000000  
C    1.0541688   -0.0001722   -0.8560393  
C    0.5103135   -0.0000454   -2.1935957  
C   -0.9576374    0.0002459   -2.0455730  
N   -1.2018460   -0.0001391   -0.6915968  
C   -1.8348314    0.0008317   -3.0810607  
C   -1.2972851    0.0009737   -4.4314604  
O   -2.0050676    0.0014265   -5.4301315  
C    0.2542619    0.0004184   -4.6117571  
O    0.7184666    0.0002257   -5.7439121  
C    1.0974550    0.0000874   -3.4189130  
H    2.0940752   -0.0005483   -0.5817984  
H    2.1707276   -0.0000911   -3.5523671  
H   -2.1128194    0.0014912   -0.2706789  
C    1.0672568    0.0000697    2.3021913  
C    0.0000000    0.0000000    1.4700000  
C   -1.1601224    0.0000736    2.3478473  
C   -0.5938729    0.0000769    3.7138435  
N    0.7113367    0.0001554    3.6934124  
C   -1.4286986    0.0001879    4.8835240  
C   -2.7683114    0.0006799    4.6970523  
O   -3.6653903    0.0008304    5.6976972  
C   -3.3702025    0.0010610    3.3310774  
O   -4.5974910    0.0013779    3.2362962  
C   -2.4926826    0.0008943    2.1470656  
H   -0.9878360   -0.0000190    5.8697035  
H   -4.5324246    0.0012261    5.2533954  
H   -2.9677772    0.0012974    1.1752040  
H    2.1134392    0.0000545    2.0405121  
