62

C    1.3492432   -1.0679428   -7.3340839  
C    2.3425947   -1.9538783   -6.9864660  
C    3.1006072   -2.2135133   -8.1665534  
C    2.5181576   -1.4513579   -9.2114449  
N    1.4559570   -0.7690216   -8.6722201  
C    3.0096979   -1.4626068  -10.5202803  
C    4.1094331   -2.2574966  -10.7789502  
O    4.6303450   -2.3053870  -12.0396524  
C    4.7043143   -3.0254365   -9.7497748  
O    5.7916508   -3.7654893  -10.1661454  
C    4.2197629   -3.0150340   -8.4584075  
H    2.5006722   -2.3635569   -6.0035277  
H    0.8572094   -0.1376586   -9.1730824  
H    2.5702163   -0.8841209  -11.3211629  
H    5.3819880   -2.9110739  -12.0016850  
H    6.1339057   -4.2542378   -9.4114337  
H    4.6962633   -3.6139126   -7.6910948  
C    0.0902056   -0.6999988   -5.1620330  
C   -0.9736297    0.0040464   -4.6965763  
C   -1.5078553    0.7471499   -5.8133733  
C   -0.6620041    0.4159217   -6.9759623  
N    0.2881862   -0.4654793   -6.5142695  
C   -0.8409761    0.9165759   -8.2245694  
C   -1.9398965    1.8436897   -8.4375670  
O   -2.1836161    2.3491300   -9.5254236  
C   -2.8482829    2.2087977   -7.2204653  
O   -3.7763828    2.9885182   -7.3875798  
C   -2.5561685    1.6045646   -5.9229971  
H   -0.2091451    0.6605479   -9.0637052  
H   -3.1899802    1.8623998   -5.0854247  
H    0.7463587   -1.3702749   -4.6309189  
C    1.1188642    0.0008222   -0.8003808  
C    0.0000000    0.0000000    0.0000000  
C   -1.1323862    0.0008899   -0.8673528  
C   -0.6382663    0.0019679   -2.1969280  
N    0.7324016    0.0038481   -2.1202242  
C   -1.4770914    0.0027318   -3.3154808  
C   -2.8395473    0.0020945   -3.0876857  
O   -3.7039201    0.0024425   -4.1440349  
C   -3.3517868    0.0013931   -1.7684331  
O   -4.7300497    0.0012366   -1.7073121  
C   -2.5248543    0.0009123   -0.6644817  
H    1.3576314   -0.0056167   -2.9057046  
H   -4.5940032    0.0021826   -3.7685128  
H   -4.9934602    0.0007259   -0.7819913  
H   -2.9462577    0.0005603    0.3339659  
H    2.1619895    0.0009355   -0.5342068  
C    2.5528530    2.1414826    2.8079335  
C    2.0663498    1.7338582    4.0032312  
C    0.9804344    0.8229586    3.6752840  
C    0.9495562    0.7966882    2.1971295  
N    1.8690446    1.5676019    1.6831036  
C    0.0000000    0.0000000    1.4700000  
C   -0.8785127   -0.7372425    2.1869543  
O   -1.8187535   -1.5261249    1.6395491  
C   -0.8723269   -0.7321790    3.6796354  
O   -1.7010379   -1.4274584    4.2670412  
C    0.1115397    0.0933559    4.4024240  
H    2.4028853    2.0163452    4.9860947  
H   -2.2861435   -1.9184361    2.3990168  
H    0.0832434    0.0693689    5.4835595  
H    3.3664920    2.8238276    2.6198634  
