66

C    2.3020057   -2.1258166   -5.9826643  
C    1.8093620   -1.6631474   -4.7844546  
C    0.7354061   -0.7757530   -5.0906400  
C    0.6179773   -0.7364006   -6.5036468  
N    1.5853773   -1.5658598   -7.0142848  
C   -0.3411004    0.0396021   -7.1615064  
C   -1.1974273    0.7893049   -6.3786729  
O   -2.1529118    1.5646256   -6.9693851  
C   -1.0957283    0.7635435   -4.9673579  
O   -2.0198647    1.5644922   -4.3287681  
C   -0.1496415   -0.0015615   -4.3176961  
H    2.1793385   -1.9313019   -3.8096702  
H   -0.4356785    0.0740519   -8.2381070  
H   -2.6343336    1.9980531   -6.2526991  
H   -1.8828073    1.4896273   -3.3794446  
H    3.1087983   -2.8098331   -6.1830803  
C    2.1356820   -3.0559728   -8.9782516  
C    2.2840743   -2.9301130  -10.3400913  
C    2.0387642   -1.5621018  -10.6609781  
C    1.7433650   -0.8956868   -9.4441973  
N    1.8089419   -1.8321958   -8.4425652  
C    1.4497796    0.4698523   -9.3817534  
C    1.4547818    1.1755664  -10.5692386  
O    1.1752837    2.5115606  -10.5655385  
C    1.7467388    0.5283369  -11.7934423  
O    1.7115723    1.3674036  -12.8880076  
C    2.0361924   -0.8188271  -11.8558262  
H    2.5368314   -3.7265778  -11.0188774  
H    1.2236722    0.9836440   -8.4575811  
H    1.2316255    2.8048463  -11.4842739  
H    1.9198230    0.8519328  -13.6731980  
H    2.2557645   -1.2870670  -12.8082011  
H    2.2356560   -3.9221558   -8.3468313  
C    3.3003543    0.0005276   -1.4738987  
C    2.5232814    0.0003497   -2.6090747  
C    1.1623200   -0.0001320   -2.1820103  
C    1.1711883    0.0000582   -0.7636140  
N    2.4852300   -0.0014919   -0.3662360  
C    0.0000000    0.0000000    0.0000000  
C   -1.2020384    0.0000519   -0.6806477  
O   -2.3759249    0.0003493    0.0157743  
C   -1.2314656   -0.0005115   -2.0955510  
O   -2.5054392   -0.0008039   -2.6250180  
C   -0.0764516   -0.0007274   -2.8495195  
H    2.8919955   -0.0005620   -3.6205304  
H    2.8036267    0.0088183    0.5858662  
H   -3.0835638    0.0000347   -0.6418818  
H   -2.4360047   -0.0011529   -3.5845921  
H    4.3715549    0.0004895   -1.3667136  
C    2.5311839    2.1237619    3.0120429  
C    1.9795631    1.6616747    1.8395852  
C    0.9223175    0.7739173    2.1983588  
C    0.8753926    0.7337535    3.6154372  
N    1.8668922    1.5631002    4.0777464  
C   -0.0496243   -0.0427881    4.3197917  
C   -0.9437528   -0.7922060    3.5801400  
O   -1.8685244   -1.5680278    4.2172520  
C   -0.9124520   -0.7656372    2.1655264  
O   -1.8671164   -1.5663939    1.5732860  
C    0.0000000    0.0000000    1.4700000  
H    2.3005065    1.9304404    0.8477417  
H    2.0679347    1.7444845    5.0445261  
H   -0.0904770   -0.0778569    5.3997470  
H   -2.3849669   -2.0011402    3.5251786  
H   -1.7775064   -1.4909735    0.6183591  
H    3.3468514    2.8078103    3.1724291  
