64

C   -5.6010166   -0.7149978   -6.7612932  
C   -6.4752336    0.0040100   -5.9794753  
C   -7.3234605    0.7324133   -6.8652170  
C   -6.9162963    0.4150717   -8.1863673  
N   -5.8671149   -0.4646960   -8.0871476  
C   -7.5345006    0.9545496   -9.3184342  
C   -8.5830298    1.8301008   -9.1130706  
O   -9.2223783    2.3857079  -10.1833735  
C   -9.0036088    2.1593763   -7.8025348  
O  -10.0604105    3.0453974   -7.7640617  
C   -8.3940212    1.6277565   -6.6852575  
H   -5.3778270   -0.8742077   -8.8623114  
H   -7.2288250    0.7168217  -10.3280138  
H   -9.9120657    2.9579022   -9.8225558  
H  -10.2820012    3.2146976   -6.8432798  
H   -8.7380385    1.8987820   -5.6939573  
H   -4.8077920   -1.3854644   -6.4780480  
C   -3.2578655    0.0024039   -2.9908504  
C   -4.0046939    0.0033127   -1.8566891  
C   -5.3897520    0.0044627   -2.2646703  
C   -5.3886196    0.0041179   -3.7400651  
N   -4.0656854    0.0032561   -4.1178667  
C   -6.5062987    0.0045469   -4.5098036  
C   -7.7964683    0.0056314   -3.8404773  
O   -8.8606461    0.0061492   -4.4453120  
C   -7.8213913    0.0062654   -2.2786888  
O   -8.9017018    0.0074856   -1.7040695  
C   -6.5505228    0.0054371   -1.5584490  
H   -3.6282786    0.0033735   -0.8492543  
H   -6.5764550    0.0056781   -0.4772225  
H   -3.7375606    0.0012862   -5.0662218  
C    0.0000000    0.0000000    0.0000000  
C    1.0521667   -0.0011902   -0.8862342  
C    0.4917216   -0.0011957   -2.1979129  
C   -0.9187429    0.0003148   -2.0478680  
N   -1.1833171   -0.0009412   -0.7007912  
C   -1.7951702    0.0010350   -3.1372088  
C   -1.2375841    0.0005225   -4.4010424  
O   -2.0474217    0.0015360   -5.4997576  
C    0.1673577   -0.0013567   -4.5711964  
O    0.5673522   -0.0020688   -5.8915554  
C    1.0325769   -0.0023413   -3.4969890  
H    2.0953057   -0.0030649   -0.6200562  
H   -2.0989779    0.0102372   -0.2891821  
H   -1.4634887    0.0006498   -6.2693588  
H    1.5290708   -0.0033153   -5.9180049  
H    2.1042148   -0.0039610   -3.6584453  
C    1.1188642   -0.0008217    2.2703808  
C    0.0000000    0.0000000    1.4700000  
C   -1.1323862   -0.0008904    2.3373528  
C   -0.6382662   -0.0019682    3.6669281  
N    0.7324016   -0.0038477    3.5902241  
C   -1.4770914   -0.0027325    4.7854808  
C   -2.8395474   -0.0020958    4.5576857  
O   -3.7039201   -0.0024443    5.6140350  
C   -3.3517868   -0.0013946    3.2384331  
O   -4.7300496   -0.0012389    3.1773122  
C   -2.5248543   -0.0009135    2.1344818  
H    1.3576314    0.0056174    4.3757045  
H   -1.1067570   -0.0036993    5.8013813  
H   -4.5940033   -0.0021850    5.2385129  
H   -4.9934601   -0.0007286    2.2519915  
H   -2.9462578   -0.0005617    1.1360343  
H    2.1619896   -0.0009344    2.0042067  
