62

C    4.5822827   -0.5410618   -8.8877385  
C    5.3257140   -0.4335980  -10.0402256  
C    5.2607266    0.9305392  -10.4519368  
C    4.4569827    1.6136584   -9.5036379  
N    4.0598268    0.6903933   -8.5685100  
C    4.1771735    2.9805130   -9.5942199  
C    4.7188525    3.6703905  -10.6613807  
O    4.4777108    5.0068932  -10.7978499  
C    5.5229906    3.0063634  -11.6180655  
O    5.9881885    3.8308984  -12.6215973  
C    5.7992222    1.6578922  -11.5294821  
H    5.8494267   -1.2395259  -10.5251992  
H    3.5652112    3.5069949   -8.8748309  
H    4.9417421    5.2878403  -11.5972304  
H    6.5219420    3.3046194  -13.2247072  
H    6.4183243    1.1765969  -12.2775105  
H    4.3821940   -1.3989927   -8.2689669  
C    4.2034631   -0.7255618   -4.3886923  
C    4.4527393   -0.5087788   -5.7058645  
C    3.4509042    0.4181858   -6.1769257  
C    2.5913890    0.7259028   -5.0179029  
N    3.1006054    0.0006263   -3.9654951  
C    1.5263736    1.5663069   -5.0520708  
C    1.2050748    2.2105938   -6.3146857  
O    0.2656485    2.9839405   -6.4477801  
C    2.1016869    1.8990850   -7.5551920  
O    1.8407248    2.4353746   -8.6236268  
C    3.2224919    0.9761281   -7.3945733  
H    5.2475925   -0.9482343   -6.2817985  
H    0.9088838    1.7784637   -4.1903244  
H    4.7325170   -1.3548952   -3.6916046  
C    3.2798083    0.0005857   -1.4499652  
C    2.5571142    0.0005565   -2.5996556  
C    1.1637432    0.0001548   -2.2210361  
C    1.1336964   -0.0000200   -0.7459473  
N    2.4483512   -0.0001428   -0.3402723  
C    0.0000000    0.0000000    0.0000000  
C   -1.2757368   -0.0000186   -0.6964415  
O   -2.3524598   -0.0000639   -0.1142311  
C   -1.2676497   -0.0000872   -2.2584083  
O   -2.3355766   -0.0004101   -2.8557295  
C    0.0181558    0.0001758   -2.9516296  
H    0.0150788    0.0003319   -4.0331631  
H    4.3498547    0.0008612   -1.3200026  
H    2.7563626    0.0012823    0.6148059  
C    2.5285572    2.1210227    2.9438989  
C    1.9331703    1.6216660    4.0790748  
C    0.8903039    0.7472258    3.6520102  
C    0.8972198    0.7527806    2.2336141  
N    1.9028376    1.5986179    1.8362361  
C    0.0000000    0.0000000    1.4700000  
C   -0.9207814   -0.7726952    2.1506477  
O   -1.8198395   -1.5274828    1.4542253  
C   -0.9436862   -0.7911793    3.5655508  
O   -1.9197945   -1.6098497    4.0950179  
C   -0.0590329   -0.0485852    4.3195194  
H    2.2150357    1.8593692    5.0905303  
H    2.1533708    1.7953814    0.8841339  
H   -2.3621246   -1.9821033    2.1118817  
H   -1.8668290   -1.5649508    5.0545920  
H   -0.1007624   -0.0827977    5.4019087  
H    3.3491200    2.8096064    2.8367138  
