62

C   -0.4885191   -0.5430988   -9.5414477  
C   -0.2276859   -0.4359150  -10.8879043  
C   -0.4411943    0.9281709  -11.2460712  
C   -0.8339705    1.6115488  -10.0668136  
N   -0.8544336    0.6884806   -9.0508689  
C   -1.1272753    2.9784313  -10.0469543  
C   -1.0218657    3.6680711  -11.2392054  
O   -1.2963725    5.0045889  -11.2763260  
C   -0.6318445    3.0037840  -12.4263964  
O   -0.5737118    3.8281019  -13.5311422  
C   -0.3426028    1.6552852  -12.4467827  
H    0.0777126   -1.2419919  -11.5328586  
H   -1.4273119    3.5051097   -9.1515265  
H   -1.1633482    5.2853495  -12.1910630  
H   -0.3029616    3.3016550  -14.2895299  
H   -0.0466003    1.1737879  -13.3714568  
H   -0.4438810   -1.4009086   -8.8925042  
C    0.8351697   -0.7268778   -5.2248488  
C    0.5760704   -0.5103264   -6.5401621  
C   -0.5290498    0.4167164   -6.6044789  
C   -0.8951514    0.7247316   -5.2088119  
N   -0.0307352   -0.0004646   -4.4215603  
C   -1.8962323    1.5652877   -4.8441110  
C   -2.6645245    2.2094353   -5.8964112  
O   -3.5858897    2.9829009   -5.6702747  
C   -2.2943358    1.8976110   -7.3815147  
O   -2.9343337    2.4337813   -8.2760453  
C   -1.1943983    0.9745125   -7.6496164  
H    1.0992703   -0.9499842   -7.3705689  
H   -2.1484159    1.7776630   -3.8144458  
H    1.5856962   -1.3561862   -4.7747704  
C    3.2573670   -0.0002920   -1.5109380  
C    2.5379468   -0.0001709   -0.3591961  
C    1.1435043    0.0000332   -0.7338500  
C    1.1092609   -0.0000082   -2.2088477  
N    2.4227562    0.0001909   -2.6182613  
C   -0.0265532   -0.0002522   -2.9515663  
C   -1.3003035   -0.0002639   -2.2514981  
O   -2.3786784   -0.0004131   -2.8306429  
C   -1.2877725    0.0000312   -0.6895608  
O   -2.3539958    0.0003307   -0.0892036  
C    0.0000000    0.0000000    0.0000000  
H    2.9384091   -0.0000369    0.6389239  
H    4.3270394   -0.0004765   -1.6439446  
H    2.7280494   -0.0013406   -3.5742113  
C    2.5285572    2.1210227    2.9438989  
C    1.9331703    1.6216660    4.0790748  
C    0.8903039    0.7472258    3.6520102  
C    0.8972198    0.7527806    2.2336141  
N    1.9028376    1.5986179    1.8362361  
C    0.0000000    0.0000000    1.4700000  
C   -0.9207814   -0.7726952    2.1506477  
O   -1.8198395   -1.5274828    1.4542253  
C   -0.9436862   -0.7911793    3.5655508  
O   -1.9197945   -1.6098497    4.0950179  
C   -0.0590329   -0.0485852    4.3195194  
H    2.2150357    1.8593692    5.0905303  
H    2.1533708    1.7953814    0.8841339  
H   -2.3621246   -1.9821033    2.1118817  
H   -1.8668290   -1.5649508    5.0545920  
H   -0.1007624   -0.0827977    5.4019087  
H    3.3491200    2.8096064    2.8367138  
