62

C    5.7435531    0.7080494   -6.3058209  
C    5.6091810    0.4581551   -7.6519128  
C    6.6473288   -0.4512524   -8.0122269  
C    7.3897487   -0.7231359   -6.8345938  
N    6.8155224   -0.0017288   -5.8175125  
C    8.4917597   -1.5833983   -6.8170367  
C    8.8506595   -2.1803017   -8.0099642  
O    9.9186409   -3.0293485   -8.0493137  
C    8.1225845   -1.9212960   -9.1955610  
O    8.6043556   -2.5911486  -10.3012449  
C    7.0354825   -1.0725277   -9.2136752  
H    4.8562794    0.8803458   -8.2952539  
H    9.0618581   -1.7946586   -5.9228565  
H    9.9946550   -3.3302751   -8.9641525  
H    8.0571811   -2.3612424  -11.0584427  
H    6.4973998   -0.8933424  -10.1371674  
H    5.1604242    1.3375420   -5.6556982  
C    4.5679461   -0.0016854   -2.0086701  
C    5.6536976   -0.0029096   -1.1639161  
C    6.8200673   -0.0036910   -1.9850016  
C    6.3798481   -0.0025969   -3.3333827  
N    5.0072029   -0.0033438   -3.3118968  
C    7.2630028   -0.0026617   -4.4172768  
C    8.6151887   -0.0035460   -4.1348426  
O    9.5213679   -0.0032988   -5.1555548  
C    9.0739282   -0.0050196   -2.7960472  
O   10.4486141   -0.0061822   -2.6795165  
C    8.2032437   -0.0052295   -1.7262645  
H    5.6103771   -0.0043086   -0.0882233  
H    4.4140948    0.0077040   -4.1218859  
H   10.3956197   -0.0043278   -4.7445217  
H   10.6745772   -0.0071109   -1.7443460  
H    8.5841288   -0.0065539   -0.7116693  
C    3.1301149   -0.0010311   -1.7028252  
C    2.5367768   -0.0002767   -0.4864665  
C    1.1089904    0.0001028   -0.7656183  
C    1.0177872   -0.0004148   -2.2415132  
N    2.1993578   -0.0011611   -2.7963820  
C   -0.2459209   -0.0002877   -2.9257118  
C   -1.3675319   -0.0000605   -2.1698524  
O   -2.6129313    0.0000867   -2.6748490  
C   -1.3083584    0.0000910   -0.6783232  
O   -2.3693261    0.0004206   -0.0541692  
C    0.0000000    0.0000000    0.0000000  
H    3.0096017   -0.0001007    0.4807525  
H   -0.2829630   -0.0004687   -4.0053125  
H   -3.1967441    0.0002094   -1.8949034  
C    0.0000000    0.0000000    1.4700000  
C    1.0541688    0.0001722    2.3260392  
C    0.5103138    0.0000454    3.6635956  
C   -0.9576371   -0.0002459    3.5155732  
N   -1.2018458    0.0001392    2.1615969  
C   -1.8348311   -0.0008317    4.5510609  
C   -1.2972847   -0.0009736    5.9014604  
O   -2.0050672   -0.0014265    6.9001319  
C    0.2542623   -0.0004184    6.0817573  
O    0.7184670   -0.0002256    7.2139121  
C    1.0974552   -0.0000873    4.8889129  
H    2.0940752    0.0005483    2.0517982  
H   -2.9081052   -0.0011668    4.4207061  
H    2.1707277    0.0000911    5.0223670  
H   -2.1128194   -0.0014912    1.7406791  
