60

C   -4.6517725    2.1197503   -4.2897322  
C   -5.8859521    1.6203566   -4.6359594  
C   -5.6851584    0.7460437   -5.7449493  
C   -4.2963635    0.7517101   -6.0332932  
N   -3.6985041    1.5974890   -5.1322715  
C   -3.7360896   -0.0009298   -7.0698328  
C   -4.5933730   -0.7735964   -7.8289304  
O   -4.0992024   -1.5282483   -8.8532889  
C   -5.9820773   -0.7921904   -7.5569539  
O   -6.7029967   -1.6108156   -8.4016265  
C   -6.5355309   -0.0497353   -6.5347130  
H   -6.8166430    1.8579548   -4.1497958  
H   -2.7151237    1.7943054   -5.0852926  
H   -4.8552670   -1.9828727   -9.2469232  
H   -7.6305551   -1.5659975   -8.1501684  
H   -7.6029137   -0.0840298   -6.3503334  
H   -4.3762488    2.8082687   -3.5093558  
C   -0.2963294   -0.0005341   -4.3948471  
C    0.7407565   -0.0008427   -5.2643483  
C    0.1250898   -0.0009651   -6.5824732  
C   -1.3291522   -0.0008024   -6.3145845  
N   -1.5822800   -0.0004688   -5.0339928  
C   -2.2982584   -0.0008135   -7.3756780  
C   -1.8356090   -0.0005907   -8.6466189  
O   -2.6263952   -0.0005805   -9.7332184  
C   -0.3739301   -0.0003760   -8.9493653  
O   -0.0244449   -0.0003028  -10.1296537  
C    0.6002563   -0.0004129   -7.8435231  
H    1.7935279   -0.0008810   -5.0390757  
H   -2.0105073   -0.0003708  -10.4880914  
H    1.6500152   -0.0001373   -8.1047447  
C    3.1301143   -0.0010313   -1.7028257  
C    2.5367765   -0.0002767   -0.4864669  
C    1.1089900    0.0001027   -0.7656184  
C    1.0177864   -0.0004150   -2.2415133  
N    2.1993571   -0.0011613   -2.7963824  
C   -0.2459220   -0.0002879   -2.9257116  
C   -1.3675327   -0.0000606   -2.1698519  
O   -2.6129319    0.0000866   -2.6748482  
C   -1.3083588    0.0000910   -0.6783229  
O   -2.3693264    0.0004206   -0.0541685  
C    0.0000000    0.0000000    0.0000000  
H    3.0096014   -0.0001008    0.4807517  
H   -3.1967445    0.0002093   -1.8949025  
H    4.1849272   -0.0015113   -1.9271980  
C    0.8400945    0.7047457    2.2710304  
C    0.0000000    0.0000000    1.4700000  
C   -0.8844236   -0.7423113    2.3369512  
C   -0.4878984   -0.4098547    3.7186280  
N    0.5629682    0.4714286    3.6095011  
C   -1.0836927   -0.9095027    4.8308716  
C   -2.1891196   -1.8367527    4.6554461  
O   -2.7906899   -2.3413415    5.5944904  
C   -2.6257283   -2.2031529    3.2011665  
O   -3.5549479   -2.9829990    3.0410059  
C   -1.9068976   -1.5999348    2.0816745  
H   -0.7774656   -0.6525820    5.8354244  
H   -2.2155208   -1.8586617    1.0779135  
H    1.6384792    1.3747609    1.9961646  
H    1.0518368    0.8833920    4.3830260  
