60

C    5.7180524   -3.5699549   -1.3544609  
C    6.8510224   -4.3438218   -1.2545777  
C    7.5781171   -4.1763810   -2.4702650  
C    6.8337568   -3.2811967   -3.2805124  
N    5.7092834   -2.9338498   -2.5737404  
C    7.2534738   -2.8870666   -4.5545957  
C    8.4464993   -3.4058371   -5.0190796  
O    8.9032463   -3.0540009   -6.2562569  
C    9.2032030   -4.3006396   -4.2256408  
O   10.3675622   -4.7297112   -4.8285554  
C    8.7896163   -4.6901054   -2.9687446  
H    7.1197576   -4.9548120   -0.4099087  
H    6.6906661   -2.2052505   -5.1771519  
H    9.7391550   -3.5216941   -6.3818927  
H   10.8183947   -5.3298678   -4.2267522  
H    9.3903392   -5.3771085   -2.3842479  
H    4.9148101   -3.4225287   -0.6530150  
C    4.6658421   -2.0084115   -3.0381693  
C    3.5410041   -1.6272099   -2.3893213  
C    2.8760349   -0.7078757   -3.2998926  
C    3.7621637   -0.6481452   -4.4821752  
N    4.8129012   -1.4085091   -4.3345739  
C    3.4519840    0.1658071   -5.6251348  
C    2.3083475    0.8869943   -5.5888132  
O    1.8948251    1.6890059   -6.5847139  
C    1.3931661    0.8475793   -4.4102331  
O    0.3692897    1.5299496   -4.4458473  
C    1.7334695    0.0049281   -3.2500363  
H    3.2040799   -1.9322774   -1.4133643  
H    4.1177943    0.1905568   -6.4754254  
H    1.0533189    2.0640199   -6.2678781  
C    1.1319246    0.0015678   -0.8009268  
C    0.7969914    0.0034958   -2.1169401  
C   -0.6453340    0.0035696   -2.1842669  
C   -1.1266832    0.0015410   -0.7896025  
N    0.0000000    0.0000000    0.0000000  
C   -2.4346129    0.0013913   -0.4276292  
C   -3.4350111    0.0031335   -1.4820181  
O   -4.6384614    0.0030875   -1.2583914  
C   -2.9478961    0.0050442   -2.9661074  
O   -3.7809382    0.0062135   -3.8623773  
C   -1.5113825    0.0053055   -3.2312122  
H   -2.7664565    0.0000174    0.6013448  
H   -1.1823533    0.0068381   -4.2614848  
H    2.1104316    0.0009435   -0.3488059  
C    0.8400945    0.7047457    2.2710304  
C    0.0000000    0.0000000    1.4700000  
C   -0.8844236   -0.7423113    2.3369512  
C   -0.4878984   -0.4098547    3.7186280  
N    0.5629682    0.4714286    3.6095011  
C   -1.0836927   -0.9095027    4.8308716  
C   -2.1891196   -1.8367527    4.6554461  
O   -2.7906899   -2.3413415    5.5944904  
C   -2.6257283   -2.2031529    3.2011665  
O   -3.5549479   -2.9829990    3.0410059  
C   -1.9068976   -1.5999348    2.0816745  
H   -0.7774656   -0.6525820    5.8354244  
H   -2.2155208   -1.8586617    1.0779135  
H    1.6384792    1.3747609    1.9961646  
H    1.0518368    0.8833920    4.3830260  
