62

C   -3.6651184    3.5876321    1.6096315  
C   -4.7144546    2.9357727    1.0042885  
C   -5.9010473    3.3295331    1.6909833  
C   -5.5101569    4.2306760    2.7142483  
N   -4.1459309    4.3637541    2.6381267  
C   -6.4245344    4.8216381    3.5914416  
C   -7.7578353    4.4972219    3.4325688  
O   -8.6929493    5.0459802    4.2616896  
C   -8.1674074    3.5998660    2.4177689  
O   -9.5287165    3.3777851    2.3884094  
C   -7.2658704    3.0162836    1.5522126  
H   -3.5858173    4.9483072    3.2318876  
H   -6.1329942    5.5091112    4.3734821  
H   -9.5471052    4.6913607    3.9825358  
H   -9.7209829    2.7611788    1.6753639  
H   -7.6092490    2.3325054    0.7847378  
H   -2.6115859    3.5592461    1.3900351  
C   -4.6051146    2.0113809   -0.1334481  
C   -3.4864971    1.6298266   -0.7927589  
C   -3.9518793    0.7119511   -1.8210700  
C   -5.4173874    0.6533631   -1.6328192  
N   -5.8061458    1.4130855   -0.6450553  
C   -6.2597396   -0.1589834   -2.4668584  
C   -5.6651267   -0.8797261   -3.4447642  
O   -6.3285773   -1.6802771   -4.2962291  
C   -4.1885399   -0.8414365   -3.6601389  
O   -3.7155091   -1.5233211   -4.5692573  
C   -3.3460097   -0.0004262   -2.7913647  
H   -2.4709777    1.9337813   -0.6045897  
H   -7.3277598   -0.1829238   -2.3066431  
H   -5.6384854   -2.0553379   -4.8726449  
C    0.0000000    0.0000000    0.0000000  
C    1.0662919   -0.0000103   -0.8334272  
C    0.4961868    0.0000066   -2.1718889  
C   -0.9663860   -0.0000849   -1.9540248  
N   -1.2632775   -0.0000084   -0.6828659  
C   -1.8985364   -0.0000515   -3.0477258  
C   -1.3925778    0.0004567   -4.3020543  
O   -2.1456385    0.0005412   -5.4151314  
C    0.0786229    0.0009326   -4.5544999  
O    0.4683756    0.0012594   -5.7221104  
C    1.0143162    0.0008443   -3.4159034  
H    2.1107195    0.0000631   -0.5721869  
H   -1.5042277    0.0009692   -6.1484420  
H    2.0724151    0.0013151   -3.6409746  
C    3.3041272   -0.0001177    3.0120429  
C    2.5845372    0.0004780    1.8395852  
C    1.2040006    0.0000008    2.1983588  
C    1.1422373   -0.0006037    3.6154372  
N    2.4348639   -0.0026109    4.0777464  
C   -0.0655181   -0.0008797    4.3197917  
C   -1.2321768   -0.0002324    3.5801400  
O   -2.4392816   -0.0001146    4.2172520  
C   -1.1911209    0.0000007    2.1655264  
O   -2.4371527    0.0002320    1.5732860  
C    0.0000000    0.0000000    1.4700000  
H    3.0031534    0.0000661    0.8477417  
H    2.7054629    0.0071099    5.0445261  
H   -0.1193549   -0.0014844    5.3997470  
H   -3.1132988    0.0000648    3.5251786  
H   -2.3200282    0.0004071    0.6183591  
H    4.3686625   -0.0004071    3.1724291  
