62

C    6.5895625   -3.2521089   -4.8818571  
C    7.6972066   -3.2080208   -5.6965030  
C    7.8253655   -1.8625790   -6.1525302  
C    6.7585998   -1.1250224   -5.5781202  
N    6.0263266   -1.9993125   -4.8139147  
C    6.5719751    0.2408850   -5.8110521  
C    7.4789387    0.8738277   -6.6386856  
O    7.3438090    2.2067500   -6.8995898  
C    8.5496501    0.1549640   -7.2214636  
O    9.3667353    0.9264872   -8.0217553  
C    8.7342157   -1.1926109   -6.9923266  
H    8.3338006   -4.0431278   -5.9338579  
H    5.7608855    0.8086911   -5.3763882  
H    8.0702866    2.4443559   -7.4903834  
H   10.0634233    0.3653186   -8.3757593  
H    9.5635647   -1.7166663   -7.4527868  
H    6.1559094   -4.0783863   -4.3450430  
C    4.5294740   -2.1111779   -2.7873606  
C    4.8355748   -1.6481497   -4.0267077  
C    3.7722454   -0.7522108   -4.4158861  
C    2.8147156   -0.7310539   -3.2936206  
N    3.3317095   -1.5757414   -2.3385760  
C    1.6707636   -0.0012343   -3.2725974  
C    1.3618921    0.8179368   -4.4328097  
O    0.3558258    1.5108615   -4.5101839  
C    2.3616940    0.8105940   -5.6328715  
O    2.1121101    1.4960723   -6.6152604  
C    3.5619233   -0.0167228   -5.5388103  
H    4.2491866   -0.0160733   -6.3739109  
H    5.0780198   -2.7986805   -2.1642017  
H    2.9056662   -1.7713787   -1.4512991  
C    1.0965514    0.0001358   -0.8010306  
C    0.0000000    0.0000000    0.0000000  
C   -1.1546565    0.0001470   -0.8669508  
C   -0.6372019    0.0003520   -2.2486278  
N    0.7342867    0.0007338   -2.1395012  
C   -1.4147744    0.0001354   -3.3608712  
C   -2.8576052   -0.0001047   -3.1854454  
O   -3.6427785   -0.0002490   -4.1244896  
C   -3.4275841   -0.0000727   -1.7311660  
O   -4.6406832    0.0000333   -1.5710049  
C   -2.4891868   -0.0001090   -0.6116739  
H   -1.0150456    0.0001617   -4.3654239  
H   -2.8919122   -0.0002919    0.3920871  
H    2.1388270    0.0000663   -0.5261650  
C    0.8576279    0.7185626    2.2703808  
C    0.0000000    0.0000000    1.4700000  
C   -0.8668858   -0.7285659    2.3373528  
C   -0.4876752   -0.4117774    3.6669281  
N    0.5635254    0.4678311    3.5902241  
C   -1.1297612   -0.9515493    4.7854808  
C   -2.1738724   -1.8268314    4.5576857  
O   -2.8357962   -2.3827064    5.6140350  
C   -2.5667212   -2.1555554    3.2384331  
O   -3.6226318   -3.0413663    3.1773122  
C   -1.9335634   -1.6236449    2.1344818  
H    1.0363952    0.8769718    4.3757045  
H   -0.8454472   -0.7142436    5.8013813  
H   -3.5178062   -2.9546422    5.2385129  
H   -3.8247440   -3.2102924    2.2519915  
H   -2.2566033   -1.8942483    1.1360343  
H    1.6567807    1.3889844    2.0042067  
