60

C    5.5734708   -4.2387910   -6.6825709  
C    5.9256788   -4.9027400   -5.5303614  
C    4.9838993   -4.5251922   -4.5278104  
C    4.0727202   -3.6214636   -5.1319239  
N    4.4606331   -3.4680668   -6.4398266  
C    3.0064170   -3.0442283   -4.4358013  
C    2.8570470   -3.3857547   -3.1056786  
O    1.8325786   -2.8514342   -2.3790557  
C    3.7561235   -4.2853863   -2.4850807  
O    3.4741598   -4.5246944   -1.1559564  
C    4.8084416   -4.8550142   -3.1711390  
H    6.7595448   -5.5754795   -5.4250832  
H    3.9960302   -2.8933057   -7.1193667  
H    1.9106844   -3.2160972   -1.4878853  
H    4.1276590   -5.1417266   -0.8127173  
H    5.4809363   -5.5406614   -2.6690281  
H    6.0288674   -4.2529137   -7.6579548  
C    2.0577021   -2.1067615   -5.0538589  
C    2.0213365   -1.6421649   -6.3293598  
C    0.8918560   -0.7471749   -6.4193661  
C    0.2687255   -0.7282836   -5.0821513  
N    1.0227497   -1.5732438   -4.3008835  
C   -0.8287665    0.0000939   -4.7555305  
C   -1.4369821    0.8199929   -5.7901197  
O   -2.4278334    1.5117412   -5.5951870  
C   -0.7939004    0.8150431   -7.2135754  
O   -1.2973746    1.5011527   -8.0927953  
C    0.3886470   -0.0108721   -7.4444394  
H    2.7073328   -1.8974429   -7.1173043  
H    0.8279778   -0.0085678   -8.4327244  
H    0.8492698   -1.7702610   -3.3323090  
C    1.0672569   -0.0000698   -0.8321910  
C    0.0000000    0.0000000    0.0000000  
C   -1.1601223   -0.0000736   -0.8778472  
C   -0.5938729   -0.0000768   -2.2438435  
N    0.7113367   -0.0001553   -2.2234123  
C   -1.4286985   -0.0001877   -3.4135239  
C   -2.7683113   -0.0006798   -3.2270524  
O   -3.6653902   -0.0008302   -4.2276970  
C   -3.3702024   -0.0010610   -1.8610774  
O   -4.5974910   -0.0013779   -1.7662963  
C   -2.4926825   -0.0008943   -0.6770658  
H   -4.5324245   -0.0012258   -3.7833954  
H   -2.9677772   -0.0012974    0.2947961  
H    2.1134391   -0.0000547   -0.5705119  
C    0.8681109    0.7263879    2.2709268  
C    0.6127770    0.5096195    3.5869401  
C   -0.4920590   -0.4175482    3.6542670  
C   -0.8620974   -0.7254003    2.2596025  
N    0.0000000    0.0000000    1.4700000  
C   -1.8641242   -1.5660088    1.8976294  
C   -2.6293522   -2.2103885    2.9520183  
O   -3.5512764   -2.9839180    2.7283916  
C   -2.2549728   -1.8987399    4.4361073  
O   -2.8923672   -2.4351063    5.3323774  
C   -1.1543735   -0.9755647    4.7012123  
H    1.1382914    0.9492124    4.4159191  
H   -2.1192137   -1.7782617    0.8686553  
H   -0.9013378   -0.7652422    5.7314848  
H    1.6172880    1.3558399    1.8188057  
