60

C    8.2934100    0.0026300   -2.1560088  
C    8.5459398    0.0045662   -3.5083006  
C    9.9634606    0.0066928   -3.6671443  
C   10.5280843    0.0056478   -2.3659428  
N    9.4863905    0.0051288   -1.4718009  
C   11.9078876    0.0068864   -2.1402663  
C   12.7327332    0.0089157   -3.2483298  
O   14.0878724    0.0098422   -3.0852133  
C   12.1883258    0.0103603   -4.5546366  
O   13.1400254    0.0127445   -5.5534386  
C   10.8272145    0.0094128   -4.7780200  
H    7.8002029    0.0055643   -4.2847460  
H    9.5795680   -0.0061910   -0.4722156  
H   12.3445082    0.0062441   -1.1510414  
H   14.4696988    0.0115347   -3.9726091  
H   12.6890350    0.0135667   -6.4032682  
H   10.4395172    0.0107459   -5.7900314  
C    5.7595788    0.0007157   -2.0216249  
C    4.7795901    0.0008674   -1.0815733  
C    5.4318892    0.0011976    0.2065811  
C    6.8826348    0.0012554   -0.0619861  
N    7.0143611    0.0005546   -1.4314889  
C    7.8422287    0.0019356    0.8976404  
C    7.4178682    0.0024330    2.2877673  
O    8.2055924    0.0029961    3.2246733  
C    5.8864730    0.0021296    2.5953925  
O    5.5172077    0.0022368    3.7619704  
C    4.9477883    0.0016667    1.4761414  
H    8.9010987    0.0020953    0.6792263  
H    3.8891760    0.0016643    1.6976444  
H    5.6706931    0.0004912   -3.0958635  
C    3.3321168    0.0004716   -1.3379341  
C    2.6974177    0.0000118   -2.5332316  
C    1.2800432   -0.0002116   -2.2052842  
C    1.2395033    0.0000644   -0.7271298  
N    2.4394059    0.0005460   -0.2131041  
C    0.0000000    0.0000000    0.0000000  
C   -1.1468704    0.0000635   -0.7169542  
O   -2.3742206    0.0000074   -0.1695488  
C   -1.1388774    0.0001608   -2.2096352  
O   -2.2206238    0.0000906   -2.7970409  
C    0.1454514    0.0001818   -2.9324241  
H    3.1367978   -0.0000649   -3.5160956  
H   -2.9844350    0.0001027   -0.9290164  
H    0.1083567    0.0003684   -4.0135594  
C    0.0000000    0.0000000    1.4700000  
C    1.0541688    0.0001722    2.3260392  
C    0.5103138    0.0000454    3.6635956  
C   -0.9576371   -0.0002459    3.5155732  
N   -1.2018458    0.0001392    2.1615969  
C   -1.8348311   -0.0008317    4.5510609  
C   -1.2972847   -0.0009736    5.9014604  
O   -2.0050672   -0.0014265    6.9001319  
C    0.2542623   -0.0004184    6.0817573  
O    0.7184670   -0.0002256    7.2139121  
C    1.0974552   -0.0000873    4.8889129  
H    2.0940752    0.0005483    2.0517982  
H   -2.9081052   -0.0011668    4.4207061  
H    2.1707277    0.0000911    5.0223670  
H   -2.1128194   -0.0014912    1.7406791  
