64

C    0.5767918   -0.9725074   -9.5180676  
C    0.8748524   -0.5547608  -10.7944355  
C    0.6207640    0.8479647  -10.8434212  
C    0.1660042    1.2337636   -9.5564568  
N    0.1492877    0.1040325   -8.7766831  
C   -0.1795762    2.5510219   -9.2399226  
C   -0.0636837    3.4960893  -10.2407194  
O   -0.3875719    4.7972864   -9.9857786  
C    0.3878435    3.1305920  -11.5312048  
O    0.4486870    4.1854806  -12.4182520  
C    0.7286823    1.8312258  -11.8442580  
H    1.2304932   -1.1838830  -11.5923825  
H   -0.5269720    2.8514838   -8.2610248  
H   -0.2371162    5.2821828  -10.8076698  
H    0.7625870    3.8532634  -13.2648350  
H    1.0712335    1.5812619  -12.8415830  
H    0.6339592   -1.9534680   -9.0782870  
C    1.8159014   -2.1156535   -5.3336802  
C    0.9337939   -1.6549081   -4.3839079  
C    0.0359167   -0.7660298   -5.0459591  
C    0.4223297   -0.7238309   -6.4100818  
N    1.5073773   -1.5530970   -6.5501063  
C   -0.2444660    0.0542446   -7.3612761  
C   -1.3211418    0.8031324   -6.9275549  
O   -2.0081608    1.5803927   -7.8146199  
C   -1.7216870    0.7745412   -5.5705127  
O   -2.8111769    1.5750117   -5.2955535  
C   -1.0641734    0.0073898   -4.6315339  
H    0.9377498   -1.9252651   -3.3418501  
H    1.9929858   -1.7332278   -7.4101753  
H   -2.7106169    2.0128237   -7.3118039  
H   -3.0163349    1.4981862   -4.3587439  
H    2.6416168   -2.7999470   -5.2393635  
C    1.1319248    0.0015675   -0.8009270  
C    0.7969916    0.0034959   -2.1169404  
C   -0.6453336    0.0035703   -2.1842672  
C   -1.1266831    0.0015415   -0.7896027  
N    0.0000000    0.0000000    0.0000000  
C   -2.4346129    0.0013924   -0.4276297  
C   -3.4350110    0.0031352   -1.4820184  
O   -4.6384610    0.0030897   -1.2583919  
C   -2.9478958    0.0050460   -2.9661075  
O   -3.7809377    0.0062160   -3.8623775  
C   -1.5113821    0.0053068   -3.2312125  
H    1.4821240    0.0045436   -2.9459192  
H   -2.7664565    0.0000185    0.6013447  
H    2.1104318    0.0009428   -0.3488058  
C    0.8676693    0.7151171    2.2619005  
C    0.5875920    0.4624972    3.5848544  
C   -0.5048400   -0.4542819    3.6114698  
C   -0.8517165   -0.7276451    2.2635546  
N    0.0000000    0.0000000    1.4700000  
C   -1.8902865   -1.5946756    1.9108239  
C   -2.5912627   -2.1969500    2.9375057  
O   -3.6148162   -3.0527051    2.6493466  
C   -2.2603868   -1.9365747    4.2886322  
O   -3.0513550   -2.6123276    5.1947621  
C   -1.2361111   -1.0811317    4.6373480  
H    1.1060808    0.8876438    4.4271209  
H   -2.1597133   -1.8070987    0.8854031  
H   -3.9636755   -3.3565188    3.4974381  
H   -2.7621927   -2.3810384    6.0827341  
H   -1.0058879   -0.9010589    5.6809233  
H    1.6167816    1.3499334    1.8205408  
