64

C    2.9349613   -3.0437124   -8.1226209  
C    2.4353748   -1.8210743   -7.7378656  
C    2.8000911   -0.8849355   -8.7503992  
C    3.5269405   -1.6002569   -9.7362655  
N    3.5920824   -2.9077884   -9.3230650  
C    4.0437859   -0.9923812  -10.8843712  
C    3.8225950    0.3622254  -11.0402370  
O    4.3049407    1.0058390  -12.1430141  
C    3.1000488    1.0932355  -10.0674232  
O    2.9644119    2.4332078  -10.3664557  
C    2.5901119    0.4942574   -8.9344112  
H    4.0379933   -3.6537536   -9.8257387  
H    4.5987344   -1.5319608  -11.6394124  
H    4.0431421    1.9315875  -12.0551766  
H    2.4648273    2.8534861   -9.6597845  
H    2.0408797    1.0800624   -8.2066374  
H    2.8757763   -4.0016813   -7.6350227  
C    1.9332186   -2.1183845   -5.2802478  
C    1.0132700   -1.6573355   -4.3672339  
C    0.1425864   -0.7692371   -5.0656547  
C    0.5838244   -0.7278053   -6.4130661  
N    1.6739347   -1.5567572   -6.5085374  
C   -0.0442371    0.0493839   -7.3909745  
C   -1.1378299    0.7981573   -7.0016524  
O   -1.7886904    1.5745663   -7.9163019  
C   -1.5929067    0.7703231   -5.6618963  
O   -2.6929018    1.5705681   -5.4317602  
C   -0.9736297    0.0040464   -4.6965763  
H    0.9751831   -1.9269941   -3.3256838  
H    0.2872455    0.0854191   -8.4195762  
H   -2.5110529    2.0070699   -7.4425944  
H   -2.9357434    1.4942920   -4.5039598  
H    2.7546830   -2.8023050   -5.1521544  
C    1.1188642    0.0008222   -0.8003808  
C    0.0000000    0.0000000    0.0000000  
C   -1.1323862    0.0008899   -0.8673528  
C   -0.6382663    0.0019679   -2.1969280  
N    0.7324016    0.0038481   -2.1202242  
C   -1.4770914    0.0027318   -3.3154808  
C   -2.8395473    0.0020945   -3.0876857  
O   -3.7039201    0.0024425   -4.1440349  
C   -3.3517868    0.0013931   -1.7684331  
O   -4.7300497    0.0012366   -1.7073121  
C   -2.5248543    0.0009123   -0.6644817  
H    1.3576314   -0.0056167   -2.9057046  
H   -4.5940032    0.0021826   -3.7685128  
H   -4.9934602    0.0007259   -0.7819913  
H   -2.9462577    0.0005603    0.3339659  
H    2.1619895    0.0009355   -0.5342068  
C    2.5528530    2.1414826    2.8079335  
C    2.0663498    1.7338582    4.0032312  
C    0.9804344    0.8229586    3.6752840  
C    0.9495562    0.7966882    2.1971295  
N    1.8690446    1.5676019    1.6831036  
C    0.0000000    0.0000000    1.4700000  
C   -0.8785127   -0.7372425    2.1869543  
O   -1.8187535   -1.5261249    1.6395491  
C   -0.8723269   -0.7321790    3.6796354  
O   -1.7010379   -1.4274584    4.2670412  
C    0.1115397    0.0933559    4.4024240  
H    2.4028853    2.0163452    4.9860947  
H   -2.2861435   -1.9184361    2.3990168  
H    0.0832434    0.0693689    5.4835595  
H    3.3664920    2.8238276    2.6198634  
