60

C    9.5786845   -0.7039717   -3.0653441  
C   10.9228483   -0.4521592   -3.2146148  
C   11.0576233    0.4558289   -4.3063992  
C    9.7507705    0.7249098   -4.7877076  
N    8.8767184    0.0032695   -4.0131849  
C    9.5027397    1.5831675   -5.8631909  
C   10.5938219    2.1809106   -6.4635409  
O   10.4085532    3.0280843   -7.5175736  
C   11.9054556    1.9246914   -5.9979394  
O   12.8855035    2.5950537   -6.7004088  
C   12.1509090    1.0779018   -4.9371731  
H   11.7095461   -0.8721939   -2.6115629  
H    8.5091061    1.7922882   -6.2348947  
H   11.2870256    3.3300134   -7.7828861  
H   13.7404127    2.3670751   -6.3225727  
H   13.1664933    0.9008346   -4.6029352  
H    9.0652537   -1.3332244   -2.3586704  
C    5.5868522   -0.0000782   -1.0681555  
C    6.8043822    0.0011469   -1.6695666  
C    6.5701482    0.0006863   -3.0943367  
C    5.1058548   -0.0008899   -3.2749812  
N    4.5679461   -0.0016854   -2.0086701  
C    4.4796781   -0.0013359   -4.4789772  
C    5.3028527   -0.0004129   -5.6768576  
O    4.8337330   -0.0007802   -6.8074448  
C    6.8558139    0.0010077   -5.5091789  
O    7.5591501    0.0014867   -6.5104674  
C    7.4139954    0.0016536   -4.1592585  
H    7.7577673    0.0020655   -1.1719033  
H    3.4041779   -0.0023678   -4.5894724  
H    5.3482113   -0.0001589   -0.0169941  
C    3.1301149   -0.0010311   -1.7028252  
C    2.5367768   -0.0002767   -0.4864665  
C    1.1089904    0.0001028   -0.7656183  
C    1.0177872   -0.0004148   -2.2415132  
N    2.1993578   -0.0011611   -2.7963820  
C   -0.2459209   -0.0002877   -2.9257118  
C   -1.3675319   -0.0000605   -2.1698524  
O   -2.6129313    0.0000867   -2.6748490  
C   -1.3083584    0.0000910   -0.6783232  
O   -2.3693261    0.0004206   -0.0541692  
C    0.0000000    0.0000000    0.0000000  
H    3.0096017   -0.0001007    0.4807525  
H   -0.2829630   -0.0004687   -4.0053125  
H   -3.1967441    0.0002094   -1.8949034  
C    2.3971438    2.0127888    3.1728260  
C    1.9431056    1.6308205    1.9564670  
C    0.8496017    0.7127664    2.2356185  
C    0.7794028    0.6545384    3.7115134  
N    1.6840587    1.4146091    4.2663826  
C   -0.1885723   -0.1578550    4.3957118  
C   -1.0476298   -0.8789867    3.6398520  
O   -2.0015663   -1.6796266    4.1448486  
C   -1.0022026   -0.8410666    2.1483229  
O   -1.8147390   -1.5232959    1.5241687  
C    0.0000000    0.0000000    1.4700000  
H    2.3054237    1.9346118    0.9892483  
H   -0.2170646   -0.1815267    5.4753125  
H   -2.4487139   -2.0549881    3.3649027  
H    3.2048689    2.6911772    3.3971983  
