64

C    7.5085288   -0.9834565   -4.7187877  
C    8.7651499   -0.5670157   -5.0928836  
C    8.6830079    0.8356834   -5.3384195  
C    7.3402330    1.2228125   -5.0954920  
N    6.6537123    0.0938643   -4.7229561  
C    6.8952170    2.5404187   -5.2392383  
C    7.8226866    3.4844727   -5.6351420  
O    7.4419005    4.7859540   -5.7905784  
C    9.1669345    3.1176419   -5.8826307  
O    9.9684257    4.1716360   -6.2699951  
C    9.6065941    1.8179317   -5.7412841  
H    9.6338708   -1.1969691   -5.1793538  
H    5.8731348    2.8418926   -5.0557621  
H    8.2307113    5.2700133   -6.0675785  
H   10.8589632    3.8385425   -6.4169512  
H   10.6423239    1.5669378   -5.9381244  
H    7.1540417   -1.9639813   -4.4507042  
C    4.4878226   -2.1225241   -1.5677350  
C    3.2260913   -1.6607473   -1.8631396  
C    3.3567347   -0.7724506   -2.9714994  
C    4.7330249   -0.7316531   -3.3122136  
N    5.3917971   -1.5611580   -2.4389678  
C    5.2292368    0.0455302   -4.3631886  
C    4.3194783    0.7949501   -5.0835265  
O    4.7499704    1.5713845   -6.1202716  
C    2.9423433    0.7677545   -4.7586013  
O    2.1641573    1.5685996   -5.5687977  
C    2.4521483    0.0014840   -3.7217481  
H    2.3228219   -1.9300608   -1.3429785  
H    6.3793122   -1.7421946   -2.4435516  
H    3.9654399    2.0043829   -6.4812287  
H    1.2487978    1.4927312   -5.2825022  
H    4.8146445   -2.8067982   -0.8035915  
C    0.0000000    0.0000000    0.0000000  
C    1.0662923   -0.0000101   -0.8334270  
C    0.4961873    0.0000065   -2.1718887  
C   -0.9663854   -0.0000848   -1.9540250  
N   -1.2632773   -0.0000083   -0.6828660  
C   -1.8985359   -0.0000514   -3.0477261  
C   -1.3925770    0.0004566   -4.3020547  
O   -2.1456378    0.0005414   -5.4151314  
C    0.0786240    0.0009326   -4.5545000  
O    0.4683767    0.0012591   -5.7221100  
C    1.0143171    0.0008444   -3.4159031  
H    2.1107200    0.0000633   -0.5721865  
H   -2.9622181   -0.0003268   -2.8593381  
H   -1.5042265    0.0009697   -6.1484419  
C    3.3041272   -0.0001177    3.0120429  
C    2.5845372    0.0004780    1.8395852  
C    1.2040006    0.0000008    2.1983588  
C    1.1422373   -0.0006037    3.6154372  
N    2.4348639   -0.0026109    4.0777464  
C   -0.0655181   -0.0008797    4.3197917  
C   -1.2321768   -0.0002324    3.5801400  
O   -2.4392816   -0.0001146    4.2172520  
C   -1.1911209    0.0000007    2.1655264  
O   -2.4371527    0.0002320    1.5732860  
C    0.0000000    0.0000000    1.4700000  
H    3.0031534    0.0000661    0.8477417  
H    2.7054629    0.0071099    5.0445261  
H   -0.1193549   -0.0014844    5.3997470  
H   -3.1132988    0.0000648    3.5251786  
H   -2.3200282    0.0004071    0.6183591  
H    4.3686625   -0.0004071    3.1724291  
