62

C    9.9956035   -0.7109927   -1.5026308  
C   11.2724816   -0.4607696   -1.9492154  
C   11.1604738    0.4482795   -3.0426885  
C    9.7793989    0.7196158   -3.2185758  
N    9.1001095   -0.0017590   -2.2684169  
C    9.2979059    1.5794168   -4.2103903  
C   10.2275560    2.1764128   -5.0395613  
O    9.8120198    3.0250237   -6.0245492  
C   11.6097892    1.9179503   -4.8800426  
O   12.4084502    2.5878265   -5.7837841  
C   12.0854886    1.0696371   -3.9019829  
H   12.1736987   -0.8825169   -1.5382040  
H    8.2465572    1.7902586   -4.3497243  
H   10.6091221    3.3261043   -6.4797890  
H   13.3259516    2.3583013   -5.6073920  
H   13.1498786    0.8908627   -3.8040560  
H    9.6526891   -1.3403748   -0.6993584  
C    6.6174604   -0.0017048    1.3537077  
C    5.3857487   -0.0012517    0.7819026  
C    5.5854749   -0.0008503   -0.6481130  
C    7.0449748   -0.0011377   -0.8640992  
N    7.6133361   -0.0012549    0.3888394  
C    7.6418659   -0.0012958   -2.0828796  
C    6.7899755   -0.0009489   -3.2605120  
O    7.2316310   -0.0009950   -4.4021083  
C    5.2415215   -0.0003889   -3.0553446  
O    4.5141879    0.0002133   -4.0393396  
C    4.7161325   -0.0005435   -1.6923264  
H    4.4446705   -0.0010220    1.3024658  
H    6.8814406   -0.0021126    2.3987936  
H    8.5996517   -0.0030072    0.5738417  
C    3.2573665   -0.0002920   -1.5109385  
C    2.5379463   -0.0001709   -0.3591964  
C    1.1435038    0.0000331   -0.7338500  
C    1.1092599   -0.0000083   -2.2088477  
N    2.4227553    0.0001909   -2.6182613  
C   -0.0265539   -0.0002524   -2.9515660  
C   -1.3003040   -0.0002640   -2.2514977  
O   -2.3786790   -0.0004133   -2.8306421  
C   -1.2877727    0.0000311   -0.6895603  
O   -2.3539959    0.0003306   -0.0892030  
C    0.0000000    0.0000000    0.0000000  
H    2.9384091   -0.0000367    0.6389234  
H   -0.0296303   -0.0004086   -4.0327229  
H    2.7280482   -0.0013407   -3.5742119  
C    2.5311839    2.1237619    3.0120429  
C    1.9795631    1.6616747    1.8395852  
C    0.9223175    0.7739173    2.1983588  
C    0.8753926    0.7337535    3.6154372  
N    1.8668922    1.5631002    4.0777464  
C   -0.0496243   -0.0427881    4.3197917  
C   -0.9437528   -0.7922060    3.5801400  
O   -1.8685244   -1.5680278    4.2172520  
C   -0.9124520   -0.7656372    2.1655264  
O   -1.8671164   -1.5663939    1.5732860  
C    0.0000000    0.0000000    1.4700000  
H    2.3005065    1.9304404    0.8477417  
H    2.0679347    1.7444845    5.0445261  
H   -0.0904770   -0.0778569    5.3997470  
H   -2.3849669   -2.0011402    3.5251786  
H   -1.7775064   -1.4909735    0.6183591  
H    3.3468514    2.8078103    3.1724291  
