60

C    3.3531864   -5.4652737   -7.8471856  
C    3.9487551   -4.9953765   -8.9947754  
C    3.6573710   -3.6013274   -9.0742937  
C    2.8742720   -3.2743163   -7.9377429  
N    2.7065911   -4.4292448   -7.2148046  
C    2.4049833   -1.9809185   -7.6893901  
C    2.7324445   -0.9997011   -8.6049003  
O    2.3004639    0.2804442   -8.4109042  
C    3.5124713   -1.3064274   -9.7452053  
O    3.7532136   -0.2211799  -10.5622875  
C    3.9755492   -2.5822316   -9.9909893  
H    4.5217041   -5.5850803   -9.6897381  
H    2.2020484   -4.5045482   -6.3500804  
H    2.6349138    0.7972544   -9.1554273  
H    4.2858636   -0.5141305  -11.3079869  
H    4.5708376   -2.7870320  -10.8731257  
H    3.3372637   -6.4577709   -7.4304690  
C    1.7704312   -2.0997831   -5.2515186  
C    1.5928585   -1.6333167   -6.5144327  
C    0.4607457   -0.7379007   -6.4771951  
C   -0.0100421   -0.7207976   -5.0790331  
N    0.8257127   -1.5670939   -4.3875226  
C   -1.0641734    0.0073898   -4.6315339  
C   -1.7831600    0.8289565   -5.5910244  
O   -2.7459474    1.5206789   -5.2862920  
C   -1.3021140    0.8259151   -7.0770897  
O   -1.8998117    1.5134385   -7.8939923  
C   -0.1528625    0.0000284   -7.4390071  
H    0.1740159    0.0036596   -8.4699583  
H    2.5118282   -2.7880436   -4.8793394  
H    0.7607705   -1.7654786   -3.4059561  
C    1.1319248    0.0015675   -0.8009270  
C    0.7969916    0.0034959   -2.1169404  
C   -0.6453336    0.0035703   -2.1842672  
C   -1.1266831    0.0015415   -0.7896027  
N    0.0000000    0.0000000    0.0000000  
C   -2.4346129    0.0013924   -0.4276297  
C   -3.4350110    0.0031352   -1.4820184  
O   -4.6384610    0.0030897   -1.2583919  
C   -2.9478958    0.0050460   -2.9661075  
O   -3.7809377    0.0062160   -3.8623775  
C   -1.5113821    0.0053068   -3.2312125  
H    1.4821240    0.0045436   -2.9459192  
H   -2.7664565    0.0000185    0.6013447  
H    2.1104318    0.0009428   -0.3488058  
C    0.8681109    0.7263879    2.2709268  
C    0.6127770    0.5096195    3.5869401  
C   -0.4920590   -0.4175482    3.6542670  
C   -0.8620974   -0.7254003    2.2596025  
N    0.0000000    0.0000000    1.4700000  
C   -1.8641242   -1.5660088    1.8976294  
C   -2.6293522   -2.2103885    2.9520183  
O   -3.5512764   -2.9839180    2.7283916  
C   -2.2549728   -1.8987399    4.4361073  
O   -2.8923672   -2.4351063    5.3323774  
C   -1.1543735   -0.9755647    4.7012123  
H    1.1382914    0.9492124    4.4159191  
H   -2.1192137   -1.7782617    0.8686553  
H   -0.9013378   -0.7652422    5.7314848  
H    1.6172880    1.3558399    1.8188057  
