60

C    5.0922379   -2.7956167   -7.3586206  
C    4.1949738   -1.8745009   -6.8698156  
C    4.5272293   -0.6175980   -7.4566727  
C    5.6450922   -0.8355216   -8.3021417  
N    5.9637356   -2.1681762   -8.2177821  
C    6.2429964    0.1876036   -9.0441081  
C    5.7023903    1.4537280   -8.9307432  
O    6.2471072    2.4893155   -9.6334929  
C    4.5874403    1.6911466   -8.0920932  
O    4.1659577    3.0047914   -8.0863458  
C    3.9972525    0.6823365   -7.3596269  
H    3.3995853   -2.0826508   -6.1748165  
H    6.7089037   -2.6194359   -8.7168519  
H    7.0952513    0.0280567   -9.6901795  
H    5.7265350    3.2726638   -9.4129585  
H    3.4100939    3.0791107   -7.4957959  
H    5.1803977   -3.8502457   -7.1612765  
C    2.8494834   -0.7287730   -3.3362168  
C    3.4912468   -0.5137437   -4.5134920  
C    2.6833704    0.4134335   -5.2701384  
C    1.5099399    0.7231864   -4.4311485  
N    1.6707636   -0.0012343   -3.2725974  
C    0.5077408    1.5643698   -4.7913042  
C    0.5901949    2.2074066   -6.0921655  
O   -0.2621867    2.9813187   -6.5078658  
C    1.8239371    1.8937370   -6.9973163  
O    1.9040961    2.4289607   -8.0947544  
C    2.8403299    0.9701079   -6.4996155  
H    4.4240235   -0.9544939   -4.8172678  
H   -0.3442074    1.7780236   -4.1608710  
H    3.1383512   -1.3576871   -2.5098315  
C    1.0965514    0.0001358   -0.8010306  
C    0.0000000    0.0000000    0.0000000  
C   -1.1546565    0.0001470   -0.8669508  
C   -0.6372019    0.0003520   -2.2486278  
N    0.7342867    0.0007338   -2.1395012  
C   -1.4147744    0.0001354   -3.3608712  
C   -2.8576052   -0.0001047   -3.1854454  
O   -3.6427785   -0.0002490   -4.1244896  
C   -3.4275841   -0.0000727   -1.7311660  
O   -4.6406832    0.0000333   -1.5710049  
C   -2.4891868   -0.0001090   -0.6116739  
H   -1.0150456    0.0001617   -4.3654239  
H   -2.8919122   -0.0002919    0.3920871  
H    2.1388270    0.0000663   -0.5261650  
C    0.8681109    0.7263879    2.2709268  
C    0.6127770    0.5096195    3.5869401  
C   -0.4920590   -0.4175482    3.6542670  
C   -0.8620974   -0.7254003    2.2596025  
N    0.0000000    0.0000000    1.4700000  
C   -1.8641242   -1.5660088    1.8976294  
C   -2.6293522   -2.2103885    2.9520183  
O   -3.5512764   -2.9839180    2.7283916  
C   -2.2549728   -1.8987399    4.4361073  
O   -2.8923672   -2.4351063    5.3323774  
C   -1.1543735   -0.9755647    4.7012123  
H    1.1382914    0.9492124    4.4159191  
H   -2.1192137   -1.7782617    0.8686553  
H   -0.9013378   -0.7652422    5.7314848  
H    1.6172880    1.3558399    1.8188057  
