66

C   -0.3289813   -0.9787374   -9.4671030  
C   -0.4995928   -0.5633244  -10.7674078  
C   -0.7559503    0.8392379  -10.7261816  
C   -0.7290191    1.2273469   -9.3621530  
N   -0.4691886    0.0990876   -8.6244976  
C   -0.9422915    2.5451087   -8.9464513  
C   -1.1869113    3.4883132   -9.9255862  
O   -1.4015425    4.7899033   -9.5751439  
C   -1.2181262    3.1204983  -11.2918048  
O   -1.4743394    4.1737242  -12.1452768  
C   -1.0080833    1.8206339  -11.7026108  
H   -0.4469680   -1.1938585  -11.6384129  
H   -0.9232115    2.8473272   -7.9084238  
H   -1.5504230    5.2732855  -10.3982110  
H   -1.4781746    3.8399917  -13.0476139  
H   -1.0382293    1.5688770  -12.7562657  
H   -0.1197913   -1.9588494   -9.0739390  
C    2.3136485   -2.1180444   -5.9171369  
C    1.6624057   -1.6181594   -7.0209780  
C    0.6419641   -0.7441445   -6.5420234  
C    0.7194929   -0.7504913   -5.1257342  
N    1.7437759   -1.5963709   -4.7793978  
C   -0.1387079    0.0017019   -4.3179684  
C   -1.0923525    0.7746131   -4.9514883  
O   -1.9557349    1.5288503   -4.2107391  
C   -1.1856784    0.7938843   -6.3634860  
O   -2.1870611    1.6126762   -6.8432319  
C   -0.3395499    0.0518701   -7.1609864  
H    1.8935977   -1.8552464   -8.0453476  
H    2.0414323   -1.7936219   -3.8410621  
H   -2.5301603    1.9837418   -4.8403212  
H   -2.1819310    1.5683235   -7.8042789  
H    3.1386340   -2.8065412   -5.8513307  
C    3.3041273    0.0001178   -1.5420428  
C    2.5845373   -0.0004780   -0.3695851  
C    1.2040007   -0.0000007   -0.7283589  
C    1.1422374    0.0006038   -2.1454372  
N    2.4348641    0.0026111   -2.6077464  
C   -0.0655179    0.0008799   -2.8497918  
C   -1.2321766    0.0002325   -2.1101402  
O   -2.4392814    0.0001148   -2.7472522  
C   -1.1911209   -0.0000007   -0.6955266  
O   -2.4371528   -0.0002320   -0.1032862  
C    0.0000000    0.0000000    0.0000000  
H    3.0031533   -0.0000660    0.6222584  
H    2.7054631   -0.0071097   -3.5745261  
H   -3.1132988   -0.0000648   -2.0551787  
H   -2.3200282   -0.0004072    0.8516409  
H    4.3686625    0.0004073   -1.7024290  
C    0.8676693    0.7151171    2.2619005  
C    0.5875920    0.4624972    3.5848544  
C   -0.5048400   -0.4542819    3.6114698  
C   -0.8517165   -0.7276451    2.2635546  
N    0.0000000    0.0000000    1.4700000  
C   -1.8902865   -1.5946756    1.9108239  
C   -2.5912627   -2.1969500    2.9375057  
O   -3.6148162   -3.0527051    2.6493466  
C   -2.2603868   -1.9365747    4.2886322  
O   -3.0513550   -2.6123276    5.1947621  
C   -1.2361111   -1.0811317    4.6373480  
H    1.1060808    0.8876438    4.4271209  
H   -2.1597133   -1.8070987    0.8854031  
H   -3.9636755   -3.3565188    3.4974381  
H   -2.7621927   -2.3810384    6.0827341  
H   -1.0058879   -0.9010589    5.6809233  
H    1.6167816    1.3499334    1.8205408  
