62

C    1.5988065   -3.2459782  -10.0449343  
C    1.8567905   -2.4776784  -11.1565218  
C    1.4860183   -1.1389566  -10.8325591  
C    1.0046557   -1.1516744   -9.4983728  
N    1.0850470   -2.4468902   -9.0505200  
C    0.5510305   -0.0006846   -8.8470385  
C    0.5842220    1.1847924   -9.5553611  
O    0.1533613    2.3386912   -8.9672377  
C    1.0606526    1.2176776  -10.8875581  
O    1.0301568    2.4734936  -11.4579436  
C    1.5080665    0.0825378  -11.5308348  
H    2.2613060   -2.8380115  -12.0868551  
H    0.8229873   -2.7612828   -8.1337529  
H    0.2600835    3.0372480   -9.6259427  
H    1.3680701    2.4077860  -12.3563313  
H    1.8671652    0.1386249  -12.5518052  
H    1.7392870   -4.3010029   -9.8832353  
C    1.8844579   -2.1024762   -5.2000023  
C    1.7579316   -1.6369210   -6.4693819  
C    0.6249276   -0.7419055   -6.4785611  
C    0.0979866   -0.7240444   -5.1005898  
N    0.9053924   -1.5695641   -4.3752753  
C   -0.9736297    0.0040464   -4.6965763  
C   -1.6535190    0.8247014   -5.6849139  
O   -2.6280812    1.5162660   -5.4198317  
C   -1.1127790    0.8208472   -7.1503115  
O   -1.6771971    1.5075996   -7.9911817  
C    0.0504536   -0.0048499   -7.4649009  
H    2.3864458   -1.8915801   -7.3040867  
H    2.6104401   -2.7902095   -4.7976804  
H    0.8008849   -1.7673171   -3.3970016  
C    1.1188642    0.0008222   -0.8003808  
C    0.0000000    0.0000000    0.0000000  
C   -1.1323862    0.0008899   -0.8673528  
C   -0.6382663    0.0019679   -2.1969280  
N    0.7324016    0.0038481   -2.1202242  
C   -1.4770914    0.0027318   -3.3154808  
C   -2.8395473    0.0020945   -3.0876857  
O   -3.7039201    0.0024425   -4.1440349  
C   -3.3517868    0.0013931   -1.7684331  
O   -4.7300497    0.0012366   -1.7073121  
C   -2.5248543    0.0009123   -0.6644817  
H    1.3576314   -0.0056167   -2.9057046  
H   -4.5940032    0.0021826   -3.7685128  
H   -4.9934602    0.0007259   -0.7819913  
H   -2.9462577    0.0005603    0.3339659  
H    2.1619895    0.0009355   -0.5342068  
C    0.8175213    0.6860729    2.3021913  
C    0.0000000    0.0000000    1.4700000  
C   -0.8887526   -0.7456559    2.3478473  
C   -0.4549825   -0.3816753    3.7138435  
N    0.5448156    0.4573574    3.6934124  
C   -1.0945674   -0.9182058    4.8835240  
C   -2.1210866   -1.7789155    4.6970523  
O   -2.8083856   -2.3554314    5.6976972  
C   -2.5824069   -2.1655116    3.3310774  
O   -3.5227682   -2.9541547    3.2362962  
C   -1.9100805   -1.6015804    2.1470656  
H   -0.7567140   -0.6349833    5.8697035  
H   -3.4728268   -2.9124471    5.2533954  
H   -2.2742832   -1.9066565    1.1752040  
H    1.6189533    1.3585343    2.0405121  
