60

C    1.5043352   -1.1098038   -9.4263643  
C    1.9908314   -0.7338956  -10.6570077  
C    1.7632941    0.6684939  -10.7840138  
C    1.1297749    1.0972151   -9.5895362  
N    0.9857760   -0.0077410   -8.7876914  
C    0.7572544    2.4261470   -9.3660229  
C    1.0294979    3.3389706  -10.3664304  
O    0.6872542    4.6497865  -10.2001659  
C    1.6605754    2.9304564  -11.5654615  
O    1.8630277    3.9569675  -12.4647014  
C    2.0281084    1.6195504  -11.7867547  
H    2.4518848   -1.3899800  -11.3753218  
H    0.2739896    2.7592639   -8.4578995  
H    0.9620576    5.1079406  -11.0050519  
H    2.2934282    3.5964459  -13.2459715  
H    2.5098757    1.3363725  -12.7152962  
H    1.4849191   -2.0771118   -8.9542449  
C    2.0577019   -2.1067617   -5.0538575  
C    2.0213371   -1.6421655   -6.3293585  
C    0.8918565   -0.7471753   -6.4193649  
C    0.2687259   -0.7282840   -5.0821507  
N    1.0227496   -1.5732438   -4.3008824  
C   -0.8287665    0.0000939   -4.7555305  
C   -1.4369816    0.8199928   -5.7901201  
O   -2.4278331    1.5117413   -5.5951874  
C   -0.7938994    0.8150427   -7.2135754  
O   -1.2973735    1.5011524   -8.0927953  
C    0.3886478   -0.0108725   -7.4444391  
H    2.7073334   -1.8974435   -7.1173024  
H    2.7533684   -2.7941800   -4.6006527  
H    0.8492697   -1.7702611   -3.3323080  
C    1.0672569   -0.0000698   -0.8321910  
C    0.0000000    0.0000000    0.0000000  
C   -1.1601223   -0.0000736   -0.8778472  
C   -0.5938729   -0.0000768   -2.2438435  
N    0.7113367   -0.0001553   -2.2234123  
C   -1.4286985   -0.0001877   -3.4135239  
C   -2.7683113   -0.0006798   -3.2270524  
O   -3.6653902   -0.0008302   -4.2276970  
C   -3.3702024   -0.0010610   -1.8610774  
O   -4.5974910   -0.0013779   -1.7662963  
C   -2.4926825   -0.0008943   -0.6770658  
H   -4.5324245   -0.0012258   -3.7833954  
H   -2.9677772   -0.0012974    0.2947961  
H    2.1134391   -0.0000547   -0.5705119  
C    2.4951002    2.0940188    2.9809380  
C    1.9440701    1.6314916    1.8291961  
C    0.8759964    0.7350050    2.2038498  
C    0.8497377    0.7130254    3.6788474  
N    1.8560616    1.5571714    4.0882609  
C   -0.0205033   -0.0168748    4.4215661  
C   -0.9962600   -0.8356168    3.7214979  
O   -1.8224391   -1.5286685    4.3006425  
C   -0.9864710   -0.8277881    2.1595606  
O   -1.8030528   -1.5133726    1.5592035  
C    0.0000000    0.0000000    1.4700000  
H    2.2509283    1.8888011    0.8310761  
H   -0.0229599   -0.0187323    5.5027230  
H    3.3143982    2.7817323    3.1139444  
H    2.0889452    1.7545833    5.0442112  
