62

C    6.4310841   -4.5872452   -5.5916947  
C    5.6581369   -3.4790748   -5.3328940  
C    6.1569396   -2.4230508   -6.1518025  
C    7.2435967   -2.9506635   -6.8952574  
N    7.3843032   -4.2663982   -6.5296601  
C    7.9764253   -2.1871078   -7.8088957  
C    7.6053287   -0.8669621   -7.9752693  
O    8.2867374   -0.0764812   -8.8549496  
C    6.5241679   -0.3222146   -7.2423601  
O    6.2782776    1.0067156   -7.5195342  
C    5.8009416   -1.0748222   -6.3406657  
H    4.8366241   -3.4367145   -4.6384045  
H    8.0680723   -4.9016239   -6.8996987  
H    8.8057654   -2.5832655   -8.3785058  
H    7.8714056    0.7949233   -8.8172792  
H    5.5337945    1.2965184   -6.9834705  
H    6.3787672   -5.5807417   -5.1803717  
C    4.3913909   -0.7046358   -4.2635300  
C    3.2973506   -0.0000934   -3.8752374  
C    2.8435632    0.7418821   -5.0277931  
C    3.7695327    0.4094499   -6.1272744  
N    4.6845872   -0.4714999   -5.5986041  
C    3.6794132    0.9088338   -7.3859241  
C    2.5984068    1.8357538   -7.6770942  
O    2.4323273    2.3400889   -8.7799829  
C    1.6062047    2.2021224   -6.5276970  
O    0.6923301    2.9816918   -6.7608611  
C    1.8057158    1.5992068   -5.2121969  
H    4.3690172    0.6519365   -8.1779845  
H    1.1142468    1.8579094   -4.4218375  
H    5.0082527   -1.3743839   -3.6866343  
C    3.3321174    0.0004714   -1.3379332  
C    2.6974186    0.0000115   -2.5332308  
C    1.2800441   -0.0002119   -2.2052838  
C    1.2395035    0.0000643   -0.7271293  
N    2.4394063    0.0005458   -0.2131034  
C    0.0000000    0.0000000    0.0000000  
C   -1.1468701    0.0000634   -0.7169542  
O   -2.3742201    0.0000072   -0.1695492  
C   -1.1388767    0.0001606   -2.2096354  
O   -2.2206229    0.0000903   -2.7970413  
C    0.1454526    0.0001815   -2.9324239  
H   -2.9844344    0.0001023   -0.9290168  
H    0.1083580    0.0003680   -4.0135594  
H    4.3940040    0.0007617   -1.1498630  
C    0.8676693    0.7151171    2.2619005  
C    0.5875920    0.4624972    3.5848544  
C   -0.5048400   -0.4542819    3.6114698  
C   -0.8517165   -0.7276451    2.2635546  
N    0.0000000    0.0000000    1.4700000  
C   -1.8902865   -1.5946756    1.9108239  
C   -2.5912627   -2.1969500    2.9375057  
O   -3.6148162   -3.0527051    2.6493466  
C   -2.2603868   -1.9365747    4.2886322  
O   -3.0513550   -2.6123276    5.1947621  
C   -1.2361111   -1.0811317    4.6373480  
H    1.1060808    0.8876438    4.4271209  
H   -2.1597133   -1.8070987    0.8854031  
H   -3.9636755   -3.3565188    3.4974381  
H   -2.7621927   -2.3810384    6.0827341  
H   -1.0058879   -0.9010589    5.6809233  
H    1.6167816    1.3499334    1.8205408  
