62

C    4.7390844    0.0009612   -1.2727295  
C    5.7457114    0.0027391   -2.2103679  
C    6.9802491    0.0028874   -1.4958638  
C    6.6612413    0.0008544   -0.1137797  
N    5.2920917    0.0016753   -0.0135510  
C    7.6369665    0.0001118    0.8875944  
C    8.9588074    0.0011387    0.4864546  
O    9.9518658    0.0001278    1.4228549  
C    9.2971110    0.0035435   -0.8877220  
O   10.6560644    0.0047303   -1.1256038  
C    8.3350583    0.0045506   -1.8761448  
H    5.6072448    0.0049039   -3.2779894  
H    4.7730889   -0.0099227    0.8457994  
H    7.4003706   -0.0012921    1.9426884  
H   10.7862571    0.0014113    0.9359723  
H   10.7982738    0.0063138   -2.0771173  
H    8.6245433    0.0065795   -2.9204976  
C    3.2798077    0.0005856   -1.4499659  
C    2.5571132    0.0005565   -2.5996562  
C    1.1637425    0.0001548   -2.2210364  
C    1.1336957   -0.0000200   -0.7459472  
N    2.4483508   -0.0001429   -0.3402728  
C    0.0000000    0.0000000    0.0000000  
C   -1.2757370   -0.0000187   -0.6964410  
O   -2.3524597   -0.0000640   -0.1142306  
C   -1.2676501   -0.0000873   -2.2584079  
O   -2.3355772   -0.0004101   -2.8557287  
C    0.0181552    0.0001759   -2.9516296  
H    2.9547343    0.0006074   -3.5989115  
H    2.7563624    0.0012823    0.6148054  
C    0.0139724    0.0003878   -4.4216237  
C    1.0657011    0.0004477   -5.2806588  
C    0.5180423    0.0007113   -6.6166627  
C   -0.9494814    0.0008300   -6.4644636  
N   -1.1898365    0.0002246   -5.1097981  
C   -1.8296185    0.0014748   -7.4974505  
C   -1.2959168    0.0018667   -8.8493745  
O   -2.0065381    0.0023907   -9.8460280  
C    0.2551110    0.0014974   -9.0340857  
O    0.7160923    0.0015156  -10.1675564  
C    1.1016946    0.0010811   -7.8436454  
H    2.1063836    0.0001392   -5.0093781  
H   -2.9025173    0.0016805   -7.3640431  
H    2.1745831    0.0010325   -7.9801532  
H   -2.0996089    0.0017004   -4.6862894  
C    0.0000000    0.0000000    1.4700000  
C    1.0521667    0.0011902    2.3562342  
C    0.4917218    0.0011957    3.6679131  
C   -0.9187428   -0.0003148    3.5178682  
N   -1.1833171    0.0009411    2.1707914  
C   -1.7951701   -0.0010350    4.6072090  
C   -1.2375837   -0.0005224    5.8710424  
O   -2.0474215   -0.0015360    6.9697579  
C    0.1673580    0.0013566    6.0411963  
O    0.5673524    0.0020687    7.3615553  
C    1.0325770    0.0023412    4.9669890  
H    2.0953057    0.0030649    2.0900562  
H   -2.0989778   -0.0102372    1.7591824  
H   -2.8710934   -0.0020419    4.4995513  
H   -1.4634884   -0.0006497    7.7393593  
H    1.5290710    0.0033153    7.3880045  
H    2.1042148    0.0039609    5.1284455  
