60

C   -1.2920599    4.2774141    1.9883274  
C   -1.9732859    3.4731406    1.1042783  
C   -3.3599868    3.5924213    1.4164207  
C   -3.4648963    4.4909143    2.5089540  
N   -2.1907594    4.8864812    2.8325584  
C   -4.6900170    4.8444335    3.0824469  
C   -5.8300218    4.2808931    2.5430138  
O   -7.0524647    4.5918760    3.0644897  
C   -5.7457950    3.3820496    1.4531498  
O   -6.9693810    2.9059349    1.0294814  
C   -4.5375006    3.0326342    0.8870587  
H   -1.5257083    2.8733157    0.3304068  
H   -1.9514654    5.5319610    3.5633612  
H   -4.7767008    5.5285299    3.9153337  
H   -7.7029584    4.0972870    2.5492186  
H   -6.8234255    2.3062605    0.2914490  
H   -0.2361076    4.4636841    2.0843866  
C   -4.4924722    2.0950382   -0.2442180  
C   -3.4157282    1.6323166   -0.9302112  
C   -3.9167334    0.7362614   -1.9455505  
C   -5.3841447    0.7147467   -1.7937840  
N   -5.6689496    1.5587225   -0.7452229  
C   -6.2266191   -0.0146660   -2.5683138  
C   -5.6495856   -0.8333370   -3.6215681  
O   -6.3243546   -1.5259653   -4.3720706  
C   -4.0978599   -0.8259952   -3.8001702  
O   -3.6005722   -1.5115249   -4.6833547  
C   -3.2941076    0.0012878   -2.9038237  
H   -2.3878038    1.8892262   -0.7458680  
H   -7.3001860   -0.0161878   -2.4403989  
H   -6.5897802    1.7563619   -0.3987296  
C    0.0000000    0.0000000    0.0000000  
C    1.0541688   -0.0001723   -0.8560392  
C    0.5103136   -0.0000455   -2.1935956  
C   -0.9576373    0.0002461   -2.0455730  
N   -1.2018460   -0.0001389   -0.6915968  
C   -1.8348314    0.0008319   -3.0810607  
C   -1.2972851    0.0009739   -4.4314603  
O   -2.0050676    0.0014268   -5.4301316  
C    0.2542619    0.0004184   -4.6117572  
O    0.7184666    0.0002257   -5.7439122  
C    1.0974551    0.0000873   -3.4189129  
H    2.0940752   -0.0005484   -0.5817983  
H    2.1707276   -0.0000912   -3.5523673  
H   -2.1128194    0.0014915   -0.2706789  
C    1.1319247   -0.0015655    2.2709268  
C    0.7969915   -0.0034943    3.5869401  
C   -0.6453339   -0.0035710    3.6542670  
C   -1.1266833   -0.0015433    2.2596025  
N    0.0000000    0.0000000    1.4700000  
C   -2.4346130   -0.0013964    1.8976294  
C   -3.4350110   -0.0031408    2.9520183  
O   -4.6384611   -0.0030974    2.7283916  
C   -2.9478959   -0.0050506    4.4361073  
O   -3.7809380   -0.0062218    5.3323774  
C   -1.5113823   -0.0053090    4.7012123  
H    1.4821238   -0.0045407    4.4159191  
H   -2.7664565   -0.0000232    0.8686553  
H   -1.1823530   -0.0068408    5.7314848  
H    2.1104316   -0.0009391    1.8188057  
