60

C   -1.6214144    2.1209089   -6.2767174  
C   -2.2565491    1.6215830   -7.3901558  
C   -1.3352567    0.7458363   -8.0373718  
C   -0.1446921    0.7505990   -7.2663607  
N   -0.3517375    1.5972405   -6.2057249  
C    0.9815271   -0.0035290   -7.6094495  
C    0.9043674   -0.7767818   -8.7515104  
O    1.9750011   -1.5328808   -9.1323942  
C   -0.2746440   -0.7944920   -9.5340929  
O   -0.1947097   -1.6138617  -10.6411547  
C   -1.3859733   -0.0505690   -9.1963759  
H   -3.2600109    1.8601446   -7.6986133  
H    0.3149784    1.7937235   -5.4812494  
H    1.7133372   -1.9876851   -9.9435354  
H   -1.0311988   -1.5683681  -11.1142504  
H   -2.2748683   -0.0842144   -9.8154168  
H   -1.9731308    2.8102706   -5.5283631  
C    1.6707638   -0.0012342   -3.2725973  
C    3.0286798   -0.0026502   -3.2608754  
C    3.4615711   -0.0042638   -4.6383506  
C    2.2357545   -0.0036380   -5.4594256  
N    1.1849517   -0.0021877   -4.5713373  
C    2.2192683   -0.0043573   -6.8164193  
C    3.4939012   -0.0060731   -7.5148769  
O    3.5845456   -0.0068917   -8.7355668  
C    4.8047152   -0.0070137   -6.6654233  
O    5.8837806   -0.0087651   -7.2423779  
C    4.6947478   -0.0058259   -5.2087976  
H    3.6555464   -0.0027555   -2.3870037  
H    5.6070596   -0.0062825   -4.6279272  
H    0.2146122    0.0000906   -4.8272343  
C    1.0965515    0.0001359   -0.8010305  
C    0.0000000    0.0000000    0.0000000  
C   -1.1546564    0.0001470   -0.8669509  
C   -0.6372018    0.0003521   -2.2486279  
N    0.7342868    0.0007339   -2.1395011  
C   -1.4147743    0.0001355   -3.3608714  
C   -2.8576049   -0.0001046   -3.1854455  
O   -3.6427782   -0.0002491   -4.1244898  
C   -3.4275842   -0.0000725   -1.7311664  
O   -4.6406831    0.0000334   -1.5710053  
C   -2.4891868   -0.0001091   -0.6116742  
H   -1.0150456    0.0001619   -4.3654242  
H   -2.8919123   -0.0002920    0.3920869  
H    2.1388270    0.0000663   -0.5261648  
C    2.4951002    2.0940188    2.9809380  
C    1.9440701    1.6314916    1.8291961  
C    0.8759964    0.7350050    2.2038498  
C    0.8497377    0.7130254    3.6788474  
N    1.8560616    1.5571714    4.0882609  
C   -0.0205033   -0.0168748    4.4215661  
C   -0.9962600   -0.8356168    3.7214979  
O   -1.8224391   -1.5286685    4.3006425  
C   -0.9864710   -0.8277881    2.1595606  
O   -1.8030528   -1.5133726    1.5592035  
C    0.0000000    0.0000000    1.4700000  
H    2.2509283    1.8888011    0.8310761  
H   -0.0229599   -0.0187323    5.5027230  
H    3.3143982    2.7817323    3.1139444  
H    2.0889452    1.7545833    5.0442112  
