62

C    1.1243410    0.0100057   -0.7919012  
C    0.7474071    0.0234632   -2.1148552  
C   -0.6787388    0.0234405   -2.1414702  
C   -1.1201747    0.0098455   -0.7935550  
N    0.0000000    0.0000000    0.0000000  
C   -2.4730818    0.0063410   -0.4408242  
C   -3.3971964    0.0170568   -1.4675057  
O   -4.7313521    0.0145688   -1.1793464  
C   -2.9763659    0.0303145   -2.8186321  
O   -4.0166488    0.0394632   -3.7247622  
C   -1.6418573    0.0335061   -3.1673482  
H    1.4178706    0.0311140   -2.9571214  
H   -2.8160165   -0.0041450    0.5845965  
H   -5.1938826    0.0230239   -2.0274378  
H   -3.6464684    0.0481850   -4.6127340  
H    2.1062463    0.0053072   -0.3505414  
C    1.5648391   -2.0538328   -5.3222158  
C    1.3416268   -1.5771671   -6.5740310  
C    0.2115315   -0.6825096   -6.4885404  
C   -0.2083348   -0.6769667   -5.0741601  
N    0.6519736   -1.5285503   -4.4202761  
C   -1.2456343    0.0471574   -4.5828768  
C   -1.9989504    0.8762378   -5.5089848  
O   -2.9501312    1.5650944   -5.1639735  
C   -1.5720157    0.8854755   -7.0114647  
O   -2.1989497    1.5794022   -7.8005663  
C   -0.4365522    0.0629949   -7.4214654  
H   -0.1472093    0.0751417   -8.4635098  
H    2.3192788   -2.7448219   -4.9827391  
H    0.6226237   -1.7349441   -3.4386515  
C    2.1107137   -1.9148867   -7.7804105  
C    3.1714059   -2.7487293   -7.8863205  
C    3.5377025   -2.7127700   -9.2938125  
C    2.5668516   -1.7816952   -9.9079233  
N    1.7279179   -1.3107440   -9.0256632  
C    2.5930072   -1.4713856  -11.3108164  
C    3.5459751   -2.0639713  -12.0658210  
O    3.6872153   -1.8659627  -13.3875187  
C    4.5402109   -3.0078947  -11.4753430  
O    5.3796195   -3.5106905  -12.2222100  
C    4.4926077   -3.3100659  -10.0336944  
H    3.6466246   -3.3178465   -7.1057126  
H    1.8711444   -0.7875257  -11.7329052  
H    4.4468938   -2.4205099  -13.6415239  
H    5.2305131   -3.9988408   -9.6447026  
C    2.5311839    2.1237619    3.0120429  
C    1.9795631    1.6616747    1.8395852  
C    0.9223175    0.7739173    2.1983588  
C    0.8753926    0.7337535    3.6154372  
N    1.8668922    1.5631002    4.0777464  
C   -0.0496243   -0.0427881    4.3197917  
C   -0.9437528   -0.7922060    3.5801400  
O   -1.8685244   -1.5680278    4.2172520  
C   -0.9124520   -0.7656372    2.1655264  
O   -1.8671164   -1.5663939    1.5732860  
C    0.0000000    0.0000000    1.4700000  
H    2.3005065    1.9304404    0.8477417  
H    2.0679347    1.7444845    5.0445261  
H   -0.0904770   -0.0778569    5.3997470  
H   -2.3849669   -2.0011402    3.5251786  
H   -1.7775064   -1.4909735    0.6183591  
H    3.3468514    2.8078103    3.1724291  
