66

C   -7.5657081   -0.0885043   -2.6760231  
C   -8.4212724    0.5605892   -1.8162818  
C   -9.7451536    0.1606993   -2.1656038  
C   -9.6337990   -0.7411594   -3.2547213  
N   -8.2971636   -0.8687524   -3.5406242  
C  -10.7444287   -1.3376062   -3.8593234  
C  -11.9901433   -1.0180407   -3.3550894  
O  -13.1082913   -1.5722595   -3.9079003  
C  -12.1217314   -0.1200604   -2.2692113  
O  -13.4281468    0.0967771   -1.8824203  
C  -11.0265240    0.4689315   -1.6724421  
H   -8.1274097    1.2397103   -1.0343402  
H   -7.9107680   -1.4524205   -4.2603538  
H  -10.6662783   -2.0256547   -4.6897958  
H  -13.8602357   -1.2203597   -3.4139257  
H  -13.4284069    0.7141948   -1.1445864  
H  -11.1585025    1.1530509   -0.8423576  
C   -4.4706949    2.1246860   -0.3281857  
C   -5.6599778    1.6264296   -0.8075743  
C   -5.3396889    0.7516498   -1.8877479  
C   -3.9276472    0.7558729   -2.0220872  
N   -3.4313261    1.6012781   -1.0610605  
C   -3.2578655    0.0024282   -2.9908505  
C   -4.0275333   -0.7695740   -3.8392615  
O   -3.4247947   -1.5249627   -4.8031641  
C   -5.4377033   -0.7867288   -3.7211790  
O   -6.0624936   -1.6048448   -4.6396926  
C   -6.0991482   -0.0434787   -2.7658800  
H   -6.6381202    1.8650658   -0.4264137  
H   -2.4588262    1.7971334   -0.9065738  
H   -4.1336017   -1.9789343   -5.2772602  
H   -7.0119839   -1.5590485   -4.4914533  
H   -4.2816969    2.8131205    0.4776034  
C    0.0000000    0.0000000    0.0000000  
C    1.0521666   -0.0011982   -0.8862343  
C    0.4917215   -0.0011996   -2.1979132  
C   -0.9187429    0.0003215   -2.0478682  
N   -1.1833171   -0.0009323   -0.7007913  
C   -1.7951703    0.0010483   -3.1372089  
C   -1.2375841    0.0005313   -4.4010422  
O   -2.0474218    0.0015510   -5.4997578  
C    0.1673576   -0.0013585   -4.5711963  
O    0.5673520   -0.0020735   -5.8915554  
C    1.0325768   -0.0023493   -3.4969892  
H    2.0953056   -0.0030808   -0.6200564  
H   -2.0989778    0.0102529   -0.2891822  
H   -1.4634888    0.0006601   -6.2693595  
H    1.5290707   -0.0033271   -5.9180047  
H    2.1042146   -0.0039770   -3.6584456  
C    3.3003543   -0.0005276    2.9438989  
C    2.5232812   -0.0003497    4.0790748  
C    1.1623199    0.0001319    3.6520102  
C    1.1711883   -0.0000583    2.2336141  
N    2.4852299    0.0014920    1.8362361  
C    0.0000000    0.0000000    1.4700000  
C   -1.2020384   -0.0000520    2.1506477  
O   -2.3759250   -0.0003494    1.4542253  
C   -1.2314658    0.0005113    3.5655508  
O   -2.5054393    0.0008037    4.0950179  
C   -0.0764518    0.0007272    4.3195194  
H    2.8919952    0.0005619    5.0905303  
H    2.8036267   -0.0088181    0.8841339  
H   -3.0835639   -0.0000348    2.1118817  
H   -2.4360050    0.0011527    5.0545920  
H   -0.1304098    0.0013421    5.4019087  
H    4.3715549   -0.0004895    2.8367138  
