64

C    7.2821289    0.0019594   -5.2943446  
C    6.0597439    0.0042543   -5.9254049  
C    6.3156123    0.0056956   -7.3286614  
C    7.7242616    0.0038823   -7.4948823  
N    8.2807473    0.0035846   -6.2399166  
C    8.3375231    0.0043159   -8.7513454  
C    7.5137541    0.0063151   -9.8602090  
O    8.0600049    0.0064722  -11.1110590  
C    6.1060347    0.0085192   -9.7148203  
O    5.4234158    0.0107673  -10.9137241  
C    5.5003501    0.0083662   -8.4755982  
H    5.1015168    0.0059249   -5.4347002  
H    9.2648479   -0.0081469   -6.0414467  
H    9.4105553    0.0030857   -8.8847710  
H    7.3200569    0.0082867  -11.7321384  
H    4.4797438    0.0121344  -10.7264147  
H    4.4195760    0.0102698   -8.3955828  
C    4.7161325   -0.0005435   -1.6923264  
C    5.7254240   -0.0020826   -0.7575559  
C    6.9579233   -0.0022075   -1.4755700  
C    6.6349842   -0.0004069   -2.8567410  
N    5.2655550   -0.0013828   -2.9530733  
C    7.6078546    0.0002912   -3.8608874  
C    8.9308324   -0.0005421   -3.4635108  
O    9.9212225    0.0004353   -4.4027334  
C    9.2730463   -0.0027138   -2.0903021  
O   10.6326707   -0.0037268   -1.8562877  
C    8.3138092   -0.0036768   -1.0991453  
H    5.5899958   -0.0041074    0.3104555  
H    4.7441074    0.0100378   -3.8109450  
H   10.7569960   -0.0006921   -3.9182265  
H   10.7775869   -0.0051582   -0.9051824  
H    8.6062638   -0.0055251   -0.0556197  
C    3.2573665   -0.0002920   -1.5109385  
C    2.5379463   -0.0001709   -0.3591964  
C    1.1435038    0.0000331   -0.7338500  
C    1.1092599   -0.0000083   -2.2088477  
N    2.4227553    0.0001909   -2.6182613  
C   -0.0265539   -0.0002524   -2.9515660  
C   -1.3003040   -0.0002640   -2.2514977  
O   -2.3786790   -0.0004133   -2.8306421  
C   -1.2877727    0.0000311   -0.6895603  
O   -2.3539959    0.0003306   -0.0892030  
C    0.0000000    0.0000000    0.0000000  
H    2.9384091   -0.0000367    0.6389234  
H   -0.0296303   -0.0004086   -4.0327229  
H    2.7280482   -0.0013407   -3.5742119  
C    2.5285572    2.1210227    2.9438989  
C    1.9331703    1.6216660    4.0790748  
C    0.8903039    0.7472258    3.6520102  
C    0.8972198    0.7527806    2.2336141  
N    1.9028376    1.5986179    1.8362361  
C    0.0000000    0.0000000    1.4700000  
C   -0.9207814   -0.7726952    2.1506477  
O   -1.8198395   -1.5274828    1.4542253  
C   -0.9436862   -0.7911793    3.5655508  
O   -1.9197945   -1.6098497    4.0950179  
C   -0.0590329   -0.0485852    4.3195194  
H    2.2150357    1.8593692    5.0905303  
H    2.1533708    1.7953814    0.8841339  
H   -2.3621246   -1.9821033    2.1118817  
H   -1.8668290   -1.5649508    5.0545920  
H   -0.1007624   -0.0827977    5.4019087  
H    3.3491200    2.8096064    2.8367138  
