60

C    8.2813867   -4.3822510   -3.0871930  
C    8.2475559   -5.0119207   -1.8645571  
C    7.0535362   -4.5868113   -1.2101868  
C    6.3934437   -3.6907343   -2.0895324  
N    7.1668291   -3.5874421   -3.2190555  
C    5.1796234   -3.0746154   -1.7704282  
C    4.6218530   -3.3686692   -0.5413626  
O    3.4374590   -2.7950202   -0.1792157  
C    5.2654808   -4.2599161    0.3498393  
O    4.5843275   -4.4499028    1.5344397  
C    6.4630960   -4.8678856    0.0358072  
H    8.9924544   -5.6929187   -1.4899077  
H    6.9467916   -3.0292397   -4.0240246  
H    3.2300109   -3.1304090    0.7026825  
H    5.0860753   -5.0645177    2.0785928  
H    6.9325992   -5.5459693    0.7388354  
H    9.0130879   -4.4360996   -3.8750210  
C    4.4889031   -2.1447422   -2.6754921  
C    4.8757511   -1.7386733   -3.9071719  
C    3.8306318   -0.8272349   -4.3470648  
C    2.8651833   -0.7989830   -3.2273799  
N    3.2457608   -1.5692929   -2.2446427  
C    1.6707636   -0.0012343   -3.2725974  
C    1.4510168    0.7351292   -4.3856180  
O    0.3782653    1.5248311   -4.5634278  
C    2.4067064    0.7280670   -5.5322520  
O    2.1427787    1.4226360   -6.5136469  
C    3.6247810   -0.0985257   -5.4618026  
H    5.7610391   -2.0225071   -4.4501093  
H    0.5021826    1.9161685   -5.4469730  
H    4.2917388   -0.0759836   -6.3132059  
C    1.0965514    0.0001358   -0.8010306  
C    0.0000000    0.0000000    0.0000000  
C   -1.1546565    0.0001470   -0.8669508  
C   -0.6372019    0.0003520   -2.2486278  
N    0.7342867    0.0007338   -2.1395012  
C   -1.4147744    0.0001354   -3.3608712  
C   -2.8576052   -0.0001047   -3.1854454  
O   -3.6427785   -0.0002490   -4.1244896  
C   -3.4275841   -0.0000727   -1.7311660  
O   -4.6406832    0.0000333   -1.5710049  
C   -2.4891868   -0.0001090   -0.6116739  
H   -1.0150456    0.0001617   -4.3654239  
H   -2.8919122   -0.0002919    0.3920871  
H    2.1388270    0.0000663   -0.5261650  
C    2.3971438    2.0127888    3.1728260  
C    1.9431056    1.6308205    1.9564670  
C    0.8496017    0.7127664    2.2356185  
C    0.7794028    0.6545384    3.7115134  
N    1.6840587    1.4146091    4.2663826  
C   -0.1885723   -0.1578550    4.3957118  
C   -1.0476298   -0.8789867    3.6398520  
O   -2.0015663   -1.6796266    4.1448486  
C   -1.0022026   -0.8410666    2.1483229  
O   -1.8147390   -1.5232959    1.5241687  
C    0.0000000    0.0000000    1.4700000  
H    2.3054237    1.9346118    0.9892483  
H   -0.2170646   -0.1815267    5.4753125  
H   -2.4487139   -2.0549881    3.3649027  
H    3.2048689    2.6911772    3.3971983  
