66

C    6.7385876    0.0840301   -4.4736200  
C    7.7794472   -0.5655877   -3.8514665  
C    8.9764553   -0.1663990   -4.5166143  
C    8.6003554    0.7355919   -5.5446647  
N    7.2345701    0.8639346   -5.4920004  
C    9.5278332    1.3314710   -6.4046089  
C   10.8592637    1.0111911   -6.2232465  
O   11.8067811    1.5648345   -7.0348518  
C   11.2541740    0.1130675   -5.2033269  
O   12.6155129   -0.1045099   -5.1507596  
C   10.3397135   -0.4753644   -4.3547788  
H    7.6871970   -1.2445992   -3.0211496  
H    6.6828831    1.4478615   -6.0942061  
H    9.2476015    2.0196166   -7.1901841  
H   12.6571537    1.2124907   -6.7416190  
H   12.7974469   -0.7219761   -4.4357497  
H   10.6720161   -1.1596104   -3.5828588  
C    4.3172190   -2.1276211   -1.4346673  
C    5.3517550   -1.6299838   -2.1926640  
C    4.7753711   -0.7549580   -3.1605023  
C    3.3738278   -0.7584001   -2.9423472  
N    3.1294640   -1.6035967   -1.8885227  
C    2.4861704   -0.0045255   -3.7159919  
C    3.0231741    0.7671115   -4.7281092  
O    2.2016879    1.5228929   -5.5135828  
C    4.4189003    0.7834870   -4.9615577  
O    4.7982355    1.6013212   -6.0058733  
C    5.2951626    0.0398127   -4.1989052  
H    6.3935663   -1.8691800   -2.0645687  
H    2.2250248   -1.7989301   -1.4988869  
H    2.7718794    1.9765076   -6.1479166  
H    5.7549243    1.5549962   -6.0964461  
H    4.3324700   -2.8160050   -0.6071086  
C    0.0000000    0.0000000    0.0000000  
C    1.0521669   -0.0011848   -0.8862341  
C    0.4917221   -0.0011931   -2.1979130  
C   -0.9187427    0.0003100   -2.0478683  
N   -1.1833170   -0.0009472   -0.7007915  
C   -1.7951698    0.0010259   -3.1372090  
C   -1.2375835    0.0005161   -4.4010425  
O   -2.0474208    0.0015256   -5.4997580  
C    0.1673584   -0.0013557   -4.5711962  
O    0.5673529   -0.0020659   -5.8915551  
C    1.0325773   -0.0023359   -3.4969890  
H    2.0953059   -0.0030542   -0.6200560  
H   -2.0989777    0.0102265   -0.2891825  
H   -2.8710930    0.0020274   -3.0295514  
H   -1.4634881    0.0006427   -6.2693593  
H    1.5290715   -0.0033076   -5.9180042  
C    3.3003543   -0.0005276    2.9438989  
C    2.5232812   -0.0003497    4.0790748  
C    1.1623199    0.0001319    3.6520102  
C    1.1711883   -0.0000583    2.2336141  
N    2.4852299    0.0014920    1.8362361  
C    0.0000000    0.0000000    1.4700000  
C   -1.2020384   -0.0000520    2.1506477  
O   -2.3759250   -0.0003494    1.4542253  
C   -1.2314658    0.0005113    3.5655508  
O   -2.5054393    0.0008037    4.0950179  
C   -0.0764518    0.0007272    4.3195194  
H    2.8919952    0.0005619    5.0905303  
H    2.8036267   -0.0088181    0.8841339  
H   -3.0835639   -0.0000348    2.1118817  
H   -2.4360050    0.0011527    5.0545920  
H   -0.1304098    0.0013421    5.4019087  
H    4.3715549   -0.0004895    2.8367138  
