60

C    1.8577767   -4.5774431   -6.6930845  
C    1.1187839   -3.4695612   -6.3481871  
C    1.5239896   -2.4122311   -7.2156325  
C    2.5211670   -2.9387856   -8.0760412  
N    2.7010785   -4.2551773   -7.7305507  
C    3.1483172   -2.1738087   -9.0641102  
C    2.7615637   -0.8533019   -9.1860206  
O    3.3413931   -0.0614475  -10.1345866  
C    1.7686844   -0.3095955   -8.3366737  
O    1.4940631    1.0198605   -8.5825862  
C    1.1497551   -1.0636062   -7.3615220  
H    0.3794826   -3.4282280   -5.5667023  
H    3.3392797   -4.8899052   -8.1752968  
H    3.9091244   -2.5691551   -9.7229554  
H    2.9331573    0.8099762  -10.0495609  
H    0.8138221    1.3088928   -7.9666836  
H    1.8510631   -5.5716354   -6.2801740  
C   -0.0202922   -0.6967077   -5.1400949  
C   -1.0641734    0.0073898   -4.6315339  
C   -1.6428385    0.7514419   -5.7253201  
C   -0.8448103    0.4207134   -6.9213807  
N    0.1229396   -0.4613332   -6.4990735  
C   -1.0739330    0.9222826   -8.1613949  
C   -2.1802191    1.8499246   -8.3291657  
O   -2.4675344    2.3561924   -9.4059405  
C   -3.0385139    2.2145169   -7.0760867  
O   -3.9723191    2.9946743   -7.2050172  
C   -2.6944049    1.6092961   -5.7918944  
H   -0.4766435    0.6666081   -9.0255628  
H   -3.2937360    1.8667795   -4.9292078  
H    0.6565473   -1.3675748   -4.6363937  
C    1.1319248    0.0015675   -0.8009270  
C    0.7969916    0.0034959   -2.1169404  
C   -0.6453336    0.0035703   -2.1842672  
C   -1.1266831    0.0015415   -0.7896027  
N    0.0000000    0.0000000    0.0000000  
C   -2.4346129    0.0013924   -0.4276297  
C   -3.4350110    0.0031352   -1.4820184  
O   -4.6384610    0.0030897   -1.2583919  
C   -2.9478958    0.0050460   -2.9661075  
O   -3.7809377    0.0062160   -3.8623775  
C   -1.5113821    0.0053068   -3.2312125  
H    1.4821240    0.0045436   -2.9459192  
H   -2.7664565    0.0000185    0.6013447  
H    2.1104318    0.0009428   -0.3488058  
C    2.5128556    2.1077716    2.9199648  
C    1.9592212    1.6432552    4.0696553  
C    0.8915788    0.7479214    3.6910360  
C    0.8684491    0.7287414    2.2159470  
N    1.8754542    1.5738793    1.8102719  
C    0.0000000    0.0000000    1.4700000  
C   -0.9772830   -0.8200135    2.1664417  
O   -1.8021297   -1.5120829    1.5842315  
C   -0.9711318   -0.8147624    3.7284083  
O   -1.7894187   -1.5009653    4.3257297  
C    0.0140216    0.0115358    4.4216297  
H    2.2638494    1.8988021    5.0689105  
H    0.0117648    0.0094386    5.5031631  
H    3.3327358    2.7953732    2.7900019  
H    2.1123206    1.7707734    0.8551938  
