62

C   -6.3581810    1.1158813   -1.3428383  
C   -6.2652193    2.0003302   -0.2932788  
C   -7.5954094    2.2600520    0.1514014  
C   -8.4652488    1.4994789   -0.6712970  
N   -7.6815876    0.8179624   -1.5690868  
C   -9.8547880    1.5112435   -0.5169167  
C  -10.3756975    2.3050314    0.4864435  
O  -11.7257914    2.3533613    0.6811863  
C   -9.5241463    3.0713872    1.3173319  
O  -10.1948849    3.8104862    2.2697938  
C   -8.1532588    3.0604756    1.1654282  
H   -5.3511873    2.4089886    0.1023686  
H   -8.0200469    0.1877416   -2.2735353  
H  -10.5232051    0.9339619   -1.1407489  
H  -11.8736304    2.9581133    1.4198904  
H   -9.5473411    4.2981862    2.7879048  
H   -7.5264757    3.6581335    1.8169082  
C   -3.9676975    0.7295170   -2.0473357  
C   -5.3027965    0.5139989   -2.1703662  
C   -5.4806618   -0.4130407   -3.2629766  
C   -4.1300596   -0.7221803   -3.7700229  
N   -3.2578655    0.0024282   -2.9908505  
C   -3.8704404   -1.5630697   -4.8030802  
C   -4.9963843   -2.2064153   -5.4595048  
O   -4.8663860   -2.9801003   -6.3990856  
C   -6.4355314   -1.8933949   -4.9392350  
O   -7.3913129   -2.4288832   -5.4842082  
C   -6.5888712   -0.9700358   -3.8177428  
H   -2.8721766   -1.7762736   -5.1593428  
H   -7.5886332   -0.7587609   -3.4633940  
H   -3.4426407    1.3585007   -1.3469184  
C    0.0000000    0.0000000    0.0000000  
C    1.0521666   -0.0011982   -0.8862343  
C    0.4917215   -0.0011996   -2.1979132  
C   -0.9187429    0.0003215   -2.0478682  
N   -1.1833171   -0.0009323   -0.7007913  
C   -1.7951703    0.0010483   -3.1372089  
C   -1.2375841    0.0005313   -4.4010422  
O   -2.0474218    0.0015510   -5.4997578  
C    0.1673576   -0.0013585   -4.5711963  
O    0.5673520   -0.0020735   -5.8915554  
C    1.0325768   -0.0023493   -3.4969892  
H    2.0953056   -0.0030808   -0.6200564  
H   -2.0989778    0.0102529   -0.2891822  
H   -1.4634888    0.0006601   -6.2693595  
H    1.5290707   -0.0033271   -5.9180047  
H    2.1042146   -0.0039770   -3.6584456  
C    1.0965515   -0.0001358    2.2710304  
C    0.0000000    0.0000000    1.4700000  
C   -1.1546562   -0.0001469    2.3369512  
C   -0.6372014   -0.0003519    3.7186280  
N    0.7342871   -0.0007337    3.6095011  
C   -1.4147739   -0.0001353    4.8308716  
C   -2.8576048    0.0001048    4.6554461  
O   -3.6427778    0.0002493    5.5944904  
C   -3.4275839    0.0000726    3.2011665  
O   -4.6406829   -0.0000333    3.0410059  
C   -2.4891866    0.0001091    2.0816745  
H   -1.0150448   -0.0001615    5.8354244  
H   -2.8919121    0.0002919    1.0779135  
H    2.1388271   -0.0000662    1.9961646  
H    1.3735872    0.0006099    4.3830260  
