62

C   -0.6398140   -0.7261178   -9.4359002  
C   -1.0095861    0.5370404   -9.0356916  
C   -0.9343900    1.3769847  -10.1860999  
C   -0.5098292    0.5639228  -11.2680437  
N   -0.3382363   -0.7067420  -10.7775495  
C   -0.3269416    1.0615960  -12.5617458  
C   -0.5774976    2.4044499  -12.7670344  
O   -0.4151588    2.9423743  -14.0109383  
C   -1.0014589    3.2319581  -11.7001209  
O   -1.2092554    4.5461970  -12.0647306  
C   -1.1818292    2.7417269  -10.4235375  
H   -0.0507788   -1.5031771  -11.3170318  
H   -0.0034085    0.4471765  -13.3906102  
H   -0.6392159    3.8789940  -13.9347457  
H   -1.4933295    5.0362965  -11.2871002  
H   -1.5072064    3.3998153   -9.6263374  
H   -0.5659560   -1.6390499   -8.8701628  
C    0.6364688   -0.6837595   -5.1902200  
C   -0.1387079    0.0017019   -4.3179684  
C   -1.0701777    0.7476897   -5.1500536  
C   -0.7049024    0.3845506   -6.5361590  
N    0.2947993   -0.4543147   -6.5660079  
C   -1.4020122    0.9216209   -7.6722400  
C   -2.4181036    1.7820426   -7.4344017  
O   -3.1544583    2.3589953   -8.3992581  
C   -2.8108993    2.1677923   -6.0469331  
O   -3.7454940    2.9562142   -5.9050026  
C   -2.0803710    1.6033193   -4.8981847  
H   -3.7960377    2.9156438   -7.9221097  
H   -2.3957800    1.9077869   -3.9092220  
H    1.4500366   -1.3562239   -4.9691495  
C    3.3041273    0.0001178   -1.5420428  
C    2.5845373   -0.0004780   -0.3695851  
C    1.2040007   -0.0000007   -0.7283589  
C    1.1422374    0.0006038   -2.1454372  
N    2.4348641    0.0026111   -2.6077464  
C   -0.0655179    0.0008799   -2.8497918  
C   -1.2321766    0.0002325   -2.1101402  
O   -2.4392814    0.0001148   -2.7472522  
C   -1.1911209   -0.0000007   -0.6955266  
O   -2.4371528   -0.0002320   -0.1032862  
C    0.0000000    0.0000000    0.0000000  
H    3.0031533   -0.0000660    0.6222584  
H    2.7054631   -0.0071097   -3.5745261  
H   -3.1132988   -0.0000648   -2.0551787  
H   -2.3200282   -0.0004072    0.8516409  
H    4.3686625    0.0004073   -1.7024290  
C    0.0000000    0.0000000    1.4700000  
C    1.0541688    0.0001722    2.3260392  
C    0.5103138    0.0000454    3.6635956  
C   -0.9576371   -0.0002459    3.5155732  
N   -1.2018458    0.0001392    2.1615969  
C   -1.8348311   -0.0008317    4.5510609  
C   -1.2972847   -0.0009736    5.9014604  
O   -2.0050672   -0.0014265    6.9001319  
C    0.2542623   -0.0004184    6.0817573  
O    0.7184670   -0.0002256    7.2139121  
C    1.0974552   -0.0000873    4.8889129  
H    2.0940752    0.0005483    2.0517982  
H   -2.9081052   -0.0011668    4.4207061  
H    2.1707277    0.0000911    5.0223670  
H   -2.1128194   -0.0014912    1.7406791  
