64

C    4.3172221   -2.1275323   -1.4345756  
C    5.3517574   -1.6299265   -2.1925942  
C    4.7753719   -0.7549433   -3.1604702  
C    3.3738289   -0.7583777   -2.9423148  
N    3.1294665   -1.6035295   -1.8884538  
C    2.4861703   -0.0045376   -3.7159919  
C    3.0231730    0.7670563   -4.7281424  
O    2.2016855    1.5228026   -5.5136479  
C    4.4188992    0.7834238   -4.9615918  
O    4.7982327    1.6012136   -6.0059425  
C    5.2951623    0.0397835   -4.1989070  
H    6.3935691   -1.8691157   -2.0644883  
H    2.2250274   -1.7988472   -1.4988094  
H    2.7718764    1.9763908   -6.1480015  
H    5.7549222    1.5548856   -6.0965133  
H    6.3593036    0.0723747   -4.4014375  
H    4.3324737   -2.8158804   -0.6069876  
C    0.0000000    0.0000000    0.0000000  
C    1.0521669   -0.0011899   -0.8862338  
C    0.4917222   -0.0011953   -2.1979129  
C   -0.9187426    0.0003152   -2.0478681  
N   -1.1833169   -0.0009409   -0.7007913  
C   -1.7951697    0.0010354   -3.1372090  
C   -1.2375835    0.0005230   -4.4010425  
O   -2.0474206    0.0015366   -5.4997579  
C    0.1673585   -0.0013561   -4.5711965  
O    0.5673529   -0.0020681   -5.8915554  
C    1.0325774   -0.0023407   -3.4969889  
H    2.0953060   -0.0030646   -0.6200560  
H   -2.0989776    0.0102374   -0.2891826  
H   -1.4634880    0.0006503   -6.2693594  
H    1.5290717   -0.0033145   -5.9180047  
C   -3.9677023    0.7294876   -2.0473359  
C   -5.3028001    0.5139594   -2.1703667  
C   -5.4806582   -0.4130815   -3.2629769  
C   -4.1300536   -0.7222108   -3.7700235  
N   -3.2578649    0.0024042   -2.9908508  
C   -3.8704280   -1.5630981   -4.8030809  
C   -4.9963670   -2.2064514   -5.4595055  
O   -4.8663627   -2.9801356   -6.3990865  
C   -6.4355161   -1.8934428   -4.9392361  
O   -7.3912938   -2.4289374   -5.4842087  
C   -6.5888638   -0.9700846   -3.8177432  
H   -6.0749283    0.9542937   -1.5649429  
H   -2.8721626   -1.7762943   -5.1593438  
H   -7.5886275   -0.7588174   -3.4633949  
H   -3.4426507    1.3584750   -1.3469183  
C    1.1243417   -0.0099156    2.2619005  
C    0.7474090   -0.0234034    3.5848544  
C   -0.6787367   -0.0234952    3.6114698  
C   -1.1201739   -0.0099357    2.2635546  
N    0.0000000    0.0000000    1.4700000  
C   -2.4730812   -0.0065396    1.9108239  
C   -3.3971947   -0.0173298    2.9375057  
O   -4.7313508   -0.0149487    2.6493466  
C   -2.9763630   -0.0305536    4.2886322  
O   -4.0166453   -0.0397858    5.1947621  
C   -1.6418541   -0.0336380    4.6373480  
H    1.4178735   -0.0310004    4.4271209  
H   -2.8160170    0.0039190    0.8854031  
H   -5.1938803   -0.0234410    3.4974381  
H   -3.6464643   -0.0484781    6.0827341  
H   -1.3497443   -0.0436789    5.6809233  
H    2.1062470   -0.0051382    1.8205408  
