62

C    9.0921986   -0.0141070   -0.0766257  
C    9.9100907   -0.0164183    1.0295003  
C   11.2545012   -0.0336934    0.5531992  
C   11.1939378   -0.0410769   -0.8639120  
N    9.8663403   -0.0307899   -1.2131894  
C   12.3364482   -0.0577284   -1.6696300  
C   13.5624341   -0.0667901   -1.0331904  
O   14.7100928   -0.0827512   -1.7718627  
C   13.6434097   -0.0600172    0.3796839  
O   14.9357641   -0.0710061    0.8624291  
C   12.5167080   -0.0438643    1.1751758  
H    9.5785014   -0.0079376    2.0536932  
H    9.5135738   -0.0222391   -2.1531169  
H   12.2970325   -0.0635740   -2.7501920  
H   15.4411928   -0.0870419   -1.1404044  
H   14.9013550   -0.0654286    1.8238804  
H   12.6100759   -0.0392018    2.2548696  
C    6.7636933   -0.0010973    0.9023171  
C    5.4671770   -0.0014231    0.4424134  
C    5.5308681   -0.0015889   -0.9825580  
C    6.9040854   -0.0016368   -1.3378039  
N    7.6252192    0.0006173   -0.1696525  
C    7.3417434   -0.0020971   -2.6656759  
C    6.3755446   -0.0028236   -3.6529133  
O    6.7475671   -0.0036476   -4.9661589  
C    5.0004300   -0.0024127   -3.3184350  
O    4.1619031   -0.0028167   -4.4139791  
C    4.5679461   -0.0016854   -2.0086701  
H    4.5841349   -0.0004230    1.0582292  
H    8.3868647   -0.0019920   -2.9430281  
H    5.9304037   -0.0037549   -5.4814348  
H    3.2522420   -0.0025257   -4.1007371  
H    7.1420548   -0.0005066    1.9101872  
C    3.1301149   -0.0010311   -1.7028252  
C    2.5367768   -0.0002767   -0.4864665  
C    1.1089904    0.0001028   -0.7656183  
C    1.0177872   -0.0004148   -2.2415132  
N    2.1993578   -0.0011611   -2.7963820  
C   -0.2459209   -0.0002877   -2.9257118  
C   -1.3675319   -0.0000605   -2.1698524  
O   -2.6129313    0.0000867   -2.6748490  
C   -1.3083584    0.0000910   -0.6783232  
O   -2.3693261    0.0004206   -0.0541692  
C    0.0000000    0.0000000    0.0000000  
H    3.0096017   -0.0001007    0.4807525  
H   -0.2829630   -0.0004687   -4.0053125  
H   -3.1967441    0.0002094   -1.8949034  
C    0.0000000    0.0000000    1.4700000  
C    1.0662921    0.0000102    2.3034270  
C    0.4961870   -0.0000064    3.6418889  
C   -0.9663858    0.0000850    3.4240247  
N   -1.2632773    0.0000084    2.1528658  
C   -1.8985362    0.0000517    4.5177257  
C   -1.3925775   -0.0004564    5.7720543  
O   -2.1456383   -0.0005410    6.8851312  
C    0.0786232   -0.0009323    6.0245000  
O    0.4683759   -0.0012588    7.1921102  
C    1.0143166   -0.0008442    4.8859032  
H    2.1107198   -0.0000632    2.0421868  
H   -2.9622183    0.0003270    4.3293377  
H   -1.5042274   -0.0009692    7.6184419  
H    2.0724152   -0.0013148    5.1109744  
