62

C   -4.3568013    2.1196432   -0.0439428  
C   -5.5783088    1.6201330   -0.4323710  
C   -5.3394751    0.7460400   -1.5339700  
C   -3.9416102    0.7519549   -1.7745203  
N   -3.3751252    1.5976639   -0.8533857  
C   -3.3460098   -0.0004261   -2.7913644  
C   -4.1766441   -0.7730844   -3.5795417  
O   -3.6475263   -1.5274888   -4.5864783  
C   -5.5738556   -0.7919239   -3.3553479  
O   -6.2652643   -1.6105060   -4.2243818  
C   -6.1621474   -0.0497243   -2.3525626  
H   -6.5251584    1.8575141    0.0216323  
H   -2.3939630    1.7946128   -0.7726811  
H   -4.3895800   -1.9821531   -5.0058840  
H   -7.2009062   -1.5658640   -4.0048706  
H   -7.2352194   -0.0842032   -2.2048984  
H   -4.1083016    2.8080659    0.7455375  
C    0.0000000    0.0000000    0.0000000  
C    1.0662918   -0.0000103   -0.8334272  
C    0.4961866    0.0000066   -2.1718888  
C   -0.9663862   -0.0000848   -1.9540246  
N   -1.2632777   -0.0000084   -0.6828658  
C   -1.8985367   -0.0000514   -3.0477256  
C   -1.3925783    0.0004569   -4.3020543  
O   -2.1456389    0.0005417   -5.4151310  
C    0.0786225    0.0009329   -4.5544999  
O    0.4683752    0.0012595   -5.7221105  
C    1.0143159    0.0008446   -3.4159033  
H    2.1107193    0.0000632   -0.5721869  
H   -1.5042282    0.0009699   -6.1484418  
C    3.4364592   -0.6845229   -3.0955672  
C    2.4521470    0.0014842   -3.7217487  
C    3.1256102    0.7478442   -4.7733631  
C    4.5520905    0.3843008   -4.6334542  
N    4.7404165   -0.4551032   -3.6516581  
C    5.5629155    0.9215721   -5.5021652  
C    5.1666476    1.7825727   -6.4670404  
O    6.0021944    2.3597729   -7.3472346  
C    3.7344483    2.1687415   -6.6338913  
O    3.4458151    2.9576843   -7.5336027  
C    2.7164273    1.6040516   -5.7301855  
H    6.5979060    0.6386562   -5.3770138  
H    5.4291783    2.9168363   -7.9044468  
H    1.6899513    1.9088368   -5.8840790  
H    3.3474864   -1.3573887   -2.2575283  
C    1.1243417   -0.0099156    2.2619005  
C    0.7474090   -0.0234034    3.5848544  
C   -0.6787367   -0.0234952    3.6114698  
C   -1.1201739   -0.0099357    2.2635546  
N    0.0000000    0.0000000    1.4700000  
C   -2.4730812   -0.0065396    1.9108239  
C   -3.3971947   -0.0173298    2.9375057  
O   -4.7313508   -0.0149487    2.6493466  
C   -2.9763630   -0.0305536    4.2886322  
O   -4.0166453   -0.0397858    5.1947621  
C   -1.6418541   -0.0336380    4.6373480  
H    1.4178735   -0.0310004    4.4271209  
H   -2.8160170    0.0039190    0.8854031  
H   -5.1938803   -0.0234410    3.4974381  
H   -3.6464643   -0.0484781    6.0827341  
H   -1.3497443   -0.0436789    5.6809233  
H    2.1062470   -0.0051382    1.8205408  
