64

C   -0.1917946   -0.6567247   -5.1170604  
C   -0.1066268   -0.3930724   -6.4645402  
C   -1.1576520    0.5190438   -6.7775733  
C   -1.8568545    0.7783248   -5.5710012  
N   -1.2456342    0.0471353   -4.5828770  
C   -2.9579238    1.6374101   -5.5046097  
C   -3.3602980    2.2460722   -6.6775557  
O   -4.4294252    3.0945491   -6.6693820  
C   -2.6757262    1.9997369   -7.8914329  
O   -3.1977521    2.6803530   -8.9719856  
C   -1.5895830    1.1521377   -7.9577221  
H   -3.4952059    1.8390952   -4.5881746  
H   -4.5388339    3.4046741   -7.5777417  
H   -2.6783847    2.4586133   -9.7508909  
H   -1.0853788    0.9827953   -8.9019567  
H    0.4149212   -1.2922741   -4.4950225  
C    1.1243406    0.0100250   -0.7919004  
C    0.7474071    0.0234762   -2.1148548  
C   -0.6787389    0.0234287   -2.1414703  
C   -1.1201746    0.0098259   -0.7935552  
N    0.0000000    0.0000000    0.0000000  
C   -2.4730819    0.0062979   -0.4408241  
C   -3.3971963    0.0169977   -1.4675060  
O   -4.7313518    0.0144863   -1.1793472  
C   -2.9763658    0.0302624   -2.8186326  
O   -4.0166485    0.0393927   -3.7247627  
C   -1.6418572    0.0334772   -3.1673485  
H    1.4178707    0.0311386   -2.9571211  
H   -2.8160167   -0.0041940    0.5845965  
H   -5.1938826    0.0229333   -2.0274387  
H   -3.6464685    0.0481212   -4.6127346  
H    2.1062464    0.0053440   -0.3505408  
C    1.6695714   -4.4790775   -6.8378251  
C    0.9324943   -3.3902638   -6.4332647  
C    1.2861824   -2.3063247   -7.2903417  
C    2.2513998   -2.7977421   -8.2061961  
N    2.4627044   -4.1197211   -7.9023215  
C    2.8252071   -2.0000223   -9.2007698  
C    2.4169765   -0.6822933   -9.2722867  
O    2.9448983    0.1406684  -10.2246768  
C    1.4553548   -0.1733981   -8.3672303  
O    1.1536185    1.1578807   -8.5672216  
C    0.8890585   -0.9597229   -7.3856359  
H    0.2275284   -3.3784022   -5.6197070  
H    3.0888055   -4.7344688   -8.3902394  
H    3.5614460   -2.3685040   -9.9017529  
H    2.5298652    1.0040704  -10.0999787  
H    0.4973228    1.4222531   -7.9153114  
H    1.6933438   -5.4832025   -6.4503623  
C    0.0000000    0.0000000    1.4700000  
C    1.0541688    0.0001722    2.3260392  
C    0.5103138    0.0000454    3.6635956  
C   -0.9576371   -0.0002459    3.5155732  
N   -1.2018458    0.0001392    2.1615969  
C   -1.8348311   -0.0008317    4.5510609  
C   -1.2972847   -0.0009736    5.9014604  
O   -2.0050672   -0.0014265    6.9001319  
C    0.2542623   -0.0004184    6.0817573  
O    0.7184670   -0.0002256    7.2139121  
C    1.0974552   -0.0000873    4.8889129  
H    2.0940752    0.0005483    2.0517982  
H   -2.9081052   -0.0011668    4.4207061  
H    2.1707277    0.0000911    5.0223670  
H   -2.1128194   -0.0014912    1.7406791  
