62

C    3.3041275    0.0001181   -1.5420431  
C    2.5845370   -0.0004778   -0.3695856  
C    1.2040006   -0.0000007   -0.7283585  
C    1.1422375    0.0006038   -2.1454369  
N    2.4348641    0.0026112   -2.6077464  
C   -0.0655181    0.0008798   -2.8497918  
C   -1.2321766    0.0002325   -2.1101401  
O   -2.4392816    0.0001145   -2.7472520  
C   -1.1911210   -0.0000006   -0.6955259  
O   -2.4371524   -0.0002321   -0.1032861  
C    0.0000000    0.0000000    0.0000000  
H    3.0031534   -0.0000657    0.6222583  
H    2.7054630   -0.0071096   -3.5745259  
H   -3.1132987   -0.0000651   -2.0551784  
H   -2.3200282   -0.0004071    0.8516411  
H    4.3686621    0.0004075   -1.7024291  
C    0.6887310   -0.7238758   -5.1615446  
C    0.3681064   -0.5064781   -6.4630873  
C   -0.7390721    0.4202659   -6.4747850  
C   -1.0393320    0.7271839   -5.0632484  
N   -0.1387082    0.0017018   -4.3179684  
C   -2.0224202    1.5671714   -4.6513473  
C   -2.8394472    2.2118213   -5.6659552  
O   -3.7493945    2.9848410   -5.3962566  
C   -2.5393027    1.9011589   -7.1670238  
O   -3.2207395    2.4377604   -8.0301365  
C   -1.4529087    0.9785915   -7.4871325  
H   -2.2260443    1.7787425   -3.6108261  
H   -1.2514014    0.7689508   -8.5288476  
H    1.4597344   -1.3532678   -4.7476496  
C    1.9145950   -4.5658731   -7.2543620  
C    1.3511611   -3.4679497   -6.6876333  
C    1.4317359   -2.4038447   -7.6602707  
C    2.0930128   -2.9759377   -8.8486363  
N    2.3603674   -4.2892795   -8.5379204  
C    2.3550960   -2.2878742   -9.9886300  
C    1.9596795   -0.8905483  -10.0491332  
O    2.1518988   -0.1858301  -11.0313367  
C    1.2581492   -0.2639569   -8.8021187  
O    0.9209776    0.9116469   -8.8412519  
C    1.0293365   -1.1064055   -7.6308897  
H    0.9276202   -3.4100571   -5.7007822  
H    2.8410849   -2.7264670  -10.8490732  
H    2.0418649   -5.5537241   -6.8422423  
H    2.8083004   -4.9462607   -9.1501129  
C    2.5311839    2.1237619    3.0120429  
C    1.9795631    1.6616747    1.8395852  
C    0.9223175    0.7739173    2.1983588  
C    0.8753926    0.7337535    3.6154372  
N    1.8668922    1.5631002    4.0777464  
C   -0.0496243   -0.0427881    4.3197917  
C   -0.9437528   -0.7922060    3.5801400  
O   -1.8685244   -1.5680278    4.2172520  
C   -0.9124520   -0.7656372    2.1655264  
O   -1.8671164   -1.5663939    1.5732860  
C    0.0000000    0.0000000    1.4700000  
H    2.3005065    1.9304404    0.8477417  
H    2.0679347    1.7444845    5.0445261  
H   -0.0904770   -0.0778569    5.3997470  
H   -2.3849669   -2.0011402    3.5251786  
H   -1.7775064   -1.4909735    0.6183591  
H    3.3468514    2.8078103    3.1724291  
