60

C    4.2225500    2.1199090   -6.0209051  
C    4.4571878    1.6205613   -7.2810890  
C    5.5796698    0.7462351   -7.1801542  
C    5.9908695    0.7518465   -5.8226538  
N    5.1468385    1.5976070   -5.1466965  
C    7.0732907   -0.0008200   -5.3572005  
C    7.7528007   -0.7734574   -6.2788699  
O    8.8171866   -1.5281334   -5.8781690  
C    7.3579107   -0.7919965   -7.6377424  
O    8.1348302   -1.6105982   -8.4312355  
C    6.2903414   -0.0495151   -8.0976796  
H    3.8898652    1.8581977   -8.1646429  
H    5.1878567    1.7943857   -4.1630416  
H    9.1417343   -1.9827306   -6.6663788  
H    7.8015534   -1.5657431   -9.3326344  
H    6.0113889   -0.0837676   -9.1443368  
H    3.4698985    2.8084206   -5.6767748  
C    4.7161325   -0.0005435   -1.6923264  
C    5.6747634   -0.0008964   -0.7370224  
C    6.9326495   -0.0010016   -1.4679276  
C    6.5359790   -0.0007816   -2.8924403  
N    5.2379004   -0.0004319   -3.0302106  
C    7.5063012   -0.0007606   -3.9524225  
C    8.8134761   -0.0005619   -3.6051057  
O    9.8251245   -0.0005266   -4.4897574  
C    9.2455282   -0.0004050   -2.1762981  
O   10.4523082   -0.0003511   -1.9335990  
C    8.2310910   -0.0004739   -1.1072606  
H    5.5443949   -0.0009741    0.3316587  
H   10.6319759   -0.0003444   -3.9437338  
H    8.5850041   -0.0002400   -0.0850199  
C    3.2573665   -0.0002920   -1.5109385  
C    2.5379463   -0.0001709   -0.3591964  
C    1.1435038    0.0000331   -0.7338500  
C    1.1092599   -0.0000083   -2.2088477  
N    2.4227553    0.0001909   -2.6182613  
C   -0.0265539   -0.0002524   -2.9515660  
C   -1.3003040   -0.0002640   -2.2514977  
O   -2.3786790   -0.0004133   -2.8306421  
C   -1.2877727    0.0000311   -0.6895603  
O   -2.3539959    0.0003306   -0.0892030  
C    0.0000000    0.0000000    0.0000000  
H    2.9384091   -0.0000367    0.6389234  
H   -0.0296303   -0.0004086   -4.0327229  
H    2.7280482   -0.0013407   -3.5742119  
C    0.8400945    0.7047457    2.2710304  
C    0.0000000    0.0000000    1.4700000  
C   -0.8844236   -0.7423113    2.3369512  
C   -0.4878984   -0.4098547    3.7186280  
N    0.5629682    0.4714286    3.6095011  
C   -1.0836927   -0.9095027    4.8308716  
C   -2.1891196   -1.8367527    4.6554461  
O   -2.7906899   -2.3413415    5.5944904  
C   -2.6257283   -2.2031529    3.2011665  
O   -3.5549479   -2.9829990    3.0410059  
C   -1.9068976   -1.5999348    2.0816745  
H   -0.7774656   -0.6525820    5.8354244  
H   -2.2155208   -1.8586617    1.0779135  
H    1.6384792    1.3747609    1.9961646  
H    1.0518368    0.8833920    4.3830260  
