62

C    5.0534562   -0.9797857   -8.7413351  
C    4.5894920    0.0958017   -8.0200047  
C    4.6808985    1.2377107   -8.8698811  
C    5.2119714    0.7936821  -10.1079136  
N    5.4286010   -0.5572342   -9.9951560  
C    5.4385328    1.6546278  -11.1859818  
C    5.1229509    2.9880558  -11.0111792  
O    5.3239020    3.8721025  -12.0315200  
C    4.5924906    3.4503070   -9.7832749  
O    4.3301638    4.8046419   -9.7658156  
C    4.3689740    2.6015757   -8.7192150  
H    5.7914648   -1.1493260  -10.7202334  
H    5.8431821    1.3224771  -12.1320988  
H    5.0422781    4.7360832  -11.7036637  
H    3.9749024    5.0345164   -8.9017845  
H    3.9617552    2.9846402   -7.7908226  
H    5.1478008   -2.0146783   -8.4601673  
C    5.9953298   -2.1198587   -4.4000425  
C    5.8617355   -1.6205583   -5.6749221  
C    4.7347034   -0.7463313   -5.6637107  
C    4.2167179   -0.7519520   -4.3432613  
N    5.0043209   -1.5976220   -3.6022211  
C    3.1006054    0.0006263   -3.9654951  
C    2.4965723    0.7731834   -4.9383657  
O    1.4035938    1.5277714   -4.6237102  
C    2.9984077    0.7917304   -6.2614812  
O    2.2870645    1.6102452   -7.1143401  
C    4.0992761    0.0493358   -6.6349318  
H    6.4976311   -1.8581611   -6.5104917  
H    4.8851262   -1.7943842   -2.6249501  
H    1.1427970    1.9823229   -5.4352719  
H    2.6910609    1.5654018   -7.9863372  
H    6.7182510   -2.8082954   -3.9970553  
C    3.2798083    0.0005857   -1.4499652  
C    2.5571142    0.0005565   -2.5996556  
C    1.1637432    0.0001548   -2.2210361  
C    1.1336964   -0.0000200   -0.7459473  
N    2.4483512   -0.0001428   -0.3402723  
C    0.0000000    0.0000000    0.0000000  
C   -1.2757368   -0.0000186   -0.6964415  
O   -2.3524598   -0.0000639   -0.1142311  
C   -1.2676497   -0.0000872   -2.2584083  
O   -2.3355766   -0.0004101   -2.8557295  
C    0.0181558    0.0001758   -2.9516296  
H    0.0150788    0.0003319   -4.0331631  
H    4.3498547    0.0008612   -1.3200026  
H    2.7563626    0.0012823    0.6148059  
C    2.4951002    2.0940188    2.9809380  
C    1.9440701    1.6314916    1.8291961  
C    0.8759964    0.7350050    2.2038498  
C    0.8497377    0.7130254    3.6788474  
N    1.8560616    1.5571714    4.0882609  
C   -0.0205033   -0.0168748    4.4215661  
C   -0.9962600   -0.8356168    3.7214979  
O   -1.8224391   -1.5286685    4.3006425  
C   -0.9864710   -0.8277881    2.1595606  
O   -1.8030528   -1.5133726    1.5592035  
C    0.0000000    0.0000000    1.4700000  
H    2.2509283    1.8888011    0.8310761  
H   -0.0229599   -0.0187323    5.5027230  
H    3.3143982    2.7817323    3.1139444  
H    2.0889452    1.7545833    5.0442112  
