60

C    6.6020620   -0.0045256   -5.8622217  
C    5.2941329   -0.0035130   -6.2885883  
C    5.3211100   -0.0043440   -7.7147268  
C    6.6847235   -0.0061584   -8.1052147  
N    7.4357005   -0.0042709   -6.9560207  
C    7.0880421   -0.0076847   -9.4439158  
C    6.0967429   -0.0076808  -10.4059457  
O    6.4348240   -0.0094874  -11.7283353  
C    4.7306989   -0.0055099  -10.0361693  
O    3.8642393   -0.0053787  -11.1097591  
C    4.3320854   -0.0037301   -8.7157040  
H    4.4272429   -0.0012166   -5.6502395  
H    8.4389117   -0.0154825   -6.9183004  
H    8.1256743   -0.0089270   -9.7480872  
H    5.6046638   -0.0088447  -12.2223985  
H    2.9629466   -0.0038854  -10.7731985  
H    3.2782269   -0.0019044   -8.4630051  
C    4.5679461   -0.0016854   -2.0086701  
C    5.6049852   -0.0016933   -1.1391134  
C    6.7955419   -0.0024718   -1.9752198  
C    6.2781452   -0.0029783   -3.3604579  
N    4.9730333   -0.0024399   -3.3863781  
C    7.1539712   -0.0037582   -4.4997625  
C    8.4861197   -0.0036311   -4.2658492  
O    9.4181585   -0.0043056   -5.2340147  
C    9.0391356   -0.0027525   -2.8793670  
O   10.2622856   -0.0028092   -2.7410739  
C    8.1201340   -0.0020063   -1.7272560  
H    5.5667630   -0.0011378   -0.0631886  
H   10.2688725   -0.0039792   -4.7592114  
H    8.5604255   -0.0012654   -0.7391402  
C    3.1301149   -0.0010311   -1.7028252  
C    2.5367768   -0.0002767   -0.4864665  
C    1.1089904    0.0001028   -0.7656183  
C    1.0177872   -0.0004148   -2.2415132  
N    2.1993578   -0.0011611   -2.7963820  
C   -0.2459209   -0.0002877   -2.9257118  
C   -1.3675319   -0.0000605   -2.1698524  
O   -2.6129313    0.0000867   -2.6748490  
C   -1.3083584    0.0000910   -0.6783232  
O   -2.3693261    0.0004206   -0.0541692  
C    0.0000000    0.0000000    0.0000000  
H    3.0096017   -0.0001007    0.4807525  
H   -0.2829630   -0.0004687   -4.0053125  
H   -3.1967441    0.0002094   -1.8949034  
C    0.8175213    0.6860729    2.3021913  
C    0.0000000    0.0000000    1.4700000  
C   -0.8887526   -0.7456559    2.3478473  
C   -0.4549825   -0.3816753    3.7138435  
N    0.5448156    0.4573574    3.6934124  
C   -1.0945674   -0.9182058    4.8835240  
C   -2.1210866   -1.7789155    4.6970523  
O   -2.8083856   -2.3554314    5.6976972  
C   -2.5824069   -2.1655116    3.3310774  
O   -3.5227682   -2.9541547    3.2362962  
C   -1.9100805   -1.6015804    2.1470656  
H   -0.7567140   -0.6349833    5.8697035  
H   -3.4728268   -2.9124471    5.2533954  
H   -2.2742832   -1.9066565    1.1752040  
H    1.6189533    1.3585343    2.0405121  
