62

C    9.2364629    0.0021979   -3.3660681  
C    9.9268321    0.0032084   -4.5559664  
C   11.3158181    0.0051423   -4.2314494  
C   11.4126150    0.0049393   -2.8163326  
N   10.1318172    0.0050852   -2.3221905  
C   12.6374218    0.0062465   -2.1420672  
C   13.7854281    0.0074798   -2.9103501  
O   15.0079210    0.0084343   -2.3032906  
C   13.7093923    0.0080778   -4.3235154  
O   14.9403931    0.0097320   -4.9463947  
C   12.5014329    0.0070621   -4.9893661  
H    9.4838094    0.0037285   -5.5371514  
H    9.8852278   -0.0055671   -1.3490198  
H   12.7179551    0.0062439   -1.0637735  
H   15.6646144    0.0095063   -3.0118240  
H   14.7996840    0.0100092   -5.8981318  
H   12.4746270    0.0077372   -6.0727677  
C    6.8064686    0.0000398   -4.0743113  
C    7.7887312    0.0006875   -3.1111773  
C    7.1308655    0.0013414   -1.8455498  
C    5.7357521    0.0007674   -2.1016434  
N    5.5736258    0.0019332   -3.4648494  
C    4.7795901    0.0008674   -1.0815733  
C    5.2401778    0.0012524    0.2207465  
O    4.3497073    0.0010154    1.2551915  
C    6.6282665    0.0022028    0.4964747  
O    6.9274455    0.0029068    1.8432622  
C    7.5721096    0.0023780   -0.5093512  
H    4.6916431   -0.0087005   -3.9444062  
H    4.8738770    0.0016565    2.0666783  
H    7.8844234    0.0034996    1.9422365  
H    8.6285024    0.0032956   -0.2674569  
H    6.8877380   -0.0001770   -5.1477894  
C    3.3321168    0.0004716   -1.3379341  
C    2.6974177    0.0000118   -2.5332316  
C    1.2800432   -0.0002116   -2.2052842  
C    1.2395033    0.0000644   -0.7271298  
N    2.4394059    0.0005460   -0.2131041  
C    0.0000000    0.0000000    0.0000000  
C   -1.1468704    0.0000635   -0.7169542  
O   -2.3742206    0.0000074   -0.1695488  
C   -1.1388774    0.0001608   -2.2096352  
O   -2.2206238    0.0000906   -2.7970409  
C    0.1454514    0.0001818   -2.9324241  
H    3.1367978   -0.0000649   -3.5160956  
H   -2.9844350    0.0001027   -0.9290164  
H    0.1083567    0.0003684   -4.0135594  
C    0.0000000    0.0000000    1.4700000  
C    1.0541688    0.0001722    2.3260392  
C    0.5103138    0.0000454    3.6635956  
C   -0.9576371   -0.0002459    3.5155732  
N   -1.2018458    0.0001392    2.1615969  
C   -1.8348311   -0.0008317    4.5510609  
C   -1.2972847   -0.0009736    5.9014604  
O   -2.0050672   -0.0014265    6.9001319  
C    0.2542623   -0.0004184    6.0817573  
O    0.7184670   -0.0002256    7.2139121  
C    1.0974552   -0.0000873    4.8889129  
H    2.0940752    0.0005483    2.0517982  
H   -2.9081052   -0.0011668    4.4207061  
H    2.1707277    0.0000911    5.0223670  
H   -2.1128194   -0.0014912    1.7406791  
