62

C   -1.2937116    4.2334483    1.9361524  
C   -2.1028730    4.8961381    2.8297787  
C   -3.4460648    4.5164323    2.5360783  
C   -3.3937645    3.6123067    1.4444068  
N   -2.0722327    3.4640104    1.1035553  
C   -4.5375006    3.0326342    0.8870587  
C   -5.7562105    3.3716157    1.4420495  
O   -6.9046659    2.8343132    0.9367074  
C   -5.8289197    4.2721727    2.5313277  
O   -7.1147110    4.5092998    2.9716175  
C   -4.7010284    4.8446232    3.0814968  
H   -1.7664918    5.5711375    3.5980350  
H   -1.7249791    2.8740343    0.3691683  
H   -7.6300169    3.1980296    1.4609594  
H   -7.0749382    5.1270975    3.7080611  
H   -4.7880019    5.5311949    3.9154835  
H   -0.2229506    4.2498700    1.8258842  
C   -4.4924722    2.0950382   -0.2442180  
C   -3.4157282    1.6323166   -0.9302112  
C   -3.9167334    0.7362614   -1.9455505  
C   -5.3841447    0.7147467   -1.7937840  
N   -5.6689496    1.5587225   -0.7452229  
C   -6.2266191   -0.0146660   -2.5683138  
C   -5.6495856   -0.8333370   -3.6215681  
O   -6.3243546   -1.5259653   -4.3720706  
C   -4.0978599   -0.8259952   -3.8001702  
O   -3.6005722   -1.5115249   -4.6833547  
C   -3.2941076    0.0012878   -2.9038237  
H   -2.3878038    1.8892262   -0.7458680  
H   -7.3001860   -0.0161878   -2.4403989  
H   -6.5897802    1.7563619   -0.3987296  
C    0.0000000    0.0000000    0.0000000  
C    1.0541688   -0.0001723   -0.8560392  
C    0.5103136   -0.0000455   -2.1935956  
C   -0.9576373    0.0002461   -2.0455730  
N   -1.2018460   -0.0001389   -0.6915968  
C   -1.8348314    0.0008319   -3.0810607  
C   -1.2972851    0.0009739   -4.4314603  
O   -2.0050676    0.0014268   -5.4301316  
C    0.2542619    0.0004184   -4.6117572  
O    0.7184666    0.0002257   -5.7439122  
C    1.0974551    0.0000873   -3.4189129  
H    2.0940752   -0.0005484   -0.5817983  
H    2.1707276   -0.0000912   -3.5523673  
H   -2.1128194    0.0014915   -0.2706789  
C    3.3003543   -0.0005276    2.9438989  
C    2.5232812   -0.0003497    4.0790748  
C    1.1623199    0.0001319    3.6520102  
C    1.1711883   -0.0000583    2.2336141  
N    2.4852299    0.0014920    1.8362361  
C    0.0000000    0.0000000    1.4700000  
C   -1.2020384   -0.0000520    2.1506477  
O   -2.3759250   -0.0003494    1.4542253  
C   -1.2314658    0.0005113    3.5655508  
O   -2.5054393    0.0008037    4.0950179  
C   -0.0764518    0.0007272    4.3195194  
H    2.8919952    0.0005619    5.0905303  
H    2.8036267   -0.0088181    0.8841339  
H   -3.0835639   -0.0000348    2.1118817  
H   -2.4360050    0.0011527    5.0545920  
H   -0.1304098    0.0013421    5.4019087  
H    4.3715549   -0.0004895    2.8367138  
