60

C    8.1698811   -0.0026509   -0.4381472  
C    8.3523501   -0.0051342    0.9253652  
C    9.7597955   -0.0072874    1.1570843  
C   10.3907584   -0.0056940   -0.1132731  
N    9.3965523   -0.0048370   -1.0599356  
C   11.7803624   -0.0068028   -0.2675069  
C   12.5469789   -0.0092635    0.8816110  
O   13.9087260   -0.0100864    0.7885824  
C   11.9359422   -0.0112580    2.1581096  
O   12.8348776   -0.0140256    3.2046520  
C   10.5651236   -0.0104389    2.3110171  
H    7.5675714   -0.0064705    1.6623273  
H    9.5411442    0.0068948   -2.0533824  
H   12.2674069   -0.0057434   -1.2329036  
H   14.2442903   -0.0121321    1.6944841  
H   12.3406697   -0.0152081    4.0300976  
H   10.1257625   -0.0121971    3.3016920  
C    5.6463485   -0.0007503   -0.7029966  
C    4.7161325   -0.0005435   -1.6923264  
C    5.4339816   -0.0003284   -2.9451346  
C    6.8689501   -0.0004567   -2.6021239  
N    6.9298893   -0.0003134   -1.2276508  
C    7.8767467   -0.0007179   -3.5109972  
C    7.5246255   -0.0006573   -4.9211555  
O    8.3596091   -0.0008153   -5.8162002  
C    6.0111284   -0.0002695   -5.3073303  
O    5.7025034    0.0000912   -6.4913958  
C    5.0159834   -0.0002905   -4.2379666  
H    8.9229464   -0.0009383   -3.2382781  
H    3.9701999   -0.0002261   -4.5137575  
H    5.5021930   -0.0009683    0.3652301  
C    3.2573665   -0.0002920   -1.5109385  
C    2.5379463   -0.0001709   -0.3591964  
C    1.1435038    0.0000331   -0.7338500  
C    1.1092599   -0.0000083   -2.2088477  
N    2.4227553    0.0001909   -2.6182613  
C   -0.0265539   -0.0002524   -2.9515660  
C   -1.3003040   -0.0002640   -2.2514977  
O   -2.3786790   -0.0004133   -2.8306421  
C   -1.2877727    0.0000311   -0.6895603  
O   -2.3539959    0.0003306   -0.0892030  
C    0.0000000    0.0000000    0.0000000  
H    2.9384091   -0.0000367    0.6389234  
H   -0.0296303   -0.0004086   -4.0327229  
H    2.7280482   -0.0013407   -3.5742119  
C    2.5128556    2.1077716    2.9199648  
C    1.9592212    1.6432552    4.0696553  
C    0.8915788    0.7479214    3.6910360  
C    0.8684491    0.7287414    2.2159470  
N    1.8754542    1.5738793    1.8102719  
C    0.0000000    0.0000000    1.4700000  
C   -0.9772830   -0.8200135    2.1664417  
O   -1.8021297   -1.5120829    1.5842315  
C   -0.9711318   -0.8147624    3.7284083  
O   -1.7894187   -1.5009653    4.3257297  
C    0.0140216    0.0115358    4.4216297  
H    2.2638494    1.8988021    5.0689105  
H    0.0117648    0.0094386    5.5031631  
H    3.3327358    2.7953732    2.7900019  
H    2.1123206    1.7707734    0.8551938  
