62

C    0.0000000    0.0000000    0.0000000  
C   -1.0239732   -0.2419382   -0.8862345  
C   -0.4786930   -0.1124455   -2.1979133  
C    0.8939578    0.2119635   -2.0478683  
N    1.1510836    0.2743137   -0.7007912  
C    1.7468384    0.4137558   -3.1372090  
C    1.2042201    0.2854278   -4.4010423  
O    1.9923808    0.4715499   -5.4997574  
C   -0.1631426   -0.0373462   -4.5711964  
O   -0.5524789   -0.1290697   -5.8915554  
C   -1.0051795   -0.2362920   -3.4969892  
H   -2.0393216   -0.4811247   -0.6200563  
H    2.0445520    0.4749952   -0.2891823  
H    1.4240423    0.3374984   -6.2693592  
H   -1.4884650   -0.3500559   -5.9180050  
H   -2.0481964   -0.4823112   -3.6584458  
C    4.7113322   -1.0858404   -0.3175485  
C    5.8220918   -0.4042827   -0.6826120  
C    5.4001084    0.4319895   -1.7957507  
C    3.9657222    0.1197816   -1.9736452  
N    3.5563111   -0.7692460   -1.1099312  
C    3.1702744    0.7503705   -2.9908505  
C    3.7799650    1.6521590   -3.7935891  
O    3.1594424    2.3160927   -4.7836321  
C    5.2259293    1.9888976   -3.6388177  
O    5.7150075    2.8190412   -4.4049019  
C    6.0204883    1.3284548   -2.5879057  
H    6.8062276   -0.4618447   -0.2499013  
H    3.8498501    2.8825086   -5.1730703  
H    7.0645987    1.6000160   -2.5084186  
C    5.5867760   -2.4872084    1.6081021  
C    5.1367578   -3.4121939    2.4946463  
C    3.7364400   -3.6207889    2.2110397  
C    3.4051651   -2.7351780    1.0784582  
N    4.5696935   -2.0751440    0.7604668  
C    2.1760366   -2.6394827    0.5111924  
C    1.1080841   -3.4635720    1.0523851  
O   -0.0333818   -3.4492351    0.6106257  
C    1.4362863   -4.4086265    2.2519515  
O    0.5451636   -5.1069439    2.7161861  
C    2.7990371   -4.4246597    2.7777894  
H    5.7192381   -3.8933216    3.2600528  
H    1.9541635   -1.9835387   -0.3191205  
H    3.0181032   -5.0819118    3.6083036  
H    6.5758096   -2.0717373    1.5028108  
C    1.1188642   -0.0008217    2.2703808  
C    0.0000000    0.0000000    1.4700000  
C   -1.1323862   -0.0008904    2.3373528  
C   -0.6382662   -0.0019682    3.6669281  
N    0.7324016   -0.0038477    3.5902241  
C   -1.4770914   -0.0027325    4.7854808  
C   -2.8395474   -0.0020958    4.5576857  
O   -3.7039201   -0.0024443    5.6140350  
C   -3.3517868   -0.0013946    3.2384331  
O   -4.7300496   -0.0012389    3.1773122  
C   -2.5248543   -0.0009135    2.1344818  
H    1.3576314    0.0056174    4.3757045  
H   -1.1067570   -0.0036993    5.8013813  
H   -4.5940033   -0.0021850    5.2385129  
H   -4.9934601   -0.0007286    2.2519915  
H   -2.9462578   -0.0005617    1.1360343  
H    2.1619896   -0.0009344    2.0042067  
