62

C    9.8724075   -0.0003134    4.3861296  
C    9.1494840    0.0000996    3.2157243  
C    7.7699747   -0.0004933    3.5784247  
C    7.7122439   -0.0009767    4.9956734  
N    9.0061813   -0.0028037    5.4543031  
C    6.5064977   -0.0013187    5.7034615  
C    5.3377388   -0.0008629    4.9671327  
O    4.1324518   -0.0008170    5.6076771  
C    5.3747692   -0.0007527    3.5524080  
O    4.1270577   -0.0007084    2.9637155  
C    6.5639064   -0.0006886    2.8534948  
H    9.5652770   -0.0003569    2.2226939  
H    9.2795288    0.0070330    6.4203072  
H    6.4557342   -0.0018317    6.7835652  
H    3.4564679   -0.0007721    4.9175240  
H    4.2414643   -0.0006068    2.0084591  
H   10.9373948   -0.0004744    4.5434867  
C    6.5597233   -0.0008210    1.3835008  
C    7.6114523   -0.0009113    0.5244653  
C    7.0637933   -0.0009871   -0.8115379  
C    5.5962695   -0.0009037   -0.6593392  
N    5.3559146   -0.0012037    0.6953265  
C    4.7161325   -0.0005435   -1.6923264  
C    5.2498343   -0.0004422   -3.0442502  
O    4.5392129   -0.0001860   -4.0409036  
C    6.8008622   -0.0007797   -3.2289611  
O    7.2618431   -0.0010045   -4.3624322  
C    7.6474456   -0.0008762   -2.0385208  
H    8.6521348   -0.0011060    0.7957464  
H    8.7203336   -0.0009048   -2.1750284  
H    4.4461421    0.0003272    1.1188347  
C    3.2573665   -0.0002920   -1.5109385  
C    2.5379463   -0.0001709   -0.3591964  
C    1.1435038    0.0000331   -0.7338500  
C    1.1092599   -0.0000083   -2.2088477  
N    2.4227553    0.0001909   -2.6182613  
C   -0.0265539   -0.0002524   -2.9515660  
C   -1.3003040   -0.0002640   -2.2514977  
O   -2.3786790   -0.0004133   -2.8306421  
C   -1.2877727    0.0000311   -0.6895603  
O   -2.3539959    0.0003306   -0.0892030  
C    0.0000000    0.0000000    0.0000000  
H    2.9384091   -0.0000367    0.6389234  
H   -0.0296303   -0.0004086   -4.0327229  
H    2.7280482   -0.0013407   -3.5742119  
C    2.5285572    2.1210227    2.9438989  
C    1.9331703    1.6216660    4.0790748  
C    0.8903039    0.7472258    3.6520102  
C    0.8972198    0.7527806    2.2336141  
N    1.9028376    1.5986179    1.8362361  
C    0.0000000    0.0000000    1.4700000  
C   -0.9207814   -0.7726952    2.1506477  
O   -1.8198395   -1.5274828    1.4542253  
C   -0.9436862   -0.7911793    3.5655508  
O   -1.9197945   -1.6098497    4.0950179  
C   -0.0590329   -0.0485852    4.3195194  
H    2.2150357    1.8593692    5.0905303  
H    2.1533708    1.7953814    0.8841339  
H   -2.3621246   -1.9821033    2.1118817  
H   -1.8668290   -1.5649508    5.0545920  
H   -0.1007624   -0.0827977    5.4019087  
H    3.3491200    2.8096064    2.8367138  
