64

C    4.2698009    0.1557270   -6.7077916  
C    5.4565275   -0.4898696   -6.9673147  
C    5.8808834   -0.0755431   -8.2645635  
C    4.9049588    0.8311121   -8.7518760  
N    3.9397048    0.9475607   -7.7826801  
C    4.9990649    1.4413443  -10.0062885  
C    6.0985417    1.1308874  -10.7827836  
O    6.2402623    1.6986846  -12.0158833  
C    7.0827183    0.2283200  -10.3141844  
O    8.1163913    0.0217979  -11.2042483  
C    6.9903911   -0.3742689   -9.0768938  
H    5.9544671   -1.1759806   -6.3037628  
H    3.1251185    1.5314304   -7.8420679  
H    4.2585694    2.1331141  -10.3835468  
H    7.0633210    1.3512636  -12.3834946  
H    8.7367687   -0.5995823  -10.8110280  
H    7.7597543   -1.0615970   -8.7450217  
C    4.6027285   -2.0944967   -2.9150972  
C    3.4411564   -1.6373419   -2.3369733  
C    2.8377888   -0.7405118   -3.2676951  
C    3.6836207   -0.6899842   -4.4052102  
N    4.7469285   -1.5221608   -4.1572673  
C    3.3988817    0.0972715   -5.5250053  
C    2.2389990    0.8469468   -5.4960813  
O    1.9125740    1.6330033   -6.5631224  
C    1.3824833    0.8101281   -4.3700960  
O    0.2670647    1.6125636   -4.4937162  
C    1.6628945    0.0339172   -3.2649299  
H    3.0744455   -1.9151389   -1.3636568  
H    5.5062373   -1.6979116   -4.7901521  
H    1.0776870    2.0643813   -6.3392000  
H   -0.2575671    1.5298018   -3.6915217  
H    5.3404964   -2.7824370   -2.5390698  
C    1.1243410    0.0100105   -0.7919003  
C    0.7474072    0.0234665   -2.1148542  
C   -0.6787384    0.0234379   -2.1414698  
C   -1.1201748    0.0098411   -0.7935547  
N    0.0000000    0.0000000    0.0000000  
C   -2.4730818    0.0063307   -0.4408240  
C   -3.3971962    0.0170429   -1.4675058  
O   -4.7313520    0.0145490   -1.1793468  
C   -2.9763654    0.0303020   -2.8186325  
O   -4.0166484    0.0394464   -3.7247625  
C   -1.6418567    0.0334992   -3.1673480  
H   -2.8160166   -0.0041569    0.5845966  
H   -5.1938823    0.0230023   -2.0274386  
H   -3.6464680    0.0481700   -4.6127343  
H   -1.3497475    0.0435647   -4.2109234  
H    2.1062466    0.0053162   -0.3505405  
C    0.8175213    0.6860729    2.3021913  
C    0.0000000    0.0000000    1.4700000  
C   -0.8887526   -0.7456559    2.3478473  
C   -0.4549825   -0.3816753    3.7138435  
N    0.5448156    0.4573574    3.6934124  
C   -1.0945674   -0.9182058    4.8835240  
C   -2.1210866   -1.7789155    4.6970523  
O   -2.8083856   -2.3554314    5.6976972  
C   -2.5824069   -2.1655116    3.3310774  
O   -3.5227682   -2.9541547    3.2362962  
C   -1.9100805   -1.6015804    2.1470656  
H   -0.7567140   -0.6349833    5.8697035  
H   -3.4728268   -2.9124471    5.2533954  
H   -2.2742832   -1.9066565    1.1752040  
H    1.6189533    1.3585343    2.0405121  
