60

C    4.5679461   -0.0016852   -2.0086700  
C    5.6536973   -0.0029014   -1.1639159  
C    6.8200667   -0.0036869   -1.9850012  
C    6.3798480   -0.0026034   -3.3333826  
N    5.0072030   -0.0033524   -3.3118967  
C    7.2630035   -0.0026748   -4.4172766  
C    8.6151888   -0.0035546   -4.1348421  
O    9.5213679   -0.0033135   -5.1555544  
C    9.0739280   -0.0050175   -2.7960467  
O   10.4486148   -0.0061771   -2.6795160  
C    8.2032430   -0.0052211   -1.7262640  
H    5.6103768   -0.0042925   -0.0882232  
H    4.4140950    0.0076885   -4.1218859  
H    6.9338469   -0.0019967   -5.4472563  
H   10.3956196   -0.0043378   -4.7445211  
H   10.6745780   -0.0070988   -1.7443458  
H    8.5841289   -0.0065375   -0.7116693  
C    3.1301152   -0.0010311   -1.7028251  
C    2.5367770   -0.0002766   -0.4864665  
C    1.1089905    0.0001028   -0.7656183  
C    1.0177873   -0.0004148   -2.2415130  
N    2.1993580   -0.0011610   -2.7963820  
C   -0.2459208   -0.0002877   -2.9257119  
C   -1.3675318   -0.0000605   -2.1698523  
O   -2.6129310    0.0000866   -2.6748492  
C   -1.3083584    0.0000911   -0.6783232  
O   -2.3693259    0.0004206   -0.0541692  
C    0.0000000    0.0000000    0.0000000  
H    3.0096019   -0.0001007    0.4807529  
H   -3.1967440    0.0002093   -1.8949035  
C    0.4920779   -0.6868678   -5.2544642  
C   -0.2963281   -0.0005339   -4.3948471  
C   -1.2145535    0.7451072   -5.2418312  
C   -0.8279315    0.3808332   -6.6218357  
N    0.1718593   -0.4583448   -6.6355552  
C   -1.5071728    0.9172630   -7.7689887  
C   -2.5265708    1.7781567   -7.5475753  
O   -3.2476960    2.3546073   -8.5241629  
C   -2.9407244    2.1650503   -6.1666509  
O   -3.8771697    2.9538492   -6.0398161  
C   -2.2282735    1.6012172   -5.0062931  
H   -1.2033753    0.6338251   -8.7661249  
H   -3.8964313    2.9117964   -8.0574346  
H   -2.5588923    1.9065103   -4.0225667  
H    1.3019156   -1.3594047   -5.0203046  
C    0.0000000    0.0000000    1.4700000  
C    1.0541688    0.0001722    2.3260392  
C    0.5103138    0.0000454    3.6635956  
C   -0.9576371   -0.0002459    3.5155732  
N   -1.2018458    0.0001392    2.1615969  
C   -1.8348311   -0.0008317    4.5510609  
C   -1.2972847   -0.0009736    5.9014604  
O   -2.0050672   -0.0014265    6.9001319  
C    0.2542623   -0.0004184    6.0817573  
O    0.7184670   -0.0002256    7.2139121  
C    1.0974552   -0.0000873    4.8889129  
H    2.0940752    0.0005483    2.0517982  
H   -2.9081052   -0.0011668    4.4207061  
H    2.1707277    0.0000911    5.0223670  
H   -2.1128194   -0.0014912    1.7406791  
