60

C    6.8742257    0.0003236   -4.0661425  
C    5.5942423    0.0007869   -3.5620507  
C    5.7067593    0.0007579   -2.1401013  
C    7.0913510    0.0005508   -1.8321526  
N    7.7720039   -0.0016612   -3.0243459  
C    7.5742847    0.0007721   -0.5200693  
C    6.6425082    0.0015173    0.4997194  
O    7.0593434    0.0021142    1.7994356  
C    5.2567329    0.0013592    0.2125911  
O    4.4562654    0.0017482    1.3362438  
C    4.7795897    0.0008677   -1.0815734  
H    4.6906033    0.0000011   -4.1472244  
H    8.7711572    0.0082510   -3.1221991  
H    8.6283018    0.0004721   -0.2787183  
H    6.2603306    0.0022789    2.3424296  
H    3.5363980    0.0016364    1.0543799  
H    7.2178042   -0.0001938   -5.0863936  
C    3.3321166    0.0004717   -1.3379342  
C    2.6974176    0.0000121   -2.5332317  
C    1.2800432   -0.0002115   -2.2052842  
C    1.2395033    0.0000645   -0.7271297  
N    2.4394059    0.0005461   -0.2131042  
C    0.0000000    0.0000000    0.0000000  
C   -1.1468704    0.0000636   -0.7169540  
O   -2.3742206    0.0000073   -0.1695488  
C   -1.1388774    0.0001610   -2.2096351  
O   -2.2206238    0.0000908   -2.7970408  
C    0.1454514    0.0001820   -2.9324241  
H    3.1367977   -0.0000646   -3.5160953  
H   -2.9844351    0.0001027   -0.9290163  
C    0.0950440    0.0004357   -4.4015596  
C    1.1192386    0.0002605   -5.2932435  
C    0.5298377    0.0006958   -6.6113644  
C   -0.9321740    0.0011715   -6.4130916  
N   -1.1298103    0.0005876   -5.0515376  
C   -1.8443597    0.0020614   -7.4178901  
C   -1.3534356    0.0023594   -8.7859287  
O   -2.0950469    0.0030859   -9.7597424  
C    0.1910163    0.0016135   -9.0193234  
O    0.6161255    0.0015497  -10.1667300  
C    1.0746167    0.0009560   -7.8560943  
H    2.1679373   -0.0003116   -5.0548230  
H   -2.9125325    0.0025274   -7.2508094  
H    2.1426818    0.0006472   -8.0262735  
H   -2.0258144    0.0022756   -4.5996289  
C    0.0000000    0.0000000    1.4700000  
C    1.0662921    0.0000102    2.3034270  
C    0.4961870   -0.0000064    3.6418889  
C   -0.9663858    0.0000850    3.4240247  
N   -1.2632773    0.0000084    2.1528658  
C   -1.8985362    0.0000517    4.5177257  
C   -1.3925775   -0.0004564    5.7720543  
O   -2.1456383   -0.0005410    6.8851312  
C    0.0786232   -0.0009323    6.0245000  
O    0.4683759   -0.0012588    7.1921102  
C    1.0143166   -0.0008442    4.8859032  
H    2.1107198   -0.0000632    2.0421868  
H   -2.9622183    0.0003270    4.3293377  
H   -1.5042274   -0.0009692    7.6184419  
H    2.0724152   -0.0013148    5.1109744  
