62

C    7.2341847   -3.5947680   -3.8699469  
C    8.3085358   -4.3748020   -4.2302037  
C    8.4802186   -4.2224435   -5.6380072  
C    7.4731023   -3.3296800   -6.0859114  
N    6.7328663   -2.9692068   -4.9874003  
C    7.3406491   -2.9492312   -7.4247553  
C    8.2414687   -3.4794476   -8.3278458  
O    8.1577417   -3.1412018   -9.6475405  
C    9.2530476   -4.3720520   -7.9003150  
O   10.0716975   -4.8135943   -8.9192335  
C    9.3841409   -4.7480240   -6.5797156  
H    8.8955248   -4.9801185   -3.5608539  
H    6.5751543   -2.2693317   -7.7725439  
H    8.8697534   -3.6151778  -10.0965960  
H   10.7266072   -5.4113192   -8.5458394  
H   10.1688362   -5.4336762   -6.2820400  
H    6.7849512   -3.4362566   -2.9045340  
C    5.5927687   -2.0413270   -4.9982261  
C    4.8287721   -1.6475005   -3.9528606  
C    3.8535672   -0.7319536   -4.5249175  
C    4.1839225   -0.6880032   -5.9655833  
N    5.2025041   -1.4536080   -6.2490079  
C    3.4384733    0.1179388   -6.8928634  
C    2.4095201    0.8465426   -6.4032447  
O    1.6292569    1.6424639   -7.1540708  
C    2.0511536    0.8230559   -4.9543892  
O    1.1023882    1.5114740   -4.5786956  
C    2.8310662   -0.0116220   -4.0232752  
H    4.9161336   -1.9419918   -2.9210085  
H    3.7020821    0.1311624   -7.9403578  
H    0.9895017    2.0254574   -6.5270283  
C    3.3041270    0.0001177   -1.5420434  
C    2.5845372   -0.0004781   -0.3695856  
C    1.2040006   -0.0000008   -0.7283592  
C    1.1422371    0.0006037   -2.1454375  
N    2.4348636    0.0026109   -2.6077467  
C   -0.0655183    0.0008798   -2.8497920  
C   -1.2321770    0.0002326   -2.1101400  
O   -2.4392818    0.0001147   -2.7472520  
C   -1.1911210   -0.0000007   -0.6955263  
O   -2.4371527   -0.0002320   -0.1032859  
C    0.0000000    0.0000000    0.0000000  
H    3.0031533   -0.0000660    0.6222577  
H   -0.1193553    0.0014844   -3.9297472  
H   -3.1132989   -0.0000648   -2.0551784  
H   -2.3200282   -0.0004069    0.8516410  
H    4.3686624    0.0004070   -1.7024294  
C    2.5528530    2.1414826    2.8079335  
C    2.0663498    1.7338582    4.0032312  
C    0.9804344    0.8229586    3.6752840  
C    0.9495562    0.7966882    2.1971295  
N    1.8690446    1.5676019    1.6831036  
C    0.0000000    0.0000000    1.4700000  
C   -0.8785127   -0.7372425    2.1869543  
O   -1.8187535   -1.5261249    1.6395491  
C   -0.8723269   -0.7321790    3.6796354  
O   -1.7010379   -1.4274584    4.2670412  
C    0.1115397    0.0933559    4.4024240  
H    2.4028853    2.0163452    4.9860947  
H   -2.2861435   -1.9184361    2.3990168  
H    0.0832434    0.0693689    5.4835595  
H    3.3664920    2.8238276    2.6198634  
