62

C    0.7413082    0.0196744   -8.8437866  
C    1.8165734   -0.6557752   -9.3729749  
C    1.8991615   -0.2933744  -10.7500900  
C    0.8392528    0.6138314  -11.0060153  
N    0.1546660    0.7805277   -9.8278102  
C    0.6152477    1.1794387  -12.2648636  
C    1.4770938    0.8229642  -13.2838467  
O    1.3041876    1.3460249  -14.5326557  
C    2.5402366   -0.0809401  -13.0482587  
O    3.3103801   -0.3362066  -14.1640806  
C    2.7616557   -0.6395218  -11.8066923  
H    2.4613556   -1.3279559   -8.8331393  
H   -0.6428308    1.3767439   -9.6993340  
H   -0.1908535    1.8713693  -12.4664460  
H    2.0029116    0.9714738  -15.0847086  
H    4.0050584   -0.9550787  -13.9190842  
H    3.5841123   -1.3290743  -11.6564898  
C    2.0060354   -2.0933382   -5.2079950  
C    1.0681400   -1.6309435   -4.3416125  
C    0.2140993   -0.7346500   -5.0846522  
C    0.7350365   -0.7126395   -6.4648448  
N    1.8215801   -1.5565850   -6.4731480  
C    0.2009229    0.0171138   -7.4767177  
C   -0.9646761    0.8356538   -7.1870525  
O   -1.5183198    1.5285630   -8.0306496  
C   -1.5330620    0.8277891   -5.7321707  
O   -2.5138752    1.5132041   -5.4762939  
C   -0.8712826    0.0001710   -4.7267111  
H    0.9842757   -1.8882192   -3.3007524  
H    2.8165826   -2.7808930   -5.0286319  
H    2.3914343   -1.7539294   -7.2752499  
C    1.0965514    0.0001359   -0.8010305  
C    0.0000000    0.0000000    0.0000000  
C   -1.1546563    0.0001470   -0.8669513  
C   -0.6372014    0.0003519   -2.2486282  
N    0.7342871    0.0007337   -2.1395014  
C   -1.4147739    0.0001352   -3.3608717  
C   -2.8576049   -0.0001048   -3.1854462  
O   -3.6427779   -0.0002494   -4.1244907  
C   -3.4275840   -0.0000725   -1.7311666  
O   -4.6406831    0.0000333   -1.5710060  
C   -2.4891867   -0.0001091   -0.6116744  
H   -2.8919122   -0.0002918    0.3920866  
H    2.1388272    0.0000663   -0.5261648  
H    1.3735872   -0.0006099   -2.9130262  
C    2.5285572    2.1210227    2.9438989  
C    1.9331703    1.6216660    4.0790748  
C    0.8903039    0.7472258    3.6520102  
C    0.8972198    0.7527806    2.2336141  
N    1.9028376    1.5986179    1.8362361  
C    0.0000000    0.0000000    1.4700000  
C   -0.9207814   -0.7726952    2.1506477  
O   -1.8198395   -1.5274828    1.4542253  
C   -0.9436862   -0.7911793    3.5655508  
O   -1.9197945   -1.6098497    4.0950179  
C   -0.0590329   -0.0485852    4.3195194  
H    2.2150357    1.8593692    5.0905303  
H    2.1533708    1.7953814    0.8841339  
H   -2.3621246   -1.9821033    2.1118817  
H   -1.8668290   -1.5649508    5.0545920  
H   -0.1007624   -0.0827977    5.4019087  
H    3.3491200    2.8096064    2.8367138  
