64

C    4.4916363   -0.3878110   -7.5790593  
C    5.5311216   -0.2424192   -8.4683285  
C    5.5631617    1.1314949   -8.8503406  
C    4.5107196    1.7812138   -8.1559643  
N    3.8789536    0.8295292   -7.3945278  
C    4.2452117    3.1471884   -8.2916417  
C    5.0571149    3.8705106   -9.1435778  
O    4.8422725    5.2077469   -9.3128583  
C    6.1120036    3.2401038   -9.8454415  
O    6.8301706    4.0955860  -10.6552125  
C    6.3743420    1.8925230   -9.7122843  
H    6.1850781   -1.0299777   -8.8016226  
H    3.4445374    3.6483066   -7.7653312  
H    5.5102964    5.5144127   -9.9397262  
H    7.5227125    3.5908073  -11.0924646  
H    7.1892631    1.4374056  -10.2629655  
H    4.1378877   -1.2638330   -7.0629140  
C    2.8434396   -0.7174319   -3.3295212  
C    3.4705723   -0.4665766   -4.5279551  
C    2.6462645    0.4501927   -5.2453468  
C    1.5204238    0.7253686   -4.4276141  
N    1.6707636   -0.0012343   -3.2725974  
C    0.4959244    1.5928957   -4.8182368  
C    0.6101835    2.1938123   -6.0567931  
O   -0.3616143    3.0499771   -6.4876105  
C    1.7257479    1.9316205   -6.8872078  
O    1.6939058    2.6061784   -8.0902458  
C    2.7366814    1.0756865   -6.5026083  
H    4.4064340   -0.8928629   -4.8464453  
H   -0.3648220    1.8066981   -4.1996853  
H   -0.0899714    3.3526643   -7.3638847  
H    2.4822851    2.3736945   -8.5902582  
H    3.1391408   -1.3516748   -2.5114405  
C    1.0965514    0.0001358   -0.8010306  
C    0.0000000    0.0000000    0.0000000  
C   -1.1546565    0.0001470   -0.8669508  
C   -0.6372019    0.0003520   -2.2486278  
N    0.7342867    0.0007338   -2.1395012  
C   -1.4147744    0.0001354   -3.3608712  
C   -2.8576052   -0.0001047   -3.1854454  
O   -3.6427785   -0.0002490   -4.1244896  
C   -3.4275841   -0.0000727   -1.7311660  
O   -4.6406832    0.0000333   -1.5710049  
C   -2.4891868   -0.0001090   -0.6116739  
H   -1.0150456    0.0001617   -4.3654239  
H   -2.8919122   -0.0002919    0.3920871  
H    2.1388270    0.0000663   -0.5261650  
C    2.5311839    2.1237619    3.0120429  
C    1.9795631    1.6616747    1.8395852  
C    0.9223175    0.7739173    2.1983588  
C    0.8753926    0.7337535    3.6154372  
N    1.8668922    1.5631002    4.0777464  
C   -0.0496243   -0.0427881    4.3197917  
C   -0.9437528   -0.7922060    3.5801400  
O   -1.8685244   -1.5680278    4.2172520  
C   -0.9124520   -0.7656372    2.1655264  
O   -1.8671164   -1.5663939    1.5732860  
C    0.0000000    0.0000000    1.4700000  
H    2.3005065    1.9304404    0.8477417  
H    2.0679347    1.7444845    5.0445261  
H   -0.0904770   -0.0778569    5.3997470  
H   -2.3849669   -2.0011402    3.5251786  
H   -1.7775064   -1.4909735    0.6183591  
H    3.3468514    2.8078103    3.1724291  
