60

C    2.5407189   -2.1175681   -5.9030222  
C    1.9415421   -1.6187194   -7.0364259  
C    0.8989095   -0.7455179   -6.6062679  
C    0.9098667   -0.7512695   -5.1878981  
N    1.9175641   -1.5960294   -4.7935065  
C    0.0139746    0.0003883   -4.4216235  
C   -0.9096101    0.7721425   -5.0995353  
O   -1.8075338    1.5258146   -4.4004467  
C   -0.9365608    0.7908048   -6.5143649  
O   -1.9150938    1.6084501   -7.0409320  
C   -0.0532191    0.0493180   -7.2709567  
H    2.2207970   -1.8559587   -8.0487138  
H    2.1710267   -1.7926474   -3.8421502  
H   -2.3521998    1.9799184   -5.0564906  
H   -1.8648078    1.5637495   -8.0006599  
H   -0.0980665    0.0836396   -8.3532171  
H    3.3623587   -2.8052407   -5.7982731  
C    3.2798087    0.0005858   -1.4499643  
C    2.5571149    0.0005569   -2.5996548  
C    1.1637440    0.0001551   -2.2210358  
C    1.1336966   -0.0000198   -0.7459468  
N    2.4483512   -0.0001426   -0.3402714  
C    0.0000000    0.0000000    0.0000000  
C   -1.2757369   -0.0000185   -0.6964416  
O   -2.3524599   -0.0000639   -0.1142315  
C   -1.2676492   -0.0000870   -2.2584080  
O   -2.3355760   -0.0004099   -2.8557298  
C    0.0181565    0.0001762   -2.9516296  
H    2.9547360    0.0006079   -3.5989102  
H    2.7563627    0.0012824    0.6148067  
C    5.6664823    0.0014072   -2.2646998  
C    4.7390849    0.0009618   -1.2727274  
C    5.4604960    0.0006404   -0.0219670  
C    6.8944823    0.0009663   -0.3690591  
N    6.9515107    0.0010273   -1.7437000  
C    7.9048606    0.0012005    0.5369434  
C    7.5567539    0.0009006    1.9480977  
O    8.3942797    0.0010158    2.8407626  
C    6.0443612    0.0003008    2.3385773  
O    5.7391068   -0.0002624    3.5235158  
C    5.0461782    0.0003731    1.2720494  
H    8.9502802    0.0015684    0.2612485  
H    4.0011832    0.0001609    1.5508142  
H    5.5192876    0.0017642   -3.3325121  
H    7.7964725    0.0027881   -2.2850725  
C    0.8175213    0.6860729    2.3021913  
C    0.0000000    0.0000000    1.4700000  
C   -0.8887526   -0.7456559    2.3478473  
C   -0.4549825   -0.3816753    3.7138435  
N    0.5448156    0.4573574    3.6934124  
C   -1.0945674   -0.9182058    4.8835240  
C   -2.1210866   -1.7789155    4.6970523  
O   -2.8083856   -2.3554314    5.6976972  
C   -2.5824069   -2.1655116    3.3310774  
O   -3.5227682   -2.9541547    3.2362962  
C   -1.9100805   -1.6015804    2.1470656  
H   -0.7567140   -0.6349833    5.8697035  
H   -3.4728268   -2.9124471    5.2533954  
H   -2.2742832   -1.9066565    1.1752040  
H    1.6189533    1.3585343    2.0405121  
