62

C    5.0313853    0.0012890   -7.2275447  
C    3.7959363    0.0027787   -7.8326327  
C    4.0220930    0.0035548   -9.2409837  
C    5.4269154    0.0021841   -9.4369350  
N    6.0097983    0.0027785   -8.1940096  
C    6.0134883    0.0021676  -10.7060770  
C    5.1664693    0.0032530  -11.7972864  
O    5.6861637    0.0029376  -13.0594003  
C    3.7621358    0.0050035  -11.6221817  
O    3.0543322    0.0063423  -12.8063932  
C    3.1827735    0.0052941  -10.3704369  
H    2.8482925    0.0043532   -7.3217886  
H    6.9978773   -0.0084728   -8.0163745  
H    7.0834610    0.0012709  -10.8621488  
H    4.9332559    0.0041349  -13.6647051  
H    2.1148287    0.0074539  -12.5991847  
H    2.1039313    0.0068323  -10.2676011  
C    2.5562217   -0.0001551   -3.6003001  
C    3.5357958   -0.0006719   -2.6598164  
C    4.7960229   -0.0006608   -3.3645605  
C    4.4679969   -0.0000618   -4.8030283  
N    3.0942340   -0.0001763   -4.8782995  
C    5.3873315    0.0005225   -5.8012902  
C    6.7937409    0.0003380   -5.4344817  
O    7.6974453    0.0007626   -6.2600838  
C    7.1641096   -0.0005465   -3.9170389  
O    8.3448915   -0.0010156   -3.5960816  
C    6.0844249   -0.0008435   -2.9331013  
H    3.3919675   -0.0012035   -1.5940179  
H    6.3492934   -0.0012511   -1.8844982  
H    2.5641257    0.0016992   -5.7303728  
C    0.0000000    0.0000000    0.0000000  
C    1.0541688   -0.0001722   -0.8560390  
C    0.5103141   -0.0000453   -2.1935955  
C   -0.9576367    0.0002460   -2.0455731  
N   -1.2018459   -0.0001392   -0.6915969  
C   -1.8348307    0.0008318   -3.0810611  
C   -1.2972843    0.0009738   -4.4314606  
O   -2.0050665    0.0014267   -5.4301321  
C    0.2542628    0.0004186   -4.6117570  
O    0.7184676    0.0002258   -5.7439117  
C    1.0974555    0.0000874   -3.4189127  
H    2.0940752   -0.0005483   -0.5817978  
H   -2.9081051    0.0011670   -2.9507061  
H   -2.1128194    0.0014912   -0.2706792  
C    1.1188642   -0.0008217    2.2703808  
C    0.0000000    0.0000000    1.4700000  
C   -1.1323862   -0.0008904    2.3373528  
C   -0.6382662   -0.0019682    3.6669281  
N    0.7324016   -0.0038477    3.5902241  
C   -1.4770914   -0.0027325    4.7854808  
C   -2.8395474   -0.0020958    4.5576857  
O   -3.7039201   -0.0024443    5.6140350  
C   -3.3517868   -0.0013946    3.2384331  
O   -4.7300496   -0.0012389    3.1773122  
C   -2.5248543   -0.0009135    2.1344818  
H    1.3576314    0.0056174    4.3757045  
H   -1.1067570   -0.0036993    5.8013813  
H   -4.5940033   -0.0021850    5.2385129  
H   -4.9934601   -0.0007286    2.2519915  
H   -2.9462578   -0.0005617    1.1360343  
H    2.1619896   -0.0009344    2.0042067  
