60

C   -4.1054802    2.1152155    1.8335436  
C   -4.7396948    1.6153668    2.9472714  
C   -5.7677453    0.7417834    2.4840612  
C   -5.7121927    0.7483436    1.0667406  
N   -4.6931133    1.5939308    0.7046956  
C   -6.5830804   -0.0034181    0.2722612  
C   -7.5270502   -0.7761096    0.9203716  
O   -8.4020806   -1.5299248    0.1929796  
C   -7.5984689   -0.7955878    2.3336438  
O   -8.5925715   -1.6141174    2.8287313  
C   -6.7398148   -0.0539992    3.1180448  
H   -4.4925584    1.8522014    3.9679709  
H   -4.4099800    1.7912385   -0.2381119  
H   -8.9668278   -1.9847261    0.8313229  
H   -8.5725191   -1.5699292    3.7895895  
H   -6.8186525   -0.0889597    4.1983408  
H   -3.2813774    2.8034403    1.7550611  
C   -3.3460096   -0.0004265   -2.7913646  
C   -3.9807084   -0.0008719   -1.5960668  
C   -5.3980827   -0.0010995   -1.9240138  
C   -5.4386236   -0.0006186   -3.4021678  
N   -4.2387207   -0.0003035   -3.9161945  
C   -6.6781270   -0.0007177   -4.1292973  
C   -7.8249971   -0.0016611   -3.4123433  
O   -9.0523473   -0.0018575   -3.9597482  
C   -7.8170030   -0.0025372   -1.9196622  
O   -8.8987492   -0.0032501   -1.3322566  
C   -6.5326742   -0.0023725   -1.1968739  
H   -3.5413277   -0.0011173   -0.6132035  
H   -6.6781274   -0.0001516   -5.2095336  
H   -9.6625614   -0.0026186   -3.2002807  
C    0.0000000    0.0000000    0.0000000  
C    1.0662919   -0.0000103   -0.8334269  
C    0.4961869    0.0000064   -2.1718889  
C   -0.9663859   -0.0000850   -1.9540246  
N   -1.2632774   -0.0000084   -0.6828657  
C   -1.8985363   -0.0000518   -3.0477257  
C   -1.3925778    0.0004564   -4.3020545  
O   -2.1456384    0.0005409   -5.4151311  
C    0.0786230    0.0009323   -4.5544998  
O    0.4683758    0.0012588   -5.7221098  
C    1.0143164    0.0008442   -3.4159030  
H    2.1107195    0.0000633   -0.5721867  
H   -1.5042275    0.0009691   -6.1484418  
H    2.0724152    0.0013148   -3.6409744  
C    1.0672568    0.0000697    2.3021913  
C    0.0000000    0.0000000    1.4700000  
C   -1.1601224    0.0000736    2.3478473  
C   -0.5938729    0.0000769    3.7138435  
N    0.7113367    0.0001554    3.6934124  
C   -1.4286986    0.0001879    4.8835240  
C   -2.7683114    0.0006799    4.6970523  
O   -3.6653903    0.0008304    5.6976972  
C   -3.3702025    0.0010610    3.3310774  
O   -4.5974910    0.0013779    3.2362962  
C   -2.4926826    0.0008943    2.1470656  
H   -0.9878360   -0.0000190    5.8697035  
H   -4.5324246    0.0012261    5.2533954  
H   -2.9677772    0.0012974    1.1752040  
H    2.1134392    0.0000545    2.0405121  
