60

C   -3.9737217    0.7080826   -1.7936959  
C   -5.3255069    0.4571937   -1.8405992  
C   -5.5431726   -0.4515257   -2.9183055  
C   -4.2766877   -0.7219841   -3.4969203  
N   -3.3460098   -0.0004261   -2.7913644  
C   -4.1113768   -1.5812561   -4.5873846  
C   -5.2451926   -2.1786161   -5.1029440  
O   -5.1408326   -3.0267399   -6.1672790  
C   -6.5176428   -1.9210278   -4.5396184  
O   -7.5485243   -2.5911712   -5.1653480  
C   -6.6815055   -1.0732370   -3.4640140  
H   -6.0640067    0.8782974   -1.1800818  
H   -3.1488754   -1.7914285   -5.0330533  
H   -6.0370800   -3.3281937   -6.3650960  
H   -8.3722217   -2.3622433   -4.7240796  
H   -7.6687539   -0.8951300   -3.0540169  
H   -3.4078307    1.3374795   -1.1284252  
C    0.0000000    0.0000000    0.0000000  
C    1.0662918   -0.0000103   -0.8334272  
C    0.4961866    0.0000066   -2.1718888  
C   -0.9663862   -0.0000848   -1.9540246  
N   -1.2632777   -0.0000084   -0.6828658  
C   -1.8985367   -0.0000514   -3.0477256  
C   -1.3925783    0.0004569   -4.3020543  
O   -2.1456389    0.0005417   -5.4151310  
C    0.0786225    0.0009329   -4.5544999  
O    0.4683752    0.0012595   -5.7221105  
C    1.0143159    0.0008446   -3.4159033  
H    2.1107193    0.0000632   -0.5721869  
H   -1.5042282    0.0009699   -6.1484418  
C    4.3939396   -2.1065674   -1.5664987  
C    5.4031200   -1.6413500   -2.3470130  
C    4.8103411   -0.7457939   -3.3121184  
C    3.3627131   -0.7272474   -3.0278289  
N    3.1757271   -1.5729267   -1.9588331  
C    2.4521470    0.0014842   -3.7217487  
C    2.9297292    0.8221550   -4.8221804  
O    2.1884013    1.5142701   -5.5075349  
C    4.4587960    0.8175813   -5.1411459  
O    4.8725544    1.5043408   -6.0654977  
C    5.3421059   -0.0087724   -4.3221493  
H    6.4439778   -1.8965724   -2.2570680  
H    6.3995012   -0.0062037   -4.5493776  
H    4.4376443   -2.7945227   -0.7378267  
H    2.2909007   -1.7703223   -1.5285262  
C    3.3321173   -0.0004715    2.8079335  
C    2.6974184   -0.0000116    4.0032312  
C    1.2800439    0.0002118    3.6752840  
C    1.2395035   -0.0000644    2.1971295  
N    2.4394063   -0.0005460    1.6831036  
C    0.0000000    0.0000000    1.4700000  
C   -1.1468701   -0.0000635    2.1869543  
O   -2.3742202   -0.0000073    1.6395491  
C   -1.1388768   -0.0001607    3.6796354  
O   -2.2206231   -0.0000905    4.2670412  
C    0.1454524   -0.0001816    4.4024240  
H    3.1367986    0.0000651    4.9860947  
H   -2.9844344   -0.0001026    2.3990168  
H    0.1083576   -0.0003682    5.4835595  
H    4.3940039   -0.0007619    2.6198634  
