62

C   -1.3766487    0.8357128   -8.9434935  
C   -0.4350687    0.0337799   -9.5458213  
C   -0.6172556    0.1637166  -10.9545526  
C   -1.6934546    1.0659983  -11.1535738  
N   -2.1327570    1.4534767   -9.9120058  
C   -2.1503220    1.4297617  -12.4239032  
C   -1.5088944    0.8727610  -13.5131684  
O   -1.9143082    1.1938250  -14.7763273  
C   -0.4334398   -0.0297174  -13.3349898  
O    0.1006453   -0.4983798  -14.5175505  
C    0.0176247   -0.3892385  -12.0820677  
H    0.2927602   -0.5713625   -9.0329263  
H   -2.8811844    2.0993073   -9.7366771  
H   -2.9701373    2.1167934  -12.5823110  
H   -1.3421012    0.7023885  -15.3799292  
H    0.8207085   -1.1011433  -14.3082925  
H    0.8434989   -1.0830267  -11.9768648  
C    0.5435723   -0.7159130   -5.2159117  
C    0.2183306   -0.4634730   -6.5285268  
C   -0.8742406    0.4534643   -6.5178246  
C   -1.1746526    0.7271048   -5.1588542  
N   -0.2963293   -0.0005341   -4.3948471  
C   -2.2003923    1.5943490   -4.7708671  
C   -2.9360759    2.1965558   -5.7730121  
O   -3.9490238    3.0525116   -5.4500719  
C   -2.6517631    1.9359048   -7.1346452  
O   -3.4732418    2.6116240   -8.0132358  
C   -1.6401702    1.0802511   -7.5181315  
H    0.7075715   -0.8888379   -7.3880041  
H   -2.4344675    1.8069839   -3.7368473  
H   -4.3267165    3.3562352   -6.2857535  
H   -3.2147321    2.3801431   -8.9105611  
H    1.3072877   -1.3507668   -4.8003898  
C    3.1301146   -0.0010313   -1.7028256  
C    2.5367765   -0.0002766   -0.4864669  
C    1.1089901    0.0001027   -0.7656184  
C    1.0177865   -0.0004150   -2.2415133  
N    2.1993571   -0.0011612   -2.7963824  
C   -0.2459219   -0.0002879   -2.9257116  
C   -1.3675326   -0.0000606   -2.1698520  
O   -2.6129318    0.0000865   -2.6748483  
C   -1.3083588    0.0000910   -0.6783229  
O   -2.3693264    0.0004206   -0.0541685  
C    0.0000000    0.0000000    0.0000000  
H    3.0096016   -0.0001007    0.4807518  
H   -3.1967444    0.0002093   -1.8949026  
H    4.1849275   -0.0015114   -1.9271979  
C    0.8400945    0.7047457    2.2710304  
C    0.0000000    0.0000000    1.4700000  
C   -0.8844236   -0.7423113    2.3369512  
C   -0.4878984   -0.4098547    3.7186280  
N    0.5629682    0.4714286    3.6095011  
C   -1.0836927   -0.9095027    4.8308716  
C   -2.1891196   -1.8367527    4.6554461  
O   -2.7906899   -2.3413415    5.5944904  
C   -2.6257283   -2.2031529    3.2011665  
O   -3.5549479   -2.9829990    3.0410059  
C   -1.9068976   -1.5999348    2.0816745  
H   -0.7774656   -0.6525820    5.8354244  
H   -2.2155208   -1.8586617    1.0779135  
H    1.6384792    1.3747609    1.9961646  
H    1.0518368    0.8833920    4.3830260  
