60

C   -1.3336225    2.1206999   -5.3952874  
C   -0.0981803    1.6577903   -5.7849859  
C   -0.3129354    0.7688027   -6.8796008  
C   -1.7110922    0.7287704   -7.1151426  
N   -2.3013223    1.5593769   -6.1951757  
C   -2.2859498   -0.0487957   -8.1249544  
C   -1.4338257   -0.7993924   -8.9115081  
O   -1.9420736   -1.5762474   -9.9121050  
C   -0.0360302   -0.7729738   -8.6917636  
O    0.6780622   -1.5749627   -9.5579210  
C    0.5317504   -0.0063260   -7.6955698  
H    0.8420490    1.9268120   -5.3348861  
H   -3.2862295    1.7411323   -6.1251450  
H   -3.3508064   -0.0837705   -8.3095012  
H   -1.1874056   -2.0100759  -10.3310731  
H    1.6125155   -1.4995609   -9.3417835  
H   -1.6012097    2.8057553   -4.6091229  
C    2.8699641   -0.0020527   -4.0185824  
C    4.1392623   -0.0034667   -4.4881134  
C    4.0033706   -0.0054222   -5.9365711  
C    2.5438435   -0.0050006   -6.1739829  
N    1.8743088   -0.0029474   -5.0533992  
C    1.9886056   -0.0065213   -7.4994246  
C    2.8521782   -0.0079900   -8.5403738  
O    2.4734359   -0.0095113   -9.8297896  
C    4.3304449   -0.0080811   -8.3332797  
O    5.0569376   -0.0095844   -9.3269732  
C    4.8753997   -0.0065471   -6.9639930  
H    5.0547093   -0.0031236   -3.9215169  
H    3.3075342   -0.0102817  -10.3332085  
H    5.9518173   -0.0065505   -6.8564976  
C    3.2573673   -0.0002921   -1.5109381  
C    2.5379469   -0.0001710   -0.3591962  
C    1.1435042    0.0000332   -0.7338498  
C    1.1092607   -0.0000083   -2.2088474  
N    2.4227562    0.0001908   -2.6182610  
C   -0.0265532   -0.0002523   -2.9515663  
C   -1.3003033   -0.0002639   -2.2514979  
O   -2.3786784   -0.0004132   -2.8306425  
C   -1.2877726    0.0000312   -0.6895609  
O   -2.3539956    0.0003308   -0.0892035  
C    0.0000000    0.0000000    0.0000000  
H    2.9384091   -0.0000368    0.6389240  
H   -0.0296292   -0.0004086   -4.0327231  
H    4.3270395   -0.0004765   -1.6439444  
C    2.3971438    2.0127888    3.1728260  
C    1.9431056    1.6308205    1.9564670  
C    0.8496017    0.7127664    2.2356185  
C    0.7794028    0.6545384    3.7115134  
N    1.6840587    1.4146091    4.2663826  
C   -0.1885723   -0.1578550    4.3957118  
C   -1.0476298   -0.8789867    3.6398520  
O   -2.0015663   -1.6796266    4.1448486  
C   -1.0022026   -0.8410666    2.1483229  
O   -1.8147390   -1.5232959    1.5241687  
C    0.0000000    0.0000000    1.4700000  
H    2.3054237    1.9346118    0.9892483  
H   -0.2170646   -0.1815267    5.4753125  
H   -2.4487139   -2.0549881    3.3649027  
H    3.2048689    2.6911772    3.3971983  
