60

C   -4.3028509    2.1175118    1.6729156  
C   -4.9969992    1.6180599    2.7504930  
C   -5.9988244    0.7450452    2.2320430  
C   -5.8662467    0.7515275    0.8198434  
N   -4.8284993    1.5965239    0.5137723  
C   -6.6930515    0.0002344   -0.0208356  
C   -7.6713208   -0.7718996    0.5749632  
O   -8.5059125   -1.5252416   -0.1989531  
C   -7.8195282   -0.7912910    1.9822574  
O   -8.8395576   -1.6092396    2.4225326  
C   -7.0043964   -0.0501644    2.8122074  
H   -4.8056210    1.8547875    3.7831251  
H   -4.4943836    1.7936400   -0.4122366  
H   -9.1048088   -1.9797011    0.4077228  
H   -8.8717818   -1.5650314    3.3830588  
H   -7.1419072   -0.0850448    3.8866148  
H   -3.4753075    2.8052659    1.6393804  
C   -3.2941076    0.0012874   -2.9038237  
C   -3.9928925    0.0012416   -1.7448244  
C   -5.3903267    0.0018082   -2.1493928  
C   -5.3503938    0.0022637   -3.6275636  
N   -4.1243045    0.0018805   -4.0755523  
C   -6.5485052    0.0028447   -4.4210470  
C   -7.7326800    0.0025760   -3.7675455  
O   -8.9284331    0.0030587   -4.3809097  
C   -7.8059026    0.0017443   -2.2766401  
O   -8.9180023    0.0016649   -1.7489529  
C   -6.5627960    0.0012033   -1.4850530  
H   -3.6076317    0.0007788   -0.7395137  
H   -6.4897389    0.0033754   -5.4996831  
H   -9.5790599    0.0026690   -3.6557628  
C    0.0000000    0.0000000    0.0000000  
C    1.0541688   -0.0001722   -0.8560393  
C    0.5103135   -0.0000454   -2.1935957  
C   -0.9576374    0.0002459   -2.0455730  
N   -1.2018460   -0.0001391   -0.6915968  
C   -1.8348314    0.0008317   -3.0810607  
C   -1.2972851    0.0009737   -4.4314604  
O   -2.0050676    0.0014265   -5.4301315  
C    0.2542619    0.0004184   -4.6117571  
O    0.7184666    0.0002257   -5.7439121  
C    1.0974550    0.0000874   -3.4189130  
H    2.0940752   -0.0005483   -0.5817984  
H    2.1707276   -0.0000911   -3.5523671  
H   -2.1128194    0.0014912   -0.2706789  
C    1.1319247   -0.0015655    2.2709268  
C    0.7969915   -0.0034943    3.5869401  
C   -0.6453339   -0.0035710    3.6542670  
C   -1.1266833   -0.0015433    2.2596025  
N    0.0000000    0.0000000    1.4700000  
C   -2.4346130   -0.0013964    1.8976294  
C   -3.4350110   -0.0031408    2.9520183  
O   -4.6384611   -0.0030974    2.7283916  
C   -2.9478959   -0.0050506    4.4361073  
O   -3.7809380   -0.0062218    5.3323774  
C   -1.5113823   -0.0053090    4.7012123  
H    1.4821238   -0.0045407    4.4159191  
H   -2.7664565   -0.0000232    0.8686553  
H   -1.1823530   -0.0068408    5.7314848  
H    2.1104316   -0.0009391    1.8188057  
