62

C    8.3707508    0.7060382   -3.7639049  
C    9.6366068    0.4546469   -4.2402224  
C   10.2513809   -0.4544723   -3.3290943  
C    9.3044680   -0.7246458   -2.3081685  
N    8.1744148   -0.0025411   -2.6017016  
C    9.5706117   -1.5841833   -1.2380507  
C   10.8152234   -2.1821065   -1.1979814  
O   11.1275965   -3.0305095   -0.1754124  
C   11.7735147   -1.9248102   -2.2070868  
O   12.9654132   -2.5955123   -2.0257555  
C   11.5117407   -1.0767577   -3.2629309  
H   10.0646822    0.8756807   -5.1337977  
H    8.8532561   -1.7941408   -0.4566922  
H   12.0308941   -3.3323461   -0.3373223  
H   13.5563276   -2.3667505   -2.7496976  
H   12.2656381   -0.8988851   -4.0208745  
H    7.5929049    1.3358380   -4.1604727  
C    5.6706436   -0.0000133   -2.2998306  
C    6.9366746   -0.0017199   -1.8086710  
C    6.8296106   -0.0022716   -0.3687500  
C    5.3870837   -0.0007647   -0.0590647  
N    4.7390840    0.0009613   -1.2727298  
C    4.8700559   -0.0011563    1.1956809  
C    5.7961363   -0.0029726    2.3159070  
O    5.4290426   -0.0033969    3.4836151  
C    7.3281306   -0.0043366    2.0112798  
O    8.1174235   -0.0055632    2.9463069  
C    7.7645002   -0.0040372    0.6172090  
H    3.8085777   -0.0001594    1.4010418  
H    8.8269284   -0.0051935    0.4147985  
H    5.3397978    0.0008313   -3.3257105  
C    3.2798077    0.0005856   -1.4499661  
C    2.5571132    0.0005565   -2.5996564  
C    1.1637425    0.0001547   -2.2210366  
C    1.1336959   -0.0000200   -0.7459475  
N    2.4483509   -0.0001429   -0.3402730  
C    0.0000000    0.0000000    0.0000000  
C   -1.2757370   -0.0000187   -0.6964411  
O   -2.3524597   -0.0000640   -0.1142306  
C   -1.2676502   -0.0000874   -2.2584078  
O   -2.3355774   -0.0004102   -2.8557287  
C    0.0181551    0.0001758   -2.9516297  
H    2.9547342    0.0006074   -3.5989118  
H    0.0150776    0.0003317   -4.0331632  
H    2.7563626    0.0012823    0.6148051  
C    2.5311839    2.1237619    3.0120429  
C    1.9795631    1.6616747    1.8395852  
C    0.9223175    0.7739173    2.1983588  
C    0.8753926    0.7337535    3.6154372  
N    1.8668922    1.5631002    4.0777464  
C   -0.0496243   -0.0427881    4.3197917  
C   -0.9437528   -0.7922060    3.5801400  
O   -1.8685244   -1.5680278    4.2172520  
C   -0.9124520   -0.7656372    2.1655264  
O   -1.8671164   -1.5663939    1.5732860  
C    0.0000000    0.0000000    1.4700000  
H    2.3005065    1.9304404    0.8477417  
H    2.0679347    1.7444845    5.0445261  
H   -0.0904770   -0.0778569    5.3997470  
H   -2.3849669   -2.0011402    3.5251786  
H   -1.7775064   -1.4909735    0.6183591  
H    3.3468514    2.8078103    3.1724291  
