64

C   -7.0902390    4.2907909    2.5279955  
C   -6.6162461    3.4863358    1.5177234  
C   -5.1950162    3.6075536    1.5210544  
C   -4.8564486    4.5069217    2.5643357  
N   -6.0306397    4.9043749    3.1541860  
C   -3.5364316    4.8618887    2.8581775  
C   -2.5400266    4.2984544    2.0849405  
O   -1.2338211    4.6102871    2.3290755  
C   -2.8578718    3.3993236    1.0393041  
O   -1.7548914    2.9240122    0.3604403  
C   -4.1598964    3.0488978    0.7486842  
H   -7.2205796    2.8868431    0.8586469  
H   -6.1050208    5.5346446    3.9321367  
H   -3.2717971    5.5468776    3.6518777  
H   -0.7101479    4.1160769    1.6850350  
H   -2.0569361    2.3240370   -0.3283286  
H   -8.1004046    4.4765421    2.8505188  
C   -4.4484567    2.1114131   -0.3461923  
C   -5.6479922    1.6480079   -0.7825926  
C   -5.3783937    0.7523815   -1.8825947  
C   -3.9129556    0.7318184   -2.0524737  
N   -3.4082415    1.5765166   -1.0908924  
C   -3.2578655    0.0024282   -2.9908505  
C   -4.0489184   -0.8168745   -3.8939085  
O   -3.5523761   -1.5094417   -4.7725988  
C   -5.6025059   -0.8101577   -3.7322736  
O   -6.2789748   -1.4957522   -4.4869994  
C   -6.1934213    0.0167333   -2.6830252  
H   -6.6117118    1.9044748   -0.3799978  
H   -7.2698070    0.0156510   -2.5775898  
H   -2.4341412    1.7725007   -0.9503006  
C    0.0000000    0.0000000    0.0000000  
C    1.0521666   -0.0011982   -0.8862343  
C    0.4917215   -0.0011996   -2.1979132  
C   -0.9187429    0.0003215   -2.0478682  
N   -1.1833171   -0.0009323   -0.7007913  
C   -1.7951703    0.0010483   -3.1372089  
C   -1.2375841    0.0005313   -4.4010422  
O   -2.0474218    0.0015510   -5.4997578  
C    0.1673576   -0.0013585   -4.5711963  
O    0.5673520   -0.0020735   -5.8915554  
C    1.0325768   -0.0023493   -3.4969892  
H    2.0953056   -0.0030808   -0.6200564  
H   -2.0989778    0.0102529   -0.2891822  
H   -1.4634888    0.0006601   -6.2693595  
H    1.5290707   -0.0033271   -5.9180047  
H    2.1042146   -0.0039770   -3.6584456  
C    1.1243417   -0.0099156    2.2619005  
C    0.7474090   -0.0234034    3.5848544  
C   -0.6787367   -0.0234952    3.6114698  
C   -1.1201739   -0.0099357    2.2635546  
N    0.0000000    0.0000000    1.4700000  
C   -2.4730812   -0.0065396    1.9108239  
C   -3.3971947   -0.0173298    2.9375057  
O   -4.7313508   -0.0149487    2.6493466  
C   -2.9763630   -0.0305536    4.2886322  
O   -4.0166453   -0.0397858    5.1947621  
C   -1.6418541   -0.0336380    4.6373480  
H    1.4178735   -0.0310004    4.4271209  
H   -2.8160170    0.0039190    0.8854031  
H   -5.1938803   -0.0234410    3.4974381  
H   -3.6464643   -0.0484781    6.0827341  
H   -1.3497443   -0.0436789    5.6809233  
H    2.1062470   -0.0051382    1.8205408  
