60

C    1.8585670   -4.5813571   -6.6200489  
C    2.7391266   -4.3661546   -7.6548289  
C    2.5907370   -3.0040414   -8.0513474  
C    1.5971088   -2.4331135   -7.2154832  
N    1.1722127   -3.4184911   -6.3592634  
C    1.1924191   -1.0992537   -7.3242661  
C    1.8021111   -0.3276050   -8.2943236  
O    1.4450012    0.9812950   -8.4435456  
C    2.7953108   -0.8792615   -9.1381529  
O    3.3069177    0.0167620  -10.0539823  
C    3.1948482   -2.1951403   -9.0315788  
H    3.4055599   -5.1008732   -8.0732177  
H    0.4777862   -3.3052721   -5.6430692  
H    1.9835373    1.3306478   -9.1654863  
H    3.9706103   -0.4353902  -10.5837691  
H    3.9579938   -2.5897514   -9.6921619  
H    1.6647729   -5.4727267   -6.0483306  
C    0.0063634   -0.7183644   -5.1315053  
C    0.1635204   -0.4995840   -6.4624868  
C   -0.8683539    0.4283171   -6.8613241  
C   -1.6451053    0.7344066   -5.6448724  
N   -1.0641734    0.0073898   -4.6315339  
C   -2.7096569    1.5750805   -5.6036140  
C   -3.1177667    2.2213961   -6.8398410  
O   -4.0639318    2.9951407   -6.9061048  
C   -2.3096748    1.9116339   -8.1401646  
O   -2.6441266    2.4496386   -9.1870431  
C   -1.1807027    0.9881992   -8.0592840  
H   -3.2656681    1.7860227   -4.7006938  
H   -0.6262528    0.7791906   -8.9640628  
H    0.5824088   -1.3488893   -4.4738586  
C    1.1319248    0.0015675   -0.8009270  
C    0.7969916    0.0034959   -2.1169404  
C   -0.6453336    0.0035703   -2.1842672  
C   -1.1266831    0.0015415   -0.7896027  
N    0.0000000    0.0000000    0.0000000  
C   -2.4346129    0.0013924   -0.4276297  
C   -3.4350110    0.0031352   -1.4820184  
O   -4.6384610    0.0030897   -1.2583919  
C   -2.9478958    0.0050460   -2.9661075  
O   -3.7809377    0.0062160   -3.8623775  
C   -1.5113821    0.0053068   -3.2312125  
H    1.4821240    0.0045436   -2.9459192  
H   -2.7664565    0.0000185    0.6013447  
H    2.1104318    0.0009428   -0.3488058  
C    0.8400945    0.7047457    2.2710304  
C    0.0000000    0.0000000    1.4700000  
C   -0.8844236   -0.7423113    2.3369512  
C   -0.4878984   -0.4098547    3.7186280  
N    0.5629682    0.4714286    3.6095011  
C   -1.0836927   -0.9095027    4.8308716  
C   -2.1891196   -1.8367527    4.6554461  
O   -2.7906899   -2.3413415    5.5944904  
C   -2.6257283   -2.2031529    3.2011665  
O   -3.5549479   -2.9829990    3.0410059  
C   -1.9068976   -1.5999348    2.0816745  
H   -0.7774656   -0.6525820    5.8354244  
H   -2.2155208   -1.8586617    1.0779135  
H    1.6384792    1.3747609    1.9961646  
H    1.0518368    0.8833920    4.3830260  
