62

C   -3.3003545   -0.0022218   -1.4738975  
C   -2.5232822   -0.0016451   -2.6090738  
C   -1.1623209   -0.0004649   -2.1820094  
C   -1.1711889   -0.0006596   -0.7636136  
N   -2.4852309    0.0002161   -0.3662348  
C    0.0000000    0.0000000    0.0000000  
C    1.2020379    0.0005650   -0.6806484  
O    2.3759245    0.0008701    0.0157740  
C    1.2314642    0.0011432   -2.0955513  
O    2.5054365    0.0020896   -2.6250185  
C    0.0764499    0.0007662   -2.8495195  
H   -2.8919966   -0.0009228   -3.6205290  
H   -2.8036219   -0.0102573    0.5858672  
H    3.0835634    0.0015480   -0.6418824  
H    2.4360022    0.0024030   -3.5845926  
H    0.1304074    0.0014088   -3.9319083  
C   -5.6692774   -0.0032614   -2.3388877  
C   -4.7630502   -0.0029207   -1.3275386  
C   -5.5107315   -0.0030851   -0.0923023  
C   -6.9370629   -0.0035821   -0.4696211  
N   -6.9650290   -0.0032680   -1.8451599  
C   -7.9663613   -0.0042596    0.4148273  
C   -7.6481534   -0.0042905    1.8330231  
O   -8.5043571   -0.0048129    2.7077896  
C   -6.1443507   -0.0035172    2.2553760  
O   -5.8642052   -0.0032294    3.4465016  
C   -5.1238522   -0.0031034    1.2101804  
H   -9.0057214   -0.0047458    0.1171013  
H   -4.0849818   -0.0027739    1.5109665  
H   -5.4995502   -0.0032910   -3.4033509  
C   -8.1857334   -0.0058565   -2.6641684  
C   -8.2837362   -0.0071817   -4.0139728  
C   -9.7128433   -0.0096034   -4.2862726  
C  -10.3467976   -0.0095204   -2.9503512  
N   -9.4566268   -0.0072479   -1.9955850  
C  -11.7743652   -0.0115462   -2.7856358  
C  -12.5340808   -0.0131744   -3.9046384  
O  -13.8779596   -0.0151575   -3.8994367  
C  -11.9240365   -0.0129326   -5.2669916  
O  -12.6764830   -0.0146064   -6.2411796  
C  -10.4572126   -0.0108821   -5.4096355  
H   -7.4848976   -0.0064989   -4.7357293  
H  -12.2105561   -0.0116419   -1.7973809  
H  -14.1295481   -0.0159288   -4.8406356  
H  -10.0545960   -0.0106565   -6.4136920  
C    2.5285572    2.1210227    2.9438989  
C    1.9331703    1.6216660    4.0790748  
C    0.8903039    0.7472258    3.6520102  
C    0.8972198    0.7527806    2.2336141  
N    1.9028376    1.5986179    1.8362361  
C    0.0000000    0.0000000    1.4700000  
C   -0.9207814   -0.7726952    2.1506477  
O   -1.8198395   -1.5274828    1.4542253  
C   -0.9436862   -0.7911793    3.5655508  
O   -1.9197945   -1.6098497    4.0950179  
C   -0.0590329   -0.0485852    4.3195194  
H    2.2150357    1.8593692    5.0905303  
H    2.1533708    1.7953814    0.8841339  
H   -2.3621246   -1.9821033    2.1118817  
H   -1.8668290   -1.5649508    5.0545920  
H   -0.1007624   -0.0827977    5.4019087  
H    3.3491200    2.8096064    2.8367138  
