64

C   -1.6468423   -0.0583285   -3.2702994  
C   -3.0209049   -0.1127730   -3.3084438  
C   -3.3995903   -0.1123941   -4.6836518  
C   -2.2038695   -0.0563515   -5.4445968  
N   -1.1584664   -0.0226655   -4.5554324  
C   -2.1971654   -0.0407088   -6.8426310  
C   -3.4197939   -0.0827069   -7.4841852  
O   -3.4709520   -0.0701118   -8.8480914  
C   -4.6237335   -0.1384955   -6.7424081  
O   -5.7584093   -0.1750662   -7.5263183  
C   -4.6311123   -0.1536845   -5.3631905  
H   -3.6704427   -0.1472769   -2.4505956  
H   -0.1861764    0.0086824   -4.8037279  
H   -1.2892904    0.0020751   -7.4284087  
H   -4.4064739   -0.1046583   -9.0865659  
H   -6.5264854   -0.2118177   -6.9481212  
C   -1.1178682   -0.0472166   -0.8003807  
C    0.0000000    0.0000000    0.0000000  
C    1.1314485    0.0460667   -0.8673533  
C    0.6377984    0.0245002   -2.1969280  
N   -0.7316129   -0.0342147   -2.1202242  
C    1.4759332    0.0585200   -3.3154813  
C    2.8371910    0.1156527   -3.0876862  
O    3.7008345    0.1511471   -4.1440363  
C    3.3489616    0.1375943   -1.7684339  
O    4.7260325    0.1949019   -1.7073137  
C    2.5227205    0.1037846   -0.6644823  
H    1.1059572    0.0421974   -4.3313823  
H    4.5901415    0.1883151   -3.7685147  
H    4.9891949    0.2063344   -0.7819932  
H    2.9437469    0.1216105    0.3339646  
H   -2.1600915   -0.0905842   -0.5342062  
C   -6.1964784    0.4833116   -3.4789529  
C   -5.9034985   -0.2118570   -4.6293313  
C   -7.0582839   -0.9831137   -4.9552663  
C   -8.0323078   -0.7152790   -3.9595411  
N   -7.4758268    0.1775142   -3.0775739  
C   -9.2997459   -1.3055126   -3.9632661  
C   -9.5892934   -2.1818595   -4.9910579  
O  -10.8121580   -2.7859267   -5.0431969  
C   -8.6305418   -2.4621697   -5.9935742  
O   -9.0698327   -3.3557546   -6.9484953  
C   -7.3798898   -1.8804611   -5.9903805  
H   -7.9357846    0.5601252   -2.2713304  
H  -10.0465012   -1.1056637   -3.2072114  
H  -10.8050333   -3.3495857   -5.8277366  
H   -8.3631402   -3.4900143   -7.5873718  
H   -6.6662600   -2.1146714   -6.7716338  
H   -5.5935749    1.1719811   -2.9122068  
C    0.0000000    0.0000000    1.4700000  
C    1.0541688    0.0001722    2.3260392  
C    0.5103138    0.0000454    3.6635956  
C   -0.9576371   -0.0002459    3.5155732  
N   -1.2018458    0.0001392    2.1615969  
C   -1.8348311   -0.0008317    4.5510609  
C   -1.2972847   -0.0009736    5.9014604  
O   -2.0050672   -0.0014265    6.9001319  
C    0.2542623   -0.0004184    6.0817573  
O    0.7184670   -0.0002256    7.2139121  
C    1.0974552   -0.0000873    4.8889129  
H    2.0940752    0.0005483    2.0517982  
H   -2.9081052   -0.0011668    4.4207061  
H    2.1707277    0.0000911    5.0223670  
H   -2.1128194   -0.0014912    1.7406791  
