62

C   -3.9501674    0.7123049   -6.4538717  
C   -5.2952394    0.4628304   -6.5988262  
C   -5.4350014   -0.4459007   -7.6893643  
C   -4.1301146   -0.7178234   -8.1743962  
N   -3.2523869    0.0029117   -7.4031933  
C   -3.8869307   -1.5775135   -9.2498414  
C   -4.9809298   -2.1737941   -9.8463267  
O   -4.8004233   -3.0222657  -10.9001418  
C   -6.2906693   -1.9147386   -9.3769756  
O   -7.2740784   -2.5839355  -10.0758506  
C   -6.5313408   -1.0665345   -8.3162440  
H   -6.0793266    0.8848602   -5.9937710  
H   -2.8948183   -1.7888003   -9.6243723  
H   -5.6802512   -3.3228191  -11.1625071  
H   -8.1274149   -2.3540408   -9.6956273  
H   -7.5455767   -0.8872953   -7.9790838  
H   -3.4334348    1.3412545   -5.7493371  
C    0.0139742    0.0003878   -4.4216236  
C    1.0636154   -0.0005742   -5.3108478  
C    0.4994410   -0.0004442   -6.6209270  
C   -0.9105910    0.0009100   -6.4668698  
N   -1.1713317   -0.0005653   -5.1190459  
C   -1.7901140    0.0017035   -7.5537126  
C   -1.2361256    0.0014262   -8.8191269  
O   -2.0490856    0.0025209   -9.9155342  
C    0.1683266   -0.0002943   -8.9932770  
O    0.5645631   -0.0007778  -10.3147699  
C    1.0365984   -0.0013509   -7.9215366  
H    2.1075078   -0.0023877   -5.0476387  
H   -2.0858187    0.0104662   -4.7048318  
H   -1.4673446    0.0018011  -10.6867942  
H    1.5262028   -0.0019285  -10.3439552  
H    2.1077729   -0.0028449   -8.0860410  
C    3.2798085    0.0005856   -1.4499646  
C    2.5571146    0.0005565   -2.5996553  
C    1.1637435    0.0001548   -2.2210360  
C    1.1336964   -0.0000200   -0.7459470  
N    2.4483515   -0.0001429   -0.3402716  
C    0.0000000    0.0000000    0.0000000  
C   -1.2757368   -0.0000187   -0.6964415  
O   -2.3524594   -0.0000640   -0.1142314  
C   -1.2676495   -0.0000873   -2.2584081  
O   -2.3355761   -0.0004101   -2.8557295  
C    0.0181563    0.0001759   -2.9516296  
H    2.9547358    0.0006075   -3.5989104  
H    4.3498547    0.0008611   -1.3200019  
H    2.7563628    0.0012823    0.6148064  
C    0.0000000    0.0000000    1.4700000  
C    1.0541688    0.0001722    2.3260392  
C    0.5103138    0.0000454    3.6635956  
C   -0.9576371   -0.0002459    3.5155732  
N   -1.2018458    0.0001392    2.1615969  
C   -1.8348311   -0.0008317    4.5510609  
C   -1.2972847   -0.0009736    5.9014604  
O   -2.0050672   -0.0014265    6.9001319  
C    0.2542623   -0.0004184    6.0817573  
O    0.7184670   -0.0002256    7.2139121  
C    1.0974552   -0.0000873    4.8889129  
H    2.0940752    0.0005483    2.0517982  
H   -2.9081052   -0.0011668    4.4207061  
H    2.1707277    0.0000911    5.0223670  
H   -2.1128194   -0.0014912    1.7406791  
