62

C    6.6614394   -0.0033639   -6.4972428  
C    7.2895386   -0.0027431   -5.2733319  
C    8.6934118   -0.0036848   -5.5257997  
C    8.8630420   -0.0045855   -6.9340429  
N    7.6094278   -0.0063148   -7.4935645  
C   10.1209868   -0.0053447   -7.5442603  
C   11.2278535   -0.0048848   -6.7178072  
O   12.4800223   -0.0052368   -7.2610269  
C   11.0790571   -0.0043617   -5.3104426  
O   12.2763059   -0.0043697   -4.6249199  
C    9.8383723   -0.0038859   -4.7077593  
H    6.7965160   -0.0028405   -4.3162935  
H    7.4133336    0.0032932   -8.4781646  
H   10.2570100   -0.0061770   -8.6169661  
H   13.0993091   -0.0051135   -6.5195757  
H   12.0867125   -0.0039734   -3.6817031  
H    9.7557410   -0.0036728   -3.6271811  
C    3.0267439   -0.0008952   -3.9901698  
C    4.3103436   -0.0014891   -4.4333925  
C    4.2574820   -0.0026514   -5.8763199  
C    2.8276152   -0.0026569   -6.2400108  
N    2.1344504   -0.0019656   -5.0515609  
C    2.3581186   -0.0032002   -7.5133045  
C    3.3256547   -0.0040472   -8.5979280  
O    3.0027148   -0.0046435   -9.7786100  
C    4.8451156   -0.0043089   -8.2359281  
O    5.6689991   -0.0053268   -9.1406253  
C    5.2287742   -0.0033873   -6.8264398  
H    5.1934322   -0.0013340   -3.8195785  
H    1.3051092   -0.0030634   -7.7584207  
H    1.1344110   -0.0002408   -4.9681020  
C    3.3003547    0.0005275   -1.4738985  
C    2.5232817    0.0003496   -2.6090745  
C    1.1623204   -0.0001319   -2.1820101  
C    1.1711885    0.0000583   -0.7636140  
N    2.4852303   -0.0014920   -0.3662357  
C    0.0000000    0.0000000    0.0000000  
C   -1.2020382    0.0000520   -0.6806479  
O   -2.3759248    0.0003494    0.0157744  
C   -1.2314653   -0.0005113   -2.0955511  
O   -2.5054389   -0.0008038   -2.6250185  
C   -0.0764511   -0.0007273   -2.8495194  
H    2.8036269    0.0088181    0.5858664  
H   -3.0835637    0.0000348   -0.6418823  
H   -2.4360044   -0.0011528   -3.5845926  
H   -0.1304090   -0.0013422   -3.9319089  
H    4.3715553    0.0004894   -1.3667132  
C    2.3971438    2.0127888    3.1728260  
C    1.9431056    1.6308205    1.9564670  
C    0.8496017    0.7127664    2.2356185  
C    0.7794028    0.6545384    3.7115134  
N    1.6840587    1.4146091    4.2663826  
C   -0.1885723   -0.1578550    4.3957118  
C   -1.0476298   -0.8789867    3.6398520  
O   -2.0015663   -1.6796266    4.1448486  
C   -1.0022026   -0.8410666    2.1483229  
O   -1.8147390   -1.5232959    1.5241687  
C    0.0000000    0.0000000    1.4700000  
H    2.3054237    1.9346118    0.9892483  
H   -0.2170646   -0.1815267    5.4753125  
H   -2.4487139   -2.0549881    3.3649027  
H    3.2048689    2.6911772    3.3971983  
