60

C    6.8064685    0.0000404   -4.0743115  
C    7.7887309    0.0006880   -3.1111770  
C    7.1308653    0.0013418   -1.8455495  
C    5.7357517    0.0007678   -2.1016435  
N    5.5736262    0.0019338   -3.4648498  
C    4.7795897    0.0008677   -1.0815734  
C    5.2401781    0.0012527    0.2207462  
O    4.3497074    0.0010154    1.2551913  
C    6.6282667    0.0022032    0.4964749  
O    6.9274451    0.0029070    1.8432619  
C    7.5721097    0.0023784   -0.5093511  
H    8.8489888    0.0017942   -3.2978485  
H    4.6916428   -0.0086999   -3.9444066  
H    4.8738769    0.0016566    2.0666778  
H    7.8844229    0.0034998    1.9422367  
H    8.6285026    0.0032962   -0.2674566  
H    6.8877375   -0.0001765   -5.1477887  
C    3.3321166    0.0004717   -1.3379342  
C    2.6974176    0.0000121   -2.5332317  
C    1.2800432   -0.0002115   -2.2052842  
C    1.2395033    0.0000645   -0.7271297  
N    2.4394059    0.0005461   -0.2131042  
C    0.0000000    0.0000000    0.0000000  
C   -1.1468704    0.0000636   -0.7169540  
O   -2.3742206    0.0000073   -0.1695488  
C   -1.1388774    0.0001610   -2.2096351  
O   -2.2206238    0.0000908   -2.7970408  
C    0.1454514    0.0001820   -2.9324241  
H    3.1367977   -0.0000646   -3.5160953  
H   -2.9844351    0.0001027   -0.9290163  
C    2.4320874   -2.0124020   -6.1859213  
C    2.0200827   -1.6305786   -4.9546442  
C    0.9177864   -0.7123201   -5.1959805  
C    0.7970278   -0.6538274   -6.6685905  
N    1.6820117   -1.4139316   -7.2542826  
C   -0.1937187    0.1588225   -7.3190578  
C   -1.0262447    0.8799466   -6.5340644  
O   -1.9968178    1.6808100   -7.0059183  
C   -0.9297042    0.8417626   -5.0449762  
O   -1.7202585    1.5240004   -4.3932124  
C    0.0950440    0.0004357   -4.4015596  
H    2.4153094   -1.9345886   -4.0004695  
H   -0.2592110    0.1826846   -8.3970432  
H   -2.4169017    2.0561008   -6.2110353  
H    3.2315425   -2.6908671   -6.4379729  
C    0.8400945    0.7047457    2.2710304  
C    0.0000000    0.0000000    1.4700000  
C   -0.8844236   -0.7423113    2.3369512  
C   -0.4878984   -0.4098547    3.7186280  
N    0.5629682    0.4714286    3.6095011  
C   -1.0836927   -0.9095027    4.8308716  
C   -2.1891196   -1.8367527    4.6554461  
O   -2.7906899   -2.3413415    5.5944904  
C   -2.6257283   -2.2031529    3.2011665  
O   -3.5549479   -2.9829990    3.0410059  
C   -1.9068976   -1.5999348    2.0816745  
H   -0.7774656   -0.6525820    5.8354244  
H   -2.2155208   -1.8586617    1.0779135  
H    1.6384792    1.3747609    1.9961646  
H    1.0518368    0.8833920    4.3830260  
