60

C    0.1418907   -1.0844620   -9.6377545  
C    0.0802134   -0.7092254  -10.9598222  
C   -0.1777672    0.6934551  -10.9829096  
C   -0.2640444    1.1230375   -9.6338572  
N   -0.0671591    0.0182946   -8.8430377  
C   -0.5102683    2.4524603   -9.2777698  
C   -0.6720466    3.3648980  -10.3022029  
O   -0.9142110    4.6761632  -10.0107381  
C   -0.5898426    2.9555255  -11.6544148  
O   -0.7735467    3.9817441  -12.5580015  
C   -0.3472324    1.6441353  -12.0064395  
H    0.2046362   -1.3659316  -11.8037699  
H   -0.5773307    2.7862341   -8.2514666  
H   -0.9938525    5.1339341  -10.8577128  
H   -0.7025905    3.6206385  -13.4469182  
H   -0.2898661    1.3603018  -13.0507697  
H    0.3170394   -2.0517294   -9.1988069  
C    2.4602720   -2.0944456   -5.9392888  
C    1.9124732   -1.6318086   -4.7860506  
C    0.8432456   -0.7354856   -5.1577935  
C    0.8127888   -0.7137219   -6.6327140  
N    1.8180306   -1.5578237   -7.0448669  
C   -0.0596367    0.0159819   -7.3730587  
C   -1.0334824    0.8347248   -6.6703356  
O   -1.8613770    1.5276081   -7.2472273  
C   -1.0192491    0.8271228   -5.1084314  
O   -1.8341904    1.5127102   -4.5058525  
C   -0.0307352   -0.0004646   -4.4215603  
H    2.2221961   -1.8889425   -3.7887704  
H    3.2792593   -2.7820943   -6.0745265  
H    2.0482143   -1.7553499   -8.0014469  
C    3.2573670   -0.0002920   -1.5109380  
C    2.5379468   -0.0001709   -0.3591961  
C    1.1435043    0.0000332   -0.7338500  
C    1.1092609   -0.0000082   -2.2088477  
N    2.4227562    0.0001909   -2.6182613  
C   -0.0265532   -0.0002522   -2.9515663  
C   -1.3003035   -0.0002639   -2.2514981  
O   -2.3786784   -0.0004131   -2.8306429  
C   -1.2877725    0.0000312   -0.6895608  
O   -2.3539958    0.0003307   -0.0892036  
C    0.0000000    0.0000000    0.0000000  
H    2.9384091   -0.0000369    0.6389239  
H    4.3270394   -0.0004765   -1.6439446  
H    2.7280494   -0.0013406   -3.5742113  
C    0.8175213    0.6860729    2.3021913  
C    0.0000000    0.0000000    1.4700000  
C   -0.8887526   -0.7456559    2.3478473  
C   -0.4549825   -0.3816753    3.7138435  
N    0.5448156    0.4573574    3.6934124  
C   -1.0945674   -0.9182058    4.8835240  
C   -2.1210866   -1.7789155    4.6970523  
O   -2.8083856   -2.3554314    5.6976972  
C   -2.5824069   -2.1655116    3.3310774  
O   -3.5227682   -2.9541547    3.2362962  
C   -1.9100805   -1.6015804    2.1470656  
H   -0.7567140   -0.6349833    5.8697035  
H   -3.4728268   -2.9124471    5.2533954  
H   -2.2742832   -1.9066565    1.1752040  
H    1.6189533    1.3585343    2.0405121  
