60

C    7.9677749   -0.7194204    1.3861428  
C    8.6043389   -0.0017929    0.4001080  
C    9.6583207    0.7252041    1.0287542  
C    9.6158015    0.4084660    2.4107077  
N    8.5765219   -0.4696027    2.5937713  
C   10.5130686    0.9468991    3.3379567  
C   11.4708955    1.8207645    2.8614029  
O   12.3721865    2.3752953    3.7234843  
C   11.5291841    2.1494150    1.4861179  
O   12.5392854    3.0337304    1.1682734  
C   10.6441606    1.6188250    0.5708396  
H    8.3098101   -0.8783557    3.4711349  
H   10.4858543    0.7096238    4.3925477  
H   12.9423110    2.9463903    3.1923789  
H   12.5088822    3.2027101    0.2216347  
H   10.7132448    1.8893355   -0.4763135  
H    7.1267776   -1.3885942    1.3237804  
C    4.7161325   -0.0005435   -1.6923264  
C    5.6957067   -0.0010595   -0.7518430  
C    6.9559334   -0.0010594   -1.4565867  
C    6.6279075   -0.0004678   -2.8950543  
N    5.2541447   -0.0005756   -2.9703260  
C    7.5472423    0.0001052   -3.8933165  
C    8.9536518   -0.0000843   -3.5265082  
O    9.8573560    0.0003304   -4.3521108  
C    9.3240200   -0.0009609   -2.0090658  
O   10.5048029   -0.0014343   -1.6881086  
C    8.2443356   -0.0012461   -1.0251280  
H    5.5518787   -0.0015835    0.3139556  
H    7.2854490    0.0006637   -4.9423041  
H    4.7240364    0.0012972   -3.8223992  
C    3.2573665   -0.0002920   -1.5109385  
C    2.5379463   -0.0001709   -0.3591964  
C    1.1435038    0.0000331   -0.7338500  
C    1.1092599   -0.0000083   -2.2088477  
N    2.4227553    0.0001909   -2.6182613  
C   -0.0265539   -0.0002524   -2.9515660  
C   -1.3003040   -0.0002640   -2.2514977  
O   -2.3786790   -0.0004133   -2.8306421  
C   -1.2877727    0.0000311   -0.6895603  
O   -2.3539959    0.0003306   -0.0892030  
C    0.0000000    0.0000000    0.0000000  
H    2.9384091   -0.0000367    0.6389234  
H   -0.0296303   -0.0004086   -4.0327229  
H    2.7280482   -0.0013407   -3.5742119  
C    0.0000000    0.0000000    1.4700000  
C    1.0662921    0.0000102    2.3034270  
C    0.4961870   -0.0000064    3.6418889  
C   -0.9663858    0.0000850    3.4240247  
N   -1.2632773    0.0000084    2.1528658  
C   -1.8985362    0.0000517    4.5177257  
C   -1.3925775   -0.0004564    5.7720543  
O   -2.1456383   -0.0005410    6.8851312  
C    0.0786232   -0.0009323    6.0245000  
O    0.4683759   -0.0012588    7.1921102  
C    1.0143166   -0.0008442    4.8859032  
H    2.1107198   -0.0000632    2.0421868  
H   -2.9622183    0.0003270    4.3293377  
H   -1.5042274   -0.0009692    7.6184419  
H    2.0724152   -0.0013148    5.1109744  
