62

C   -7.6060434    5.3276068    0.6805570  
C   -6.7104260    4.4051907    0.1911825  
C   -7.3849153    3.1488834    0.1543608  
C   -8.7004963    3.3684928    0.6370014  
N   -8.8006647    4.7015364    0.9493784  
C   -9.6489227    2.3463507    0.7394820  
C   -9.2623269    1.0794938    0.3473145  
O  -10.1490103    0.0448097    0.4262868  
C   -7.9540740    0.8403953   -0.1365465  
O   -7.7224741   -0.4737973   -0.4866932  
C   -7.0178254    1.8482347   -0.2376627  
H   -5.6954387    4.6121151   -0.1020330  
H   -9.6230782    5.1539017    1.3057200  
H  -10.6531766    2.5071832    1.1066466  
H   -9.6826635   -0.7392750    0.1084864  
H   -6.8169792   -0.5492616   -0.8029009  
H   -7.4867663    6.3822944    0.8604619  
C   -4.4924722    2.0950382   -0.2442176  
C   -3.4157282    1.6323169   -0.9302108  
C   -3.9167334    0.7362616   -1.9455502  
C   -5.3841441    0.7147471   -1.7937837  
N   -5.6689496    1.5587230   -0.7452227  
C   -6.2266196   -0.0146658   -2.5683136  
C   -5.6495861   -0.8333368   -3.6215682  
O   -6.3243550   -1.5259647   -4.3720698  
C   -4.0978602   -0.8259952   -3.8001701  
O   -3.6005727   -1.5115249   -4.6833547  
C   -3.2941076    0.0012878   -2.9038237  
H   -2.3878035    1.8892262   -0.7458680  
H   -7.3001860   -0.0161873   -2.4403987  
H   -4.5254896    2.7825514    0.5853157  
C    0.0000000    0.0000000    0.0000000  
C    1.0541688   -0.0001723   -0.8560392  
C    0.5103136   -0.0000455   -2.1935956  
C   -0.9576373    0.0002461   -2.0455730  
N   -1.2018460   -0.0001389   -0.6915968  
C   -1.8348314    0.0008319   -3.0810607  
C   -1.2972851    0.0009739   -4.4314603  
O   -2.0050676    0.0014268   -5.4301316  
C    0.2542619    0.0004184   -4.6117572  
O    0.7184666    0.0002257   -5.7439122  
C    1.0974551    0.0000873   -3.4189129  
H    2.0940752   -0.0005484   -0.5817983  
H    2.1707276   -0.0000912   -3.5523673  
H   -2.1128194    0.0014915   -0.2706789  
C    3.3041272   -0.0001177    3.0120429  
C    2.5845372    0.0004780    1.8395852  
C    1.2040006    0.0000008    2.1983588  
C    1.1422373   -0.0006037    3.6154372  
N    2.4348639   -0.0026109    4.0777464  
C   -0.0655181   -0.0008797    4.3197917  
C   -1.2321768   -0.0002324    3.5801400  
O   -2.4392816   -0.0001146    4.2172520  
C   -1.1911209    0.0000007    2.1655264  
O   -2.4371527    0.0002320    1.5732860  
C    0.0000000    0.0000000    1.4700000  
H    3.0031534    0.0000661    0.8477417  
H    2.7054629    0.0071099    5.0445261  
H   -0.1193549   -0.0014844    5.3997470  
H   -3.1132988    0.0000648    3.5251786  
H   -2.3200282    0.0004071    0.6183591  
H    4.3686625   -0.0004071    3.1724291  
