60

C   -0.2778911   -0.6911573   -9.5607053  
C    0.0534178   -0.6449919  -10.8950855  
C   -0.1385882    0.7013153  -11.3254230  
C   -0.5914854    1.4372343  -10.2005975  
N   -0.6668592    0.5611808   -9.1463363  
C   -0.8830067    2.8034309  -10.2581337  
C   -0.7139663    3.4383519  -11.4732383  
O   -0.9837800    4.7716435  -11.5852550  
C   -0.2633704    2.7211430  -12.6069896  
O   -0.1458945    3.4945436  -13.7433845  
C    0.0241538    1.3732841  -12.5510243  
H    0.3908065   -1.4793038  -11.4859212  
H   -1.2286777    3.3699953   -9.4044832  
H   -0.8024480    5.0107095  -12.5035315  
H    0.1633409    2.9344076  -14.4618734  
H    0.3674104    0.8505260  -13.4361102  
H   -0.2688825   -1.5186246   -8.8721019  
C    0.8518586   -0.7041560   -5.2251428  
C    0.0139741    0.0003876   -4.4216236  
C   -0.8729885    0.7427328   -5.2859483  
C   -0.4803617    0.4105162   -6.6687954  
N    0.5709015   -0.4706746   -6.5627862  
C   -1.0793692    0.9102631   -7.7792674  
C   -2.1843877    1.8373740   -7.6005638  
O   -2.7886789    2.3420360   -8.5378202  
C   -2.6168946    2.2035196   -6.1449952  
O   -3.5457350    2.9832468   -5.9820787  
C   -1.8948203    1.6002142   -5.0276394  
H   -2.2006130    1.8587647   -4.0229673  
H    1.6510908   -1.3741285   -4.9526464  
H    1.0576099   -0.8824763   -7.3377577  
C    3.2798085    0.0005853   -1.4499648  
C    2.5571144    0.0005562   -2.5996554  
C    1.1637436    0.0001546   -2.2210360  
C    1.1336965   -0.0000201   -0.7459470  
N    2.4483513   -0.0001430   -0.3402717  
C    0.0000000    0.0000000    0.0000000  
C   -1.2757367   -0.0000188   -0.6964414  
O   -2.3524597   -0.0000640   -0.1142313  
C   -1.2676494   -0.0000875   -2.2584081  
O   -2.3355762   -0.0004102   -2.8557294  
C    0.0181562    0.0001757   -2.9516296  
H    2.9547357    0.0006072   -3.5989105  
H    4.3498550    0.0008609   -1.3200021  
H    2.7563627    0.0012824    0.6148063  
C    0.8175213    0.6860729    2.3021913  
C    0.0000000    0.0000000    1.4700000  
C   -0.8887526   -0.7456559    2.3478473  
C   -0.4549825   -0.3816753    3.7138435  
N    0.5448156    0.4573574    3.6934124  
C   -1.0945674   -0.9182058    4.8835240  
C   -2.1210866   -1.7789155    4.6970523  
O   -2.8083856   -2.3554314    5.6976972  
C   -2.5824069   -2.1655116    3.3310774  
O   -3.5227682   -2.9541547    3.2362962  
C   -1.9100805   -1.6015804    2.1470656  
H   -0.7567140   -0.6349833    5.8697035  
H   -3.4728268   -2.9124471    5.2533954  
H   -2.2742832   -1.9066565    1.1752040  
H    1.6189533    1.3585343    2.0405121  
