60

C    4.5310989   -0.0678943   -6.6187593  
C    5.7206827   -0.7256169   -6.8303243  
C    6.1864750   -0.3385960   -8.1217774  
C    5.2317159    0.5646673   -8.6551410  
N    4.2386830    0.7054370   -7.7177589  
C    5.3674533    1.1504077   -9.9173909  
C    6.4875677    0.8184936  -10.6545169  
O    6.6699718    1.3619173  -11.8932383  
C    7.4511619   -0.0810887  -10.1396823  
O    8.5096045   -0.3108359  -10.9942344  
C    7.3177677   -0.6595231   -8.8946348  
H    6.1938922   -1.4020842   -6.1393410  
H    3.4301973    1.2930973   -7.8125585  
H    4.6432685    1.8394608  -10.3296588  
H    7.5013067    1.0025084  -12.2293538  
H    9.1137257   -0.9284686  -10.5709482  
H    8.0721949   -1.3451743   -8.5269391  
C    4.4889027   -2.1447426   -2.6754911  
C    4.8757513   -1.7386740   -3.9071712  
C    3.8306323   -0.8272355   -4.3470644  
C    2.8651834   -0.7989832   -3.2273798  
N    3.2457607   -1.5692932   -2.2446421  
C    1.6707636   -0.0012343   -3.2725974  
C    1.4510173    0.7351290   -4.3856182  
O    0.3782656    1.5248306   -4.5634278  
C    2.4067068    0.7280664   -5.5322517  
O    2.1427797    1.4226355   -6.5136473  
C    3.6247816   -0.0985265   -5.4618021  
H    5.7610391   -2.0225077   -4.4501081  
H    0.5021832    1.9161681   -5.4469732  
H    4.9956250   -2.8269105   -2.0115237  
C    1.0965514    0.0001358   -0.8010306  
C    0.0000000    0.0000000    0.0000000  
C   -1.1546565    0.0001470   -0.8669508  
C   -0.6372019    0.0003520   -2.2486278  
N    0.7342867    0.0007338   -2.1395012  
C   -1.4147744    0.0001354   -3.3608712  
C   -2.8576052   -0.0001047   -3.1854454  
O   -3.6427785   -0.0002490   -4.1244896  
C   -3.4275841   -0.0000727   -1.7311660  
O   -4.6406832    0.0000333   -1.5710049  
C   -2.4891868   -0.0001090   -0.6116739  
H   -1.0150456    0.0001617   -4.3654239  
H   -2.8919122   -0.0002919    0.3920871  
H    2.1388270    0.0000663   -0.5261650  
C    0.8681109    0.7263879    2.2709268  
C    0.6127770    0.5096195    3.5869401  
C   -0.4920590   -0.4175482    3.6542670  
C   -0.8620974   -0.7254003    2.2596025  
N    0.0000000    0.0000000    1.4700000  
C   -1.8641242   -1.5660088    1.8976294  
C   -2.6293522   -2.2103885    2.9520183  
O   -3.5512764   -2.9839180    2.7283916  
C   -2.2549728   -1.8987399    4.4361073  
O   -2.8923672   -2.4351063    5.3323774  
C   -1.1543735   -0.9755647    4.7012123  
H    1.1382914    0.9492124    4.4159191  
H   -2.1192137   -1.7782617    0.8686553  
H   -0.9013378   -0.7652422    5.7314848  
H    1.6172880    1.3558399    1.8188057  
