62

C    6.6503244    0.0088898    3.5931928  
C    7.4682583    0.0173530    4.6992580  
C    8.8127372    0.0075360    4.2229398  
C    8.7521692   -0.0066114    2.8058796  
N    7.4245170   -0.0073517    2.4566577  
C    9.8947354   -0.0187164    2.0001599  
C   11.1207808   -0.0161923    2.6365436  
O   12.2684939   -0.0272707    1.8978650  
C   11.2017663   -0.0025289    4.0493677  
O   12.4941855   -0.0021456    4.5320611  
C   10.0750109    0.0091446    4.8448623  
H    7.1366604    0.0280459    5.7234266  
H    9.8553171   -0.0296715    0.9196379  
H   12.9996322   -0.0235268    2.5292821  
H   12.4597774    0.0074827    5.4934811  
H   10.1683882    0.0192973    5.9245174  
H    5.5759345    0.0117080    3.5250966  
C    6.9078739   -0.0046646    1.0804408  
C    5.6166932   -0.0033645    0.6749416  
C    5.6800152   -0.0008098   -0.7784970  
C    7.1258514   -0.0007965   -1.0885645  
N    7.8505605   -0.0031316   -0.0028482  
C    7.6141447    0.0013734   -2.4401011  
C    6.6996209    0.0030472   -3.4365839  
O    7.0134393    0.0051620   -4.7433182  
C    5.2335528    0.0027107   -3.1558600  
O    4.4582992    0.0044331   -4.1119979  
C    4.7577216    0.0005129   -1.7610467  
H    4.7307110   -0.0041440    1.2865874  
H    8.6761780    0.0015371   -2.6375709  
H    6.1552205    0.0059338   -5.2044175  
C    3.3041270    0.0001177   -1.5420435  
C    2.5845370   -0.0004780   -0.3695856  
C    1.2040004   -0.0000007   -0.7283590  
C    1.1422370    0.0006038   -2.1454373  
N    2.4348634    0.0026110   -2.6077469  
C   -0.0655187    0.0008799   -2.8497918  
C   -1.2321769    0.0002326   -2.1101398  
O   -2.4392822    0.0001149   -2.7472517  
C   -1.1911211   -0.0000007   -0.6955263  
O   -2.4371526   -0.0002319   -0.1032858  
C    0.0000000    0.0000000    0.0000000  
H    3.0031534   -0.0000661    0.6222578  
H    2.7054623   -0.0071098   -3.5745266  
H   -0.1193555    0.0014846   -3.9297472  
H   -3.1132992   -0.0000646   -2.0551783  
H   -2.3200279   -0.0004070    0.8516411  
C    0.8400945    0.7047457    2.2710304  
C    0.0000000    0.0000000    1.4700000  
C   -0.8844236   -0.7423113    2.3369512  
C   -0.4878984   -0.4098547    3.7186280  
N    0.5629682    0.4714286    3.6095011  
C   -1.0836927   -0.9095027    4.8308716  
C   -2.1891196   -1.8367527    4.6554461  
O   -2.7906899   -2.3413415    5.5944904  
C   -2.6257283   -2.2031529    3.2011665  
O   -3.5549479   -2.9829990    3.0410059  
C   -1.9068976   -1.5999348    2.0816745  
H   -0.7774656   -0.6525820    5.8354244  
H   -2.2155208   -1.8586617    1.0779135  
H    1.6384792    1.3747609    1.9961646  
H    1.0518368    0.8833920    4.3830260  
