60

C   -7.1659938    3.3847837    0.5039118  
C   -6.8358060    2.1213110    0.0713837  
C   -7.9577965    1.2826559    0.3404462  
C   -8.9510878    2.0967920    0.9425093  
N   -8.4370801    3.3668276    1.0286647  
C  -10.1956218    1.6005296    1.3420703  
C  -10.4420344    0.2580088    1.1297106  
O  -11.6410263   -0.2785535    1.5005675  
C   -9.4634727   -0.5705567    0.5307849  
O   -9.8596117   -1.8842964    0.3875919  
C   -8.2353903   -0.0817178    0.1366065  
H   -8.9190408    4.1637686    1.4036043  
H  -10.9568718    2.2157726    1.8016092  
H  -11.6050562   -1.2151735    1.2666583  
H   -9.1420138   -2.3751759   -0.0243468  
H   -7.5057113   -0.7405925   -0.3193873  
H   -6.5948361    4.2970383    0.4809193  
C   -4.3137496    2.1424315   -0.2077329  
C   -5.5591243    1.7353215   -0.5466749  
C   -5.3648109    0.8246407   -1.6644417  
C   -3.9011714    0.7979211   -1.8733216  
N   -3.2797688    1.5684041   -1.0223196  
C   -3.2941076    0.0012878   -2.9038237  
C   -4.1120063   -0.7354730   -3.6896733  
O   -3.6822295   -1.5242473   -4.6892567  
C   -5.5930505   -0.7299484   -3.5035597  
O   -6.2763268   -1.4248007   -4.2555798  
C   -6.1916584    0.0955202   -2.4395134  
H   -4.4926444   -1.9161852   -5.0617692  
H   -7.2683270    0.0718767   -2.3372576  
H   -4.0287171    2.8244781    0.5774694  
C    0.0000000    0.0000000    0.0000000  
C    1.0541688   -0.0001723   -0.8560392  
C    0.5103136   -0.0000455   -2.1935956  
C   -0.9576373    0.0002461   -2.0455730  
N   -1.2018460   -0.0001389   -0.6915968  
C   -1.8348314    0.0008319   -3.0810607  
C   -1.2972851    0.0009739   -4.4314603  
O   -2.0050676    0.0014268   -5.4301316  
C    0.2542619    0.0004184   -4.6117572  
O    0.7184666    0.0002257   -5.7439122  
C    1.0974551    0.0000873   -3.4189129  
H    2.0940752   -0.0005484   -0.5817983  
H    2.1707276   -0.0000912   -3.5523673  
H   -2.1128194    0.0014915   -0.2706789  
C    3.2798086   -0.0005857    2.9199648  
C    2.5571146   -0.0005566    4.0696553  
C    1.1637436   -0.0001548    3.6910360  
C    1.1336965    0.0000200    2.2159470  
N    2.4483514    0.0001428    1.8102719  
C    0.0000000    0.0000000    1.4700000  
C   -1.2757367    0.0000186    2.1664417  
O   -2.3524596    0.0000640    1.5842315  
C   -1.2676493    0.0000873    3.7284083  
O   -2.3355761    0.0004100    4.3257297  
C    0.0181563   -0.0001760    4.4216297  
H    2.9547357   -0.0006076    5.0689105  
H    0.0150794   -0.0003319    5.5031631  
H    4.3498549   -0.0008612    2.7900019  
H    2.7563627   -0.0012824    0.8551938  
