60

C    4.3986925   -2.1219534   -1.2768490  
C    3.1671542   -1.6601561   -1.6799920  
C    3.3927791   -0.7733837   -2.7742173  
C    4.7932402   -0.7334947   -2.9956763  
N    5.3743139   -1.5620494   -2.0680625  
C    5.3781140    0.0421207   -4.0012263  
C    4.5338274    0.7908774   -4.7979200  
O    5.0520044    1.5657842   -5.7949293  
C    3.1338858    0.7645692   -4.5922822  
O    2.4284169    1.5645872   -5.4672842  
C    2.5562222   -0.0001542   -3.6002998  
H    2.2224780   -1.9284770   -1.2388763  
H    6.3585028   -1.7434167   -1.9876889  
H    6.4447778    0.0769756   -4.1750569  
H    4.3015179    1.9985585   -6.2224131  
H    1.4918408    1.4894028   -5.2604613  
H    4.6584630   -2.8053140   -0.4865975  
C    0.0000000    0.0000000    0.0000000  
C    1.0541691   -0.0001719   -0.8560389  
C    0.5103143   -0.0000448   -2.1935953  
C   -0.9576364    0.0002464   -2.0455731  
N   -1.2018458   -0.0001389   -0.6915972  
C   -1.8348303    0.0008322   -3.0810611  
C   -1.2972837    0.0009745   -4.4314603  
O   -2.0050658    0.0014276   -5.4301322  
C    0.2542633    0.0004194   -4.6117570  
O    0.7184681    0.0002269   -5.7439118  
C    1.0974560    0.0000881   -3.4189126  
H    2.0940754   -0.0005481   -0.5817976  
H   -2.1128195    0.0014913   -0.2706792  
C   -3.2941065    0.0012879   -2.9038247  
C   -4.0168008    0.0014141   -1.7541341  
C   -5.4101719    0.0018625   -2.1327540  
C   -5.4402184    0.0019588   -3.6078430  
N   -4.1255635    0.0019964   -4.0135178  
C   -6.5739142    0.0019530   -4.3537902  
C   -7.8496515    0.0020709   -3.6573491  
O   -8.9263744    0.0021366   -4.2395593  
C   -7.8415646    0.0022238   -2.0953824  
O   -8.9094911    0.0026305   -1.4980612  
C   -6.5557591    0.0019362   -1.4021605  
H   -3.6191797    0.0013981   -0.7548790  
H   -6.5739148    0.0018944   -5.4349514  
H   -6.5588365    0.0018391   -0.3206271  
H   -3.8175518    0.0005045   -4.9685958  
C    1.0965515   -0.0001358    2.2710304  
C    0.0000000    0.0000000    1.4700000  
C   -1.1546562   -0.0001469    2.3369512  
C   -0.6372014   -0.0003519    3.7186280  
N    0.7342871   -0.0007337    3.6095011  
C   -1.4147739   -0.0001353    4.8308716  
C   -2.8576048    0.0001048    4.6554461  
O   -3.6427778    0.0002493    5.5944904  
C   -3.4275839    0.0000726    3.2011665  
O   -4.6406829   -0.0000333    3.0410059  
C   -2.4891866    0.0001091    2.0816745  
H   -1.0150448   -0.0001615    5.8354244  
H   -2.8919121    0.0002919    1.0779135  
H    2.1388271   -0.0000662    1.9961646  
H    1.3735872    0.0006099    4.3830260  
