64

C    7.2341725   -3.2559850   -1.6476140  
C    6.7584072   -2.0028679   -1.9571496  
C    7.8880873   -1.1351318   -2.0310066  
C    9.0358023   -1.9216711   -1.7552659  
N    8.6029767   -3.2039671   -1.5250585  
C   10.3299225   -1.3926367   -1.7424023  
C   10.4679732   -0.0451091   -2.0131228  
O   11.7090683    0.5229549   -2.0139398  
C    9.3348857    0.7562388   -2.2901965  
O    9.6371436    2.0790345   -2.5395843  
C    8.0578809    0.2350611   -2.3027903  
H    9.1946619   -3.9870812   -1.3138206  
H   11.2087416   -1.9867396   -1.5328340  
H   11.5814645    1.4574965   -2.2227784  
H    8.8172916    2.5500939   -2.7172067  
H    7.2091440    0.8735927   -2.5181998  
H    6.7052815   -4.1824646   -1.5031538  
C    4.2912323   -2.1143351   -1.4466317  
C    5.3462901   -1.6515578   -2.1654949  
C    4.8141498   -0.7557115   -3.1650558  
C    3.3521068   -0.7343357   -2.9681712  
N    3.0997464   -1.5788209   -1.9117392  
C    2.4861704   -0.0045255   -3.7159919  
C    3.0304435    0.8144036   -4.7863461  
O    2.3328584    1.5073004   -5.5154345  
C    4.5758858    0.8068264   -5.0129661  
O    5.0456360    1.4921000   -5.9112952  
C    5.4069285   -0.0204565   -4.1418624  
H    6.4760576   -0.0199704   -4.3052231  
H    4.2838598   -2.8017032   -0.6163547  
H    2.1903282   -1.7742811   -1.5351743  
C    0.0000000    0.0000000    0.0000000  
C    1.0521669   -0.0011848   -0.8862341  
C    0.4917221   -0.0011931   -2.1979130  
C   -0.9187427    0.0003100   -2.0478683  
N   -1.1833170   -0.0009472   -0.7007915  
C   -1.7951698    0.0010259   -3.1372090  
C   -1.2375835    0.0005161   -4.4010425  
O   -2.0474208    0.0015256   -5.4997580  
C    0.1673584   -0.0013557   -4.5711962  
O    0.5673529   -0.0020659   -5.8915551  
C    1.0325773   -0.0023359   -3.4969890  
H    2.0953059   -0.0030542   -0.6200560  
H   -2.0989777    0.0102265   -0.2891825  
H   -2.8710930    0.0020274   -3.0295514  
H   -1.4634881    0.0006427   -6.2693593  
H    1.5290715   -0.0033076   -5.9180042  
C    1.1188642   -0.0008217    2.2703808  
C    0.0000000    0.0000000    1.4700000  
C   -1.1323862   -0.0008904    2.3373528  
C   -0.6382662   -0.0019682    3.6669281  
N    0.7324016   -0.0038477    3.5902241  
C   -1.4770914   -0.0027325    4.7854808  
C   -2.8395474   -0.0020958    4.5576857  
O   -3.7039201   -0.0024443    5.6140350  
C   -3.3517868   -0.0013946    3.2384331  
O   -4.7300496   -0.0012389    3.1773122  
C   -2.5248543   -0.0009135    2.1344818  
H    1.3576314    0.0056174    4.3757045  
H   -1.1067570   -0.0036993    5.8013813  
H   -4.5940033   -0.0021850    5.2385129  
H   -4.9934601   -0.0007286    2.2519915  
H   -2.9462578   -0.0005617    1.1360343  
H    2.1619896   -0.0009344    2.0042067  
