62

C    1.0085102   -0.6915278   -9.5789558  
C    0.4908844    0.5610108   -9.3429946  
C    1.0382623    1.4308478  -10.3321151  
C    1.8900192    0.6461271  -11.1510475  
N    1.8504674   -0.6371556  -10.6650035  
C    2.5992260    1.1774806  -12.2324723  
C    2.4455574    2.5255001  -12.4921010  
O    3.1146193    3.0958002  -13.5361926  
C    1.6005706    3.3250566  -11.6861719  
O    1.5534940    4.6486219  -12.0725695  
C    0.9008265    2.8015911  -10.6189937  
H    2.3478122   -1.4193937  -11.0506620  
H    3.2501043    0.5847711  -12.8603707  
H    2.8697460    4.0302999  -13.5396135  
H    0.9613620    5.1183645  -11.4773175  
H    0.2612595    3.4387881  -10.0194847  
H    0.8448502   -1.6190899   -9.0576091  
C    0.2653132   -0.7042848   -5.1440086  
C   -0.8287665    0.0000939   -4.7555305  
C   -1.2825954    0.7423468   -5.9078915  
C   -0.3566072    0.4102558   -7.0074602  
N    0.5584967   -0.4707817   -6.4790217  
C   -0.4467549    0.9099655   -8.2659785  
C   -1.5278135    1.8369015   -8.5569048  
O   -1.6939210    2.3415171   -9.6596613  
C   -2.5200358    2.2029120   -7.4074112  
O   -3.4339545    2.9824917   -7.6403703  
C   -2.3204910    1.5996617   -6.0920693  
H   -3.0119743    1.8581181   -5.3016423  
H    0.8822126   -1.3741500   -4.5672890  
H    1.3206155   -0.8824729   -6.9857086  
C    1.0672569   -0.0000698   -0.8321910  
C    0.0000000    0.0000000    0.0000000  
C   -1.1601223   -0.0000736   -0.8778472  
C   -0.5938729   -0.0000768   -2.2438435  
N    0.7113367   -0.0001553   -2.2234123  
C   -1.4286985   -0.0001877   -3.4135239  
C   -2.7683113   -0.0006798   -3.2270524  
O   -3.6653902   -0.0008302   -4.2276970  
C   -3.3702024   -0.0010610   -1.8610774  
O   -4.5974910   -0.0013779   -1.7662963  
C   -2.4926825   -0.0008943   -0.6770658  
H   -4.5324245   -0.0012258   -3.7833954  
H   -2.9677772   -0.0012974    0.2947961  
H    2.1134391   -0.0000547   -0.5705119  
C    0.0000000    0.0000000    1.4700000  
C    1.0521667    0.0011902    2.3562342  
C    0.4917218    0.0011957    3.6679131  
C   -0.9187428   -0.0003148    3.5178682  
N   -1.1833171    0.0009411    2.1707914  
C   -1.7951701   -0.0010350    4.6072090  
C   -1.2375837   -0.0005224    5.8710424  
O   -2.0474215   -0.0015360    6.9697579  
C    0.1673580    0.0013566    6.0411963  
O    0.5673524    0.0020687    7.3615553  
C    1.0325770    0.0023412    4.9669890  
H    2.0953057    0.0030649    2.0900562  
H   -2.0989778   -0.0102372    1.7591824  
H   -2.8710934   -0.0020419    4.4995513  
H   -1.4634884   -0.0006497    7.7393593  
H    1.5290710    0.0033153    7.3880045  
H    2.1042148    0.0039609    5.1284455  
