62

C    4.2949391   -3.6305372   -5.1141190  
C    3.5771660   -3.0322265   -6.1237199  
C    4.1263050   -3.4954611   -7.3559780  
C    5.1853893   -4.3818463   -7.0325781  
N    5.2619988   -4.4396948   -5.6631251  
C    5.9539376   -5.0286076   -8.0051121  
C    5.6475720   -4.7762016   -9.3282179  
O    6.3660991   -5.3815813  -10.3182910  
C    4.5948056   -3.8946826   -9.6708888  
O    4.4138453   -3.7469889  -11.0305884  
C    3.8363733   -3.2560799   -8.7119866  
H    5.9136941   -4.9974046   -5.1413650  
H    6.7625499   -5.7051964   -7.7651645  
H    5.9938060   -5.0719415  -11.1542237  
H    3.6847759   -3.1362774  -11.1758227  
H    3.0364359   -2.5861218   -9.0047899  
H    4.1945101   -3.5430062   -4.0458442  
C    2.4602717   -2.0944452   -5.9392893  
C    1.9124728   -1.6318083   -4.7860506  
C    0.8432452   -0.7354854   -5.1577935  
C    0.8127879   -0.7137213   -6.6327140  
N    1.8180299   -1.5578231   -7.0448669  
C   -0.0596374    0.0159822   -7.3730582  
C   -1.0334829    0.8347251   -6.6703351  
O   -1.8613777    1.5276084   -7.2472263  
C   -1.0192493    0.8271228   -5.1084309  
O   -1.8341905    1.5127102   -4.5058515  
C   -0.0307352   -0.0004646   -4.4215603  
H    2.2221962   -1.8889424   -3.7887709  
H   -0.0651704    0.0176836   -8.4542048  
H    2.0482131   -1.7553490   -8.0014478  
C    3.2573670   -0.0002920   -1.5109380  
C    2.5379468   -0.0001709   -0.3591961  
C    1.1435043    0.0000332   -0.7338500  
C    1.1092609   -0.0000082   -2.2088477  
N    2.4227562    0.0001909   -2.6182613  
C   -0.0265532   -0.0002522   -2.9515663  
C   -1.3003035   -0.0002639   -2.2514981  
O   -2.3786784   -0.0004131   -2.8306429  
C   -1.2877725    0.0000312   -0.6895608  
O   -2.3539958    0.0003307   -0.0892036  
C    0.0000000    0.0000000    0.0000000  
H    2.9384091   -0.0000369    0.6389239  
H    4.3270394   -0.0004765   -1.6439446  
H    2.7280494   -0.0013406   -3.5742113  
C    0.8576279    0.7185626    2.2703808  
C    0.0000000    0.0000000    1.4700000  
C   -0.8668858   -0.7285659    2.3373528  
C   -0.4876752   -0.4117774    3.6669281  
N    0.5635254    0.4678311    3.5902241  
C   -1.1297612   -0.9515493    4.7854808  
C   -2.1738724   -1.8268314    4.5576857  
O   -2.8357962   -2.3827064    5.6140350  
C   -2.5667212   -2.1555554    3.2384331  
O   -3.6226318   -3.0413663    3.1773122  
C   -1.9335634   -1.6236449    2.1344818  
H    1.0363952    0.8769718    4.3757045  
H   -0.8454472   -0.7142436    5.8013813  
H   -3.5178062   -2.9546422    5.2385129  
H   -3.8247440   -3.2102924    2.2519915  
H   -2.2566033   -1.8942483    1.1360343  
H    1.6567807    1.3889844    2.0042067  
