60

C    6.1257030   -2.1233887   -1.6178138  
C    5.3420031   -1.6625191   -2.6502288  
C    6.1500831   -0.7769237   -3.4230981  
C    7.4280615   -0.7367635   -2.8090264  
N    7.3783410   -1.5640301   -1.7145966  
C    8.4812085    0.0379122   -3.3045535  
C    8.2399376    0.7854329   -4.4408540  
O    9.2333613    1.5593849   -4.9672790  
C    6.9713865    0.7588356   -5.0676611  
O    6.8888540    1.5575793   -6.1895081  
C    5.9318902   -0.0049611   -4.5792080  
H    4.3139859   -1.9306866   -2.8241854  
H    8.1421883   -1.7449348   -1.0886652  
H    9.4575155    0.0729678   -2.8410910  
H    8.8592130    1.9913840   -5.7461595  
H    6.0007855    1.4822816   -6.5518169  
H    5.8898256   -2.8057401   -0.8192419  
C    1.6707638   -0.0012342   -3.2725973  
C    3.0236194   -0.0024593   -3.2357221  
C    3.4368538   -0.0041819   -4.6306178  
C    2.1706897   -0.0038462   -5.3944318  
N    1.1320377   -0.0020400   -4.6037428  
C    2.1489273   -0.0051910   -6.8313075  
C    3.3380093   -0.0064090   -7.4758349  
O    3.4666353   -0.0077449   -8.8135550  
C    4.6328556   -0.0064075   -6.7331813  
O    5.6771196   -0.0076805   -7.3848958  
C    4.6287472   -0.0050578   -5.2594421  
H    3.6622535   -0.0021327   -2.3689915  
H    1.2090112   -0.0051155   -7.3637246  
H    4.4282071   -0.0083584   -8.9701839  
C    1.0965515    0.0001359   -0.8010305  
C    0.0000000    0.0000000    0.0000000  
C   -1.1546564    0.0001470   -0.8669509  
C   -0.6372018    0.0003521   -2.2486279  
N    0.7342868    0.0007339   -2.1395011  
C   -1.4147743    0.0001355   -3.3608714  
C   -2.8576049   -0.0001046   -3.1854455  
O   -3.6427782   -0.0002491   -4.1244898  
C   -3.4275842   -0.0000725   -1.7311664  
O   -4.6406831    0.0000334   -1.5710053  
C   -2.4891868   -0.0001091   -0.6116742  
H   -1.0150456    0.0001619   -4.3654242  
H   -2.8919123   -0.0002920    0.3920869  
H    2.1388270    0.0000663   -0.5261648  
C    2.4951002    2.0940188    2.9809380  
C    1.9440701    1.6314916    1.8291961  
C    0.8759964    0.7350050    2.2038498  
C    0.8497377    0.7130254    3.6788474  
N    1.8560616    1.5571714    4.0882609  
C   -0.0205033   -0.0168748    4.4215661  
C   -0.9962600   -0.8356168    3.7214979  
O   -1.8224391   -1.5286685    4.3006425  
C   -0.9864710   -0.8277881    2.1595606  
O   -1.8030528   -1.5133726    1.5592035  
C    0.0000000    0.0000000    1.4700000  
H    2.2509283    1.8888011    0.8310761  
H   -0.0229599   -0.0187323    5.5027230  
H    3.3143982    2.7817323    3.1139444  
H    2.0889452    1.7545833    5.0442112  
