62

C    1.9609636   -2.3744455   -7.1796501  
C    2.9984786   -2.5859022   -8.0578956  
C    3.2174316   -1.3565764   -8.7474007  
C    2.2757963   -0.4232135   -8.2433353  
N    1.5273205   -1.0743991   -7.2944628  
C    2.2023698    0.8971515   -8.6972449  
C    3.0959943    1.2823939   -9.6776529  
O    3.0682526    2.5602292  -10.1565892  
C    4.0426562    0.3655398  -10.1934325  
O    4.8625517    0.9008539  -11.1653137  
C    4.1154851   -0.9372628   -9.7462994  
H    3.5311604   -3.5125491   -8.1866206  
H    1.4869236    1.6133508   -8.3172471  
H    3.7641219    2.6167272  -10.8242999  
H    5.4716281    0.2168866  -11.4599628  
H    4.8511490   -1.6168276  -10.1603872  
H    1.4950274   -3.0485159   -6.4814439  
C    0.2055739   -0.7043961   -5.1603477  
C   -0.8712826    0.0001710   -4.7267111  
C   -1.3726447    0.7423359   -5.8592582  
C   -0.4933186    0.4099880   -6.9964127  
N    0.4429027   -0.4710987   -6.5064483  
C   -0.6357679    0.9095500   -8.2501475  
C   -1.7278971    1.8365864   -8.4958969  
O   -1.9397498    2.3410839   -9.5908402  
C   -2.6713156    2.2028686   -7.3061054  
O   -3.5940525    2.9825347   -7.5008830  
C   -2.4172088    1.5997595   -6.0001417  
H    0.0202134    0.6527119   -9.0702891  
H   -3.0751241    1.8584032   -5.1816215  
H    0.8458871   -1.3742666   -4.6097462  
C    1.0965514    0.0001359   -0.8010305  
C    0.0000000    0.0000000    0.0000000  
C   -1.1546563    0.0001470   -0.8669513  
C   -0.6372014    0.0003519   -2.2486282  
N    0.7342871    0.0007337   -2.1395014  
C   -1.4147739    0.0001352   -3.3608717  
C   -2.8576049   -0.0001048   -3.1854462  
O   -3.6427779   -0.0002494   -4.1244907  
C   -3.4275840   -0.0000725   -1.7311666  
O   -4.6406831    0.0000333   -1.5710060  
C   -2.4891867   -0.0001091   -0.6116744  
H   -2.8919122   -0.0002918    0.3920866  
H    2.1388272    0.0000663   -0.5261648  
H    1.3735872   -0.0006099   -2.9130262  
C    0.8676693    0.7151171    2.2619005  
C    0.5875920    0.4624972    3.5848544  
C   -0.5048400   -0.4542819    3.6114698  
C   -0.8517165   -0.7276451    2.2635546  
N    0.0000000    0.0000000    1.4700000  
C   -1.8902865   -1.5946756    1.9108239  
C   -2.5912627   -2.1969500    2.9375057  
O   -3.6148162   -3.0527051    2.6493466  
C   -2.2603868   -1.9365747    4.2886322  
O   -3.0513550   -2.6123276    5.1947621  
C   -1.2361111   -1.0811317    4.6373480  
H    1.1060808    0.8876438    4.4271209  
H   -2.1597133   -1.8070987    0.8854031  
H   -3.9636755   -3.3565188    3.4974381  
H   -2.7621927   -2.3810384    6.0827341  
H   -1.0058879   -0.9010589    5.6809233  
H    1.6167816    1.3499334    1.8205408  
