60

C    7.6661886   -5.3243418   -7.2228586  
C    6.9645832   -4.4022231   -6.4812945  
C    7.1009351   -3.1456654   -7.1424071  
C    7.9030986   -3.3648221   -8.2915069  
N    8.2307311   -4.6978494   -8.3092044  
C    8.2440083   -2.3423378   -9.1820659  
C    7.7661859   -1.0755972   -8.9077802  
O    8.0686193   -0.0405922   -9.7446265  
C    6.9647108   -0.8369485   -7.7660707  
O    6.5670421    0.4771819   -7.6309236  
C    6.6282253   -1.8451260   -6.8869335  
H    6.4222467   -4.6095021   -5.5747081  
H    8.7850208   -5.1499353   -9.0137329  
H    8.8551226   -2.5028246  -10.0595533  
H    7.6423833    0.7433420   -9.3744419  
H    6.0303857    0.5523336   -6.8359676  
H    7.8097621   -6.3790850   -7.0620415  
C    5.9779325   -2.0928588   -4.4468283  
C    5.0400354   -1.6304885   -3.5804350  
C    4.1859903   -0.7341817   -4.3234534  
C    4.7069269   -0.7121370   -5.7036452  
N    5.7934741   -1.5560772   -5.7119685  
C    4.1728101    0.0176373   -6.7155016  
C    3.0072075    0.8361657   -6.4258173  
O    2.4535605    1.5290917   -7.2693979  
C    2.4388221    0.8282646   -4.9709355  
O    1.4580061    1.5136694   -4.7150426  
C    3.1006054    0.0006263   -3.9654951  
H    4.9561723   -1.8877887   -2.5395805  
H    4.5702541    0.0195456   -7.7209582  
H    6.7884827   -2.7804145   -4.2674807  
C    3.2798083    0.0005857   -1.4499652  
C    2.5571142    0.0005565   -2.5996556  
C    1.1637432    0.0001548   -2.2210361  
C    1.1336964   -0.0000200   -0.7459473  
N    2.4483512   -0.0001428   -0.3402723  
C    0.0000000    0.0000000    0.0000000  
C   -1.2757368   -0.0000186   -0.6964415  
O   -2.3524598   -0.0000639   -0.1142311  
C   -1.2676497   -0.0000872   -2.2584083  
O   -2.3355766   -0.0004101   -2.8557295  
C    0.0181558    0.0001758   -2.9516296  
H    0.0150788    0.0003319   -4.0331631  
H    4.3498547    0.0008612   -1.3200026  
H    2.7563626    0.0012823    0.6148059  
C    2.5528530    2.1414826    2.8079335  
C    2.0663498    1.7338582    4.0032312  
C    0.9804344    0.8229586    3.6752840  
C    0.9495562    0.7966882    2.1971295  
N    1.8690446    1.5676019    1.6831036  
C    0.0000000    0.0000000    1.4700000  
C   -0.8785127   -0.7372425    2.1869543  
O   -1.8187535   -1.5261249    1.6395491  
C   -0.8723269   -0.7321790    3.6796354  
O   -1.7010379   -1.4274584    4.2670412  
C    0.1115397    0.0933559    4.4024240  
H    2.4028853    2.0163452    4.9860947  
H   -2.2861435   -1.9184361    2.3990168  
H    0.0832434    0.0693689    5.4835595  
H    3.3664920    2.8238276    2.6198634  
