62

C    0.0000000    0.0000000    0.0000000  
C    1.0521656   -0.0012043   -0.8862351  
C    0.4917200   -0.0012020   -2.1979137  
C   -0.9187445    0.0003274   -2.0478677  
N   -1.1833177   -0.0009251   -0.7007905  
C   -1.7951725    0.0010595   -3.1372079  
C   -1.2375873    0.0005399   -4.4010417  
O   -2.0474259    0.0015643   -5.4997564  
C    0.1673544   -0.0013583   -4.5711967  
O    0.5673477   -0.0020758   -5.8915560  
C    1.0325744   -0.0023546   -3.4969900  
H    2.0953046   -0.0030932   -0.6200577  
H   -2.0989779    0.0102656   -0.2891810  
H   -1.4634938    0.0006700   -6.2693583  
H    1.5290660   -0.0033352   -5.9180057  
H    2.1042114   -0.0039890   -3.6584473  
C   -4.7114417    2.0140794   -0.4339566  
C   -3.5467357    1.6314859   -1.0072465  
C   -3.9343411    0.7149573   -2.0684898  
C   -5.4099524    0.6582045   -1.9914546  
N   -5.8711923    1.4177554   -1.0352486  
C   -6.1879822   -0.1524256   -2.8873535  
C   -5.5221693   -0.8732798   -3.8181580  
O   -6.1204783   -1.6723418   -4.7179179  
C   -4.0334893   -0.8368211   -3.9214197  
O   -3.4940551   -1.5187026   -4.7927805  
C   -3.2578679    0.0024482   -2.9908485  
H   -2.5479293    1.9339456   -0.7427094  
H   -5.3893233   -2.0479243   -5.2408934  
H   -4.8535640    2.6917474    0.3928087  
C   -7.6537112   -0.1832057   -2.7796940  
C   -8.4621843    0.4754330   -1.9098428  
C   -9.8191093    0.0983519   -2.2282782  
C   -9.7342867   -0.8407157   -3.3630678  
N   -8.3947139   -0.9687718   -3.6494875  
C  -10.8042485   -1.4257180   -3.9585988  
C  -12.1277239   -1.1091742   -3.4479629  
O  -13.1537392   -1.5845968   -3.9165422  
C  -12.2411680   -0.1169384   -2.2469616  
O  -13.3501900    0.1573709   -1.8086872  
C  -11.0157443    0.4493461   -1.6888299  
H   -8.1442846    1.1487432   -1.1338232  
H  -10.7201591   -2.1119362   -4.7898287  
H  -11.1029153    1.1353781   -0.8572738  
H   -8.0138814   -1.5457552   -4.3768827  
C    3.3041272   -0.0001177    3.0120429  
C    2.5845372    0.0004780    1.8395852  
C    1.2040006    0.0000008    2.1983588  
C    1.1422373   -0.0006037    3.6154372  
N    2.4348639   -0.0026109    4.0777464  
C   -0.0655181   -0.0008797    4.3197917  
C   -1.2321768   -0.0002324    3.5801400  
O   -2.4392816   -0.0001146    4.2172520  
C   -1.1911209    0.0000007    2.1655264  
O   -2.4371527    0.0002320    1.5732860  
C    0.0000000    0.0000000    1.4700000  
H    3.0031534    0.0000661    0.8477417  
H    2.7054629    0.0071099    5.0445261  
H   -0.1193549   -0.0014844    5.3997470  
H   -3.1132988    0.0000648    3.5251786  
H   -2.3200282    0.0004071    0.6183591  
H    4.3686625   -0.0004071    3.1724291  
