62

C    6.7743880   -1.9912967   -6.7716436  
C    7.8642056   -2.8301127   -6.8055873  
C    8.3656124   -2.8074745   -8.1407573  
C    7.5344225   -1.9296199   -8.8826609  
N    6.5773254   -1.4528605   -8.0216837  
C    7.7353426   -1.6651957  -10.2407845  
C    8.7948243   -2.2982621  -10.8611916  
O    9.0365925   -2.0755465  -12.1859396  
C    9.6350927   -3.1778816  -10.1379803  
O   10.6459541   -3.7305551  -10.8969632  
C    9.4373094   -3.4394200   -8.7982034  
H    8.2496430   -3.3903498   -5.9709822  
H    5.8531653   -0.8005166   -8.2625589  
H    7.1053373   -0.9972815  -10.8119121  
H    9.8098170   -2.6072199  -12.4155322  
H   11.1665412   -4.3112647  -10.3336076  
H   10.0973401   -4.1180270   -8.2706325  
C    5.9718893   -2.1066114   -4.3836101  
C    5.8824617   -1.6421429   -5.6565381  
C    4.7503164   -0.7470245   -5.6994995  
C    4.1834494   -0.7279189   -4.3374841  
N    4.9692736   -1.5728897   -3.5882214  
C    3.1006054    0.0006263   -3.9654951  
C    2.4499045    0.8204921   -4.9739315  
O    1.4681173    1.5123811   -4.7379557  
C    3.0331141    0.8153164   -6.4229469  
O    2.4935220    1.5013960   -7.2804990  
C    4.2049177   -0.0107665   -6.7027952  
H    4.6026869   -0.0086184   -7.7085282  
H    6.6857548   -2.7940671   -3.9597122  
H    4.8362804   -1.7697855   -2.6132382  
C    3.2798083    0.0005857   -1.4499652  
C    2.5571142    0.0005565   -2.5996556  
C    1.1637432    0.0001548   -2.2210361  
C    1.1336964   -0.0000200   -0.7459473  
N    2.4483512   -0.0001428   -0.3402723  
C    0.0000000    0.0000000    0.0000000  
C   -1.2757368   -0.0000186   -0.6964415  
O   -2.3524598   -0.0000639   -0.1142311  
C   -1.2676497   -0.0000872   -2.2584083  
O   -2.3355766   -0.0004101   -2.8557295  
C    0.0181558    0.0001758   -2.9516296  
H    0.0150788    0.0003319   -4.0331631  
H    4.3498547    0.0008612   -1.3200026  
H    2.7563626    0.0012823    0.6148059  
C    2.5311839    2.1237619    3.0120429  
C    1.9795631    1.6616747    1.8395852  
C    0.9223175    0.7739173    2.1983588  
C    0.8753926    0.7337535    3.6154372  
N    1.8668922    1.5631002    4.0777464  
C   -0.0496243   -0.0427881    4.3197917  
C   -0.9437528   -0.7922060    3.5801400  
O   -1.8685244   -1.5680278    4.2172520  
C   -0.9124520   -0.7656372    2.1655264  
O   -1.8671164   -1.5663939    1.5732860  
C    0.0000000    0.0000000    1.4700000  
H    2.3005065    1.9304404    0.8477417  
H    2.0679347    1.7444845    5.0445261  
H   -0.0904770   -0.0778569    5.3997470  
H   -2.3849669   -2.0011402    3.5251786  
H   -1.7775064   -1.4909735    0.6183591  
H    3.3468514    2.8078103    3.1724291  
