66

C    6.7742997   -1.9565954   -2.0177556  
C    7.3874345   -2.7886573   -1.1098974  
C    8.7869350   -2.7422616   -1.3816428  
C    8.9694713   -1.8575438   -2.4752059  
N    7.7272082   -1.3997224   -2.8382469  
C   10.2272721   -1.5707196   -3.0141481  
C   11.3207516   -2.1880274   -2.4384661  
O   12.5721865   -1.9432009   -2.9252762  
C   11.1589212   -3.0741666   -1.3469599  
O   12.3436847   -3.6091905   -0.8849758  
C    9.9183429   -3.3577994   -0.8149407  
H    6.8873897   -3.3597534   -0.3464854  
H    7.5426500   -0.7477462   -3.5790886  
H   10.3730779   -0.8974654   -3.8476181  
H   13.1812347   -2.4668665   -2.3885261  
H   12.1457928   -4.1957428   -0.1484986  
H    9.8255357   -4.0408932    0.0212699  
C    4.3172190   -2.1276213   -1.4346671  
C    5.3517550   -1.6299841   -2.1926639  
C    4.7753712   -0.7549584   -3.1605022  
C    3.3738278   -0.7584001   -2.9423472  
N    3.1294640   -1.6035969   -1.8885226  
C    2.4861704   -0.0045255   -3.7159919  
C    3.0231743    0.7671116   -4.7281091  
O    2.2016879    1.5228929   -5.5135828  
C    4.4189003    0.7834868   -4.9615575  
O    4.7982355    1.6013212   -6.0058733  
C    5.2951626    0.0398124   -4.1989049  
H    2.2250248   -1.7989301   -1.4988869  
H    2.7718799    1.9765076   -6.1479166  
H    5.7549249    1.5549959   -6.0964458  
H    6.3593040    0.0724109   -4.4014337  
H    4.3324696   -2.8160058   -0.6071079  
C    0.0000000    0.0000000    0.0000000  
C    1.0521669   -0.0011848   -0.8862341  
C    0.4917221   -0.0011931   -2.1979130  
C   -0.9187427    0.0003100   -2.0478683  
N   -1.1833170   -0.0009472   -0.7007915  
C   -1.7951698    0.0010259   -3.1372090  
C   -1.2375835    0.0005161   -4.4010425  
O   -2.0474208    0.0015256   -5.4997580  
C    0.1673584   -0.0013557   -4.5711962  
O    0.5673529   -0.0020659   -5.8915551  
C    1.0325773   -0.0023359   -3.4969890  
H    2.0953059   -0.0030542   -0.6200560  
H   -2.0989777    0.0102265   -0.2891825  
H   -2.8710930    0.0020274   -3.0295514  
H   -1.4634881    0.0006427   -6.2693593  
H    1.5290715   -0.0033076   -5.9180042  
C    3.3003543   -0.0005276    2.9438989  
C    2.5232812   -0.0003497    4.0790748  
C    1.1623199    0.0001319    3.6520102  
C    1.1711883   -0.0000583    2.2336141  
N    2.4852299    0.0014920    1.8362361  
C    0.0000000    0.0000000    1.4700000  
C   -1.2020384   -0.0000520    2.1506477  
O   -2.3759250   -0.0003494    1.4542253  
C   -1.2314658    0.0005113    3.5655508  
O   -2.5054393    0.0008037    4.0950179  
C   -0.0764518    0.0007272    4.3195194  
H    2.8919952    0.0005619    5.0905303  
H    2.8036267   -0.0088181    0.8841339  
H   -3.0835639   -0.0000348    2.1118817  
H   -2.4360050    0.0011527    5.0545920  
H   -0.1304098    0.0013421    5.4019087  
H    4.3715549   -0.0004895    2.8367138  
