60

C    0.4883749   -0.8815289   -9.6126662  
C    0.8024314   -0.4775577  -10.8896325  
C    0.5539156    0.9254779  -10.9554410  
C    0.0859128    1.3256534   -9.6776461  
N    0.0562974    0.2038165   -8.8869372  
C   -0.2585532    2.6471861   -9.3781743  
C   -0.1279098    3.5818237  -10.3869170  
O   -0.4500416    4.8866074  -10.1486224  
C    0.3369727    3.2019247  -11.6684694  
O    0.4116666    4.2477023  -12.5651947  
C    0.6767219    1.8983348  -11.9646945  
H    1.1648886   -1.1158261  -11.6771809  
H   -0.6159967    2.9585879   -8.4063380  
H   -0.2885142    5.3627646  -10.9735150  
H    0.7339976    3.9059814  -13.4047985  
H    1.0297109    1.6372609  -12.9555120  
H    0.5370379   -1.8582479   -9.1625435  
C    1.7371422   -2.0043750   -5.5274505  
C    0.9346266   -1.6238670   -4.5062936  
C   -0.0220098   -0.7047840   -5.1034811  
C    0.3601280   -0.6444241   -6.5306852  
N    1.3906155   -1.4042325   -6.7851963  
C   -0.3537176    0.1694996   -7.4756927  
C   -1.4019189    0.8900579   -7.0159054  
O   -2.1569101    1.6919658   -7.7859521  
C   -1.8124079    0.8499980   -5.5813134  
O   -2.7762301    1.5318137   -5.2328955  
C   -1.0641734    0.0073898   -4.6315339  
H    0.9854833   -1.9292388   -3.4751597  
H   -2.8200953    2.0664814   -7.1784361  
H    2.5747583   -2.6829136   -5.4964944  
C    1.1319248    0.0015675   -0.8009270  
C    0.7969916    0.0034959   -2.1169404  
C   -0.6453336    0.0035703   -2.1842672  
C   -1.1266831    0.0015415   -0.7896027  
N    0.0000000    0.0000000    0.0000000  
C   -2.4346129    0.0013924   -0.4276297  
C   -3.4350110    0.0031352   -1.4820184  
O   -4.6384610    0.0030897   -1.2583919  
C   -2.9478958    0.0050460   -2.9661075  
O   -3.7809377    0.0062160   -3.8623775  
C   -1.5113821    0.0053068   -3.2312125  
H    1.4821240    0.0045436   -2.9459192  
H   -2.7664565    0.0000185    0.6013447  
H    2.1104318    0.0009428   -0.3488058  
C    2.5528530    2.1414826    2.8079335  
C    2.0663498    1.7338582    4.0032312  
C    0.9804344    0.8229586    3.6752840  
C    0.9495562    0.7966882    2.1971295  
N    1.8690446    1.5676019    1.6831036  
C    0.0000000    0.0000000    1.4700000  
C   -0.8785127   -0.7372425    2.1869543  
O   -1.8187535   -1.5261249    1.6395491  
C   -0.8723269   -0.7321790    3.6796354  
O   -1.7010379   -1.4274584    4.2670412  
C    0.1115397    0.0933559    4.4024240  
H    2.4028853    2.0163452    4.9860947  
H   -2.2861435   -1.9184361    2.3990168  
H    0.0832434    0.0693689    5.4835595  
H    3.3664920    2.8238276    2.6198634  
