60

C    1.8198726   -4.6239739   -7.2960644  
C    1.2374970   -3.5170805   -6.7232699  
C    1.3262490   -2.4596633   -7.6764710  
C    1.9778211   -2.9851488   -8.8215669  
N    2.2655708   -4.3010114   -8.5563804  
C    2.2356906   -2.2197986   -9.9628521  
C    1.8281100   -0.9000124   -9.9480125  
O    2.0546104   -0.1078367  -11.0362086  
C    1.1768442   -0.3573753   -8.8147815  
O    0.8332679    0.9714623   -8.9543829  
C    0.9223651   -1.1117540   -7.6884242  
H    0.8032263   -3.4764442   -5.7390187  
H    2.7186535   -4.9349838   -9.1894488  
H    2.7320012   -2.6143304  -10.8387643  
H    1.6970300    0.7629701  -10.8191903  
H    0.3986301    1.2597844   -8.1459504  
H    1.9538696   -5.6179004   -6.9047677  
C    0.5437041   -0.7271836   -5.2249461  
C    0.2434238   -0.5105981   -6.5314673  
C   -0.8629405    0.4167204   -6.5610284  
C   -1.1848937    0.7248605   -5.1545481  
N   -0.2963293   -0.0005341   -4.3948471  
C   -2.1738003    1.5656764   -4.7585729  
C   -2.9746434    2.2099919   -5.7862121  
O   -3.8882481    2.9836942   -5.5312369  
C   -2.6514187    1.8980396   -7.2822127  
O   -3.3190966    2.4343497   -8.1561911  
C   -1.5606875    0.9746586   -7.5847428  
H   -2.3934256    1.7781392   -3.7214931  
H   -1.3431591    0.7641266   -8.6230494  
H    1.3078556   -1.3566696   -4.7986721  
C    3.1301146   -0.0010313   -1.7028256  
C    2.5367765   -0.0002766   -0.4864669  
C    1.1089901    0.0001027   -0.7656184  
C    1.0177865   -0.0004150   -2.2415133  
N    2.1993571   -0.0011612   -2.7963824  
C   -0.2459219   -0.0002879   -2.9257116  
C   -1.3675326   -0.0000606   -2.1698520  
O   -2.6129318    0.0000865   -2.6748483  
C   -1.3083588    0.0000910   -0.6783229  
O   -2.3693264    0.0004206   -0.0541685  
C    0.0000000    0.0000000    0.0000000  
H    3.0096016   -0.0001007    0.4807518  
H   -3.1967444    0.0002093   -1.8949026  
H    4.1849275   -0.0015114   -1.9271979  
C    0.0000000    0.0000000    1.4700000  
C    1.0541688    0.0001722    2.3260392  
C    0.5103138    0.0000454    3.6635956  
C   -0.9576371   -0.0002459    3.5155732  
N   -1.2018458    0.0001392    2.1615969  
C   -1.8348311   -0.0008317    4.5510609  
C   -1.2972847   -0.0009736    5.9014604  
O   -2.0050672   -0.0014265    6.9001319  
C    0.2542623   -0.0004184    6.0817573  
O    0.7184670   -0.0002256    7.2139121  
C    1.0974552   -0.0000873    4.8889129  
H    2.0940752    0.0005483    2.0517982  
H   -2.9081052   -0.0011668    4.4207061  
H    2.1707277    0.0000911    5.0223670  
H   -2.1128194   -0.0014912    1.7406791  
