60

C    2.4938363   -2.1214411   -5.9023410  
C    1.8951707   -1.6223093   -7.0358905  
C    0.8534333   -0.7479144   -6.6059867  
C    0.8643852   -0.7532636   -5.1876156  
N    1.8712166   -1.5989406   -4.7929780  
C   -0.0307359   -0.0004648   -4.4215606  
C   -0.9535297    0.7720375   -5.0996971  
O   -1.8506809    1.5268333   -4.4008284  
C   -0.9804619    0.7903148   -6.5145319  
O   -1.9581565    1.6088082   -7.0413378  
C   -0.0978807    0.0477026   -7.2709075  
H    2.1741817   -1.8601301   -8.0481094  
H    2.1244781   -1.7955407   -3.8415642  
H   -2.3948814    1.9813032   -5.0570047  
H   -1.9079166    1.5637762   -8.0010520  
H   -0.1426932    0.0817546   -8.3531784  
H    3.3147713   -2.8099247   -5.7973913  
C    3.2573667   -0.0002920   -1.5109386  
C    2.5379466   -0.0001709   -0.3591965  
C    1.1435040    0.0000332   -0.7338503  
C    1.1092604   -0.0000083   -2.2088478  
N    2.4227557    0.0001908   -2.6182616  
C   -0.0265538   -0.0002523   -2.9515663  
C   -1.3003040   -0.0002641   -2.2514979  
O   -2.3786787   -0.0004133   -2.8306426  
C   -1.2877728    0.0000312   -0.6895607  
O   -2.3539959    0.0003306   -0.0892033  
C    0.0000000    0.0000000    0.0000000  
H    2.9384091   -0.0000368    0.6389234  
H    2.7280486   -0.0013408   -3.5742120  
C    4.7161330   -0.0005435   -1.6923266  
C    5.6957072   -0.0010600   -0.7518432  
C    6.9559338   -0.0010601   -1.4565873  
C    6.6279078   -0.0004681   -2.8950550  
N    5.2541452   -0.0005756   -2.9703260  
C    7.5472421    0.0001050   -3.8933172  
C    8.9536517   -0.0000850   -3.5265089  
O    9.8573549    0.0003297   -4.3521114  
C    9.3240199   -0.0009621   -2.0090664  
O   10.5048028   -0.0014358   -1.6881095  
C    8.2443355   -0.0012473   -1.0251286  
H    5.5518787   -0.0015843    0.3139555  
H    7.2854493    0.0006638   -4.9423043  
H    8.5092053   -0.0016498    0.0234744  
H    4.7240363    0.0012977   -3.8223993  
C    0.8681109    0.7263879    2.2709268  
C    0.6127770    0.5096195    3.5869401  
C   -0.4920590   -0.4175482    3.6542670  
C   -0.8620974   -0.7254003    2.2596025  
N    0.0000000    0.0000000    1.4700000  
C   -1.8641242   -1.5660088    1.8976294  
C   -2.6293522   -2.2103885    2.9520183  
O   -3.5512764   -2.9839180    2.7283916  
C   -2.2549728   -1.8987399    4.4361073  
O   -2.8923672   -2.4351063    5.3323774  
C   -1.1543735   -0.9755647    4.7012123  
H    1.1382914    0.9492124    4.4159191  
H   -2.1192137   -1.7782617    0.8686553  
H   -0.9013378   -0.7652422    5.7314848  
H    1.6172880    1.3558399    1.8188057  
