62

C   -4.3340716   -2.1214862   -7.1378006  
C   -4.9905930   -1.6224989   -8.2389179  
C   -6.0091395   -0.7485794   -7.7557740  
C   -5.9250679   -0.7540560   -6.3398544  
N   -4.8988792   -1.5993488   -5.9977510  
C   -6.7798109   -0.0017024   -5.5285796  
C   -7.7366611    0.7704774   -6.1581466  
O   -8.5968961    1.5248334   -5.4138632  
C   -7.8365137    0.7888749   -7.5697084  
O   -8.8404082    1.6070089   -8.0453100  
C   -6.9937998    0.0467019   -8.3706694  
H   -4.7640450   -1.8601090   -9.2642036  
H   -4.5968186   -1.7959316   -5.0606834  
H   -9.1743924    1.9791369   -6.0410562  
H   -8.8396992    1.5620871   -9.0063429  
H   -7.0943685    0.0808358   -9.4491859  
H   -3.5085337   -2.8096364   -7.0753974  
C   -3.3460096   -0.0004265   -2.7913646  
C   -4.0050885   -0.0007131   -1.6040609  
C   -5.4169936   -0.0010567   -1.9063186  
C   -5.5272431   -0.0009754   -3.3775888  
N   -4.2366045   -0.0001895   -3.8541818  
C   -6.6998410   -0.0016249   -4.0607563  
C   -7.9358014   -0.0022339   -3.2959439  
O   -9.0426019   -0.0027798   -3.8187170  
C   -7.8427529   -0.0020786   -1.7367304  
O   -8.8766028   -0.0022805   -1.0821970  
C   -6.5211391   -0.0016359   -1.1144848  
H   -3.5536954   -0.0005045   -0.6279167  
H   -6.4653747   -0.0017365   -0.0343859  
H   -3.9810062   -0.0015046   -4.8246018  
C    0.0000000    0.0000000    0.0000000  
C    1.0662919   -0.0000103   -0.8334269  
C    0.4961869    0.0000064   -2.1718889  
C   -0.9663859   -0.0000850   -1.9540246  
N   -1.2632774   -0.0000084   -0.6828657  
C   -1.8985363   -0.0000518   -3.0477257  
C   -1.3925778    0.0004564   -4.3020545  
O   -2.1456384    0.0005409   -5.4151311  
C    0.0786230    0.0009323   -4.5544998  
O    0.4683758    0.0012588   -5.7221098  
C    1.0143164    0.0008442   -3.4159030  
H    2.1107195    0.0000633   -0.5721867  
H   -1.5042275    0.0009691   -6.1484418  
H    2.0724152    0.0013148   -3.6409744  
C    1.1243417   -0.0099156    2.2619005  
C    0.7474090   -0.0234034    3.5848544  
C   -0.6787367   -0.0234952    3.6114698  
C   -1.1201739   -0.0099357    2.2635546  
N    0.0000000    0.0000000    1.4700000  
C   -2.4730812   -0.0065396    1.9108239  
C   -3.3971947   -0.0173298    2.9375057  
O   -4.7313508   -0.0149487    2.6493466  
C   -2.9763630   -0.0305536    4.2886322  
O   -4.0166453   -0.0397858    5.1947621  
C   -1.6418541   -0.0336380    4.6373480  
H    1.4178735   -0.0310004    4.4271209  
H   -2.8160170    0.0039190    0.8854031  
H   -5.1938803   -0.0234410    3.4974381  
H   -3.6464643   -0.0484781    6.0827341  
H   -1.3497443   -0.0436789    5.6809233  
H    2.1062470   -0.0051382    1.8205408  
