62

C   10.3070312   -2.1267815    2.6257404  
C   11.4966954   -1.6298661    2.1459039  
C   11.1770300   -0.7552494    1.0654138  
C    9.7649585   -0.7581850    0.9313510  
N    9.2680195   -1.6027009    1.8928408  
C    9.0957054   -0.0045218   -0.0376080  
C    9.8659437    0.7663793   -0.8865032  
O    9.2637367    1.5219243   -1.8506152  
C   11.2761523    0.7822413   -0.7687022  
O   11.9015425    1.5993638   -1.6876916  
C   11.9370746    0.0387752    0.1867899  
H   12.4746851   -1.8692690    2.5269774  
H    8.2953634   -1.7975622    2.0476015  
H    9.9728842    1.9750149   -2.3250458  
H   12.8510178    1.5527269   -1.5396172  
H   13.0183173    0.0709677    0.2528105  
H   10.1175352   -2.8146864    3.4318638  
C    6.7235409   -0.0015093    0.8630514  
C    5.4473221   -0.0011276    0.3990037  
C    5.5236520   -0.0015785   -1.0428731  
C    6.9592466   -0.0022884   -1.3832521  
N    7.6329842   -0.0018116   -0.1836825  
C    7.4493968   -0.0032608   -2.6487388  
C    6.4996350   -0.0034067   -3.7489603  
O    6.8417408   -0.0041914   -4.9242316  
C    4.9744857   -0.0024120   -3.4117302  
O    4.1654301   -0.0022186   -4.3297117  
C    4.5679461   -0.0016854   -2.0086701  
H    4.5543636   -0.0004091    0.9983692  
H    8.5062544   -0.0038994   -2.8766905  
H    7.0761901   -0.0013786    1.8816429  
C    3.1301149   -0.0010311   -1.7028252  
C    2.5367768   -0.0002767   -0.4864665  
C    1.1089904    0.0001028   -0.7656183  
C    1.0177872   -0.0004148   -2.2415132  
N    2.1993578   -0.0011611   -2.7963820  
C   -0.2459209   -0.0002877   -2.9257118  
C   -1.3675319   -0.0000605   -2.1698524  
O   -2.6129313    0.0000867   -2.6748490  
C   -1.3083584    0.0000910   -0.6783232  
O   -2.3693261    0.0004206   -0.0541692  
C    0.0000000    0.0000000    0.0000000  
H    3.0096017   -0.0001007    0.4807525  
H   -0.2829630   -0.0004687   -4.0053125  
H   -3.1967441    0.0002094   -1.8949034  
C    2.5311839    2.1237619    3.0120429  
C    1.9795631    1.6616747    1.8395852  
C    0.9223175    0.7739173    2.1983588  
C    0.8753926    0.7337535    3.6154372  
N    1.8668922    1.5631002    4.0777464  
C   -0.0496243   -0.0427881    4.3197917  
C   -0.9437528   -0.7922060    3.5801400  
O   -1.8685244   -1.5680278    4.2172520  
C   -0.9124520   -0.7656372    2.1655264  
O   -1.8671164   -1.5663939    1.5732860  
C    0.0000000    0.0000000    1.4700000  
H    2.3005065    1.9304404    0.8477417  
H    2.0679347    1.7444845    5.0445261  
H   -0.0904770   -0.0778569    5.3997470  
H   -2.3849669   -2.0011402    3.5251786  
H   -1.7775064   -1.4909735    0.6183591  
H    3.3468514    2.8078103    3.1724291  
