62

C    2.9486379   -5.2429307   -8.3555604  
C    2.3295773   -4.3285047   -7.5351596  
C    2.3957836   -3.0655209   -8.1947713  
C    3.0720451   -3.2730090   -9.4242195  
N    3.3955226   -4.6055786   -9.4893270  
C    3.3173567   -2.2417295  -10.3358520  
C    2.8716019   -0.9780271  -10.0003865  
O    3.0843287    0.0652272  -10.8544257  
C    2.1952507   -0.7509758   -8.7781699  
O    1.8145254    0.5615143   -8.5890643  
C    1.9531374   -1.7678357   -7.8782235  
H    1.8859356   -4.5449098   -6.5784238  
H    3.8721623   -5.0504528  -10.2527923  
H    3.8323394   -2.3933072  -11.2744785  
H    2.6998341    0.8452539  -10.4337268  
H    1.3648403    0.6286098   -7.7411937  
H    3.1080310   -6.2990811   -8.2210293  
C    1.5640652   -2.0395933   -5.3856080  
C    0.7230586   -1.5862625   -4.4205828  
C   -0.2043665   -0.6833979   -5.0605465  
C    0.1679202   -0.6476539   -6.4877519  
N    1.2472258   -1.4907312   -6.6189378  
C   -0.4698109    0.0915039   -7.4304340  
C   -1.5980274    0.9063962   -7.0113716  
O   -2.2374224    1.6070669   -7.7850212  
C   -2.0096058    0.8840406   -5.5047499  
O   -2.9576826    1.5662686   -5.1400907  
C   -1.2456329    0.0471727   -4.5828766  
H    0.7494881   -1.8536711   -3.3792335  
H   -0.1807617    0.1034049   -8.4721726  
H    2.3887876   -2.7282964   -5.2995223  
C    1.1243410    0.0099923   -0.7919003  
C    0.7474076    0.0234544   -2.1148543  
C   -0.6787381    0.0234490   -2.1414700  
C   -1.1201745    0.0098592   -0.7935546  
N    0.0000000    0.0000000    0.0000000  
C   -2.4730816    0.0063709   -0.4408240  
C   -3.3971958    0.0170982   -1.4675058  
O   -4.7313517    0.0146259   -1.1793471  
C   -2.9763648    0.0303504   -2.8186324  
O   -4.0166480    0.0395118   -3.7247624  
C   -1.6418562    0.0335260   -3.1673481  
H    1.4178717    0.0310972   -2.9571209  
H   -2.8160166   -0.0041111    0.5845966  
H   -5.1938818    0.0230867   -2.0274384  
H   -3.6464675    0.0482293   -4.6127343  
H    2.1062467    0.0052819   -0.3505407  
C    0.0000000    0.0000000    1.4700000  
C    1.0662921    0.0000102    2.3034270  
C    0.4961870   -0.0000064    3.6418889  
C   -0.9663858    0.0000850    3.4240247  
N   -1.2632773    0.0000084    2.1528658  
C   -1.8985362    0.0000517    4.5177257  
C   -1.3925775   -0.0004564    5.7720543  
O   -2.1456383   -0.0005410    6.8851312  
C    0.0786232   -0.0009323    6.0245000  
O    0.4683759   -0.0012588    7.1921102  
C    1.0143166   -0.0008442    4.8859032  
H    2.1107198   -0.0000632    2.0421868  
H   -2.9622183    0.0003270    4.3293377  
H   -1.5042274   -0.0009692    7.6184419  
H    2.0724152   -0.0013148    5.1109744  
