64

C    4.0959357    0.7123019   -7.7803675  
C    4.0775730    0.4631794   -9.1331674  
C    5.1429925   -0.4458484   -9.4036279  
C    5.7817217   -0.7183065   -8.1668098  
N    5.1222191    0.0024085   -7.2023174  
C    6.8783467   -1.5784017   -8.0552852  
C    7.3383735   -2.1745442   -9.2133731  
O    8.4059731   -3.0233957   -9.1614579  
C    6.7146217   -1.9149567  -10.4569025  
O    7.2895993   -2.5840800  -11.5175718  
C    5.6329014   -1.0663529  -10.5677099  
H    3.3825400    0.8856282   -9.8384757  
H    7.3696909   -1.7900974   -7.1156213  
H    8.5602411   -3.3237708  -10.0665778  
H    6.8093427   -2.3538155  -12.3187812  
H    5.1759768   -0.8867098  -11.5338503  
H    3.4590586    1.3413173   -7.1822986  
C    2.5562217   -0.0001551   -3.6003001  
C    3.5655128   -0.0017025   -2.6655294  
C    4.7980128   -0.0018122   -3.3835434  
C    4.4750737    0.0000059   -4.7647141  
N    3.1056446   -0.0009746   -4.8610468  
C    5.4479449    0.0007222   -5.7688602  
C    6.7709215   -0.0001109   -5.3714836  
O    7.7613129    0.0008838   -6.3107055  
C    7.1131347   -0.0023000   -3.9982744  
O    8.4727603   -0.0033100   -3.7642599  
C    6.1538986   -0.0032805   -3.0071182  
H    3.4300846   -0.0037426   -1.5975180  
H    2.5841971    0.0104552   -5.7189186  
H    8.5970863   -0.0002467   -5.8261986  
H    8.6176763   -0.0047535   -2.8131546  
H    6.4463530   -0.0051417   -1.9635927  
C    0.0000000    0.0000000    0.0000000  
C    1.0541688   -0.0001722   -0.8560390  
C    0.5103141   -0.0000453   -2.1935955  
C   -0.9576367    0.0002460   -2.0455731  
N   -1.2018459   -0.0001392   -0.6915969  
C   -1.8348307    0.0008318   -3.0810611  
C   -1.2972843    0.0009738   -4.4314606  
O   -2.0050665    0.0014267   -5.4301321  
C    0.2542628    0.0004186   -4.6117570  
O    0.7184676    0.0002258   -5.7439117  
C    1.0974555    0.0000874   -3.4189127  
H    2.0940752   -0.0005483   -0.5817978  
H   -2.9081051    0.0011670   -2.9507061  
H   -2.1128194    0.0014912   -0.2706792  
C    0.0000000    0.0000000    1.4700000  
C    1.0521667    0.0011902    2.3562342  
C    0.4917218    0.0011957    3.6679131  
C   -0.9187428   -0.0003148    3.5178682  
N   -1.1833171    0.0009411    2.1707914  
C   -1.7951701   -0.0010350    4.6072090  
C   -1.2375837   -0.0005224    5.8710424  
O   -2.0474215   -0.0015360    6.9697579  
C    0.1673580    0.0013566    6.0411963  
O    0.5673524    0.0020687    7.3615553  
C    1.0325770    0.0023412    4.9669890  
H    2.0953057    0.0030649    2.0900562  
H   -2.0989778   -0.0102372    1.7591824  
H   -2.8710934   -0.0020419    4.4995513  
H   -1.4634884   -0.0006497    7.7393593  
H    1.5290710    0.0033153    7.3880045  
H    2.1042148    0.0039609    5.1284455  
