66

C   -4.7630504   -0.0022798   -1.3275397  
C   -5.7496376   -0.0047933   -2.2862402  
C   -6.9989987   -0.0047031   -1.5979844  
C   -6.7092695   -0.0017732   -0.2094693  
N   -5.3425441   -0.0023123   -0.0803285  
C   -7.7059382   -0.0005748    0.7710608  
C   -9.0190067   -0.0020599    0.3420777  
O  -10.0316328   -0.0006360    1.2572822  
C   -9.3281945   -0.0053599   -1.0389398  
O  -10.6818172   -0.0069109   -1.3054859  
C   -8.3454685   -0.0068169   -2.0068102  
H   -5.5886396   -0.0075890   -3.3506951  
H   -4.8418190    0.0098947    0.7897903  
H  -10.8555480   -0.0023516    0.7528761  
H  -10.8038876   -0.0090994   -2.2597906  
H   -8.6128179   -0.0095313   -3.0570459  
C   -3.3003544   -0.0017778   -1.4738983  
C   -2.5232812   -0.0013056   -2.6090745  
C   -1.1623201   -0.0003085   -2.1820101  
C   -1.1711884   -0.0005020   -0.7636141  
N   -2.4852304    0.0005505   -0.3662357  
C    0.0000000    0.0000000    0.0000000  
C    1.2020381    0.0004033   -0.6806480  
O    2.3759247    0.0005506    0.0157743  
C    1.2314653    0.0009776   -2.0955511  
O    2.5054377    0.0017526   -2.6250183  
C    0.0764514    0.0007561   -2.8495196  
H   -2.8919959   -0.0005337   -3.6205296  
H   -2.8036229   -0.0098801    0.5858666  
H    3.0835639    0.0011332   -0.6418822  
H    2.4360034    0.0020753   -3.5845927  
H    0.1304080    0.0013913   -3.9319088  
C   -7.4146766    0.0022629    2.2119143  
C   -6.2077750    0.0053592    2.8721004  
C   -6.4972163    0.0077928    4.2688172  
C   -7.9094455    0.0057308    4.4012165  
N   -8.4356808    0.0043371    3.1332687  
C   -8.5526579    0.0069508    5.6426132  
C   -7.7557139    0.0100066    6.7709077  
O   -8.3317985    0.0109636    8.0082999  
C   -6.3449137    0.0124749    6.6593125  
O   -5.6912379    0.0158101    7.8742364  
C   -5.7096892    0.0115464    5.4349696  
H   -5.2380575    0.0069137    2.4045110  
H   -9.4147366   -0.0078057    2.9112688  
H   -9.6285803    0.0055363    5.7502728  
H   -7.6069565    0.0134440    8.6469411  
H   -4.7433463    0.0172863    7.7096060  
H   -4.6273076    0.0136768    5.3808899  
C    0.8576279    0.7185626    2.2703808  
C    0.0000000    0.0000000    1.4700000  
C   -0.8668858   -0.7285659    2.3373528  
C   -0.4876752   -0.4117774    3.6669281  
N    0.5635254    0.4678311    3.5902241  
C   -1.1297612   -0.9515493    4.7854808  
C   -2.1738724   -1.8268314    4.5576857  
O   -2.8357962   -2.3827064    5.6140350  
C   -2.5667212   -2.1555554    3.2384331  
O   -3.6226318   -3.0413663    3.1773122  
C   -1.9335634   -1.6236449    2.1344818  
H    1.0363952    0.8769718    4.3757045  
H   -0.8454472   -0.7142436    5.8013813  
H   -3.5178062   -2.9546422    5.2385129  
H   -3.8247440   -3.2102924    2.2519915  
H   -2.2566033   -1.8942483    1.1360343  
H    1.6567807    1.3889844    2.0042067  
