62

C    2.1092387   -3.0810206   -8.9859020  
C    2.3253936   -2.9770400  -10.3404979  
C    2.1020080   -1.6133981  -10.6943059  
C    1.7495309   -0.9269780   -9.5041325  
N    1.7615142   -1.8478837   -8.4860921  
C    1.4589422    0.4403688   -9.4774803  
C    1.5256838    1.1273538  -10.6740482  
O    1.2519495    2.4641898  -10.7049036  
C    1.8751705    0.4600121  -11.8721005  
O    1.8977522    1.2819268  -12.9799320  
C    2.1617067   -0.8889467  -11.8991835  
H    2.6081019   -3.7849107  -10.9935026  
H    1.1895170    0.9693597   -8.5737213  
H    1.3549334    2.7428379  -11.6241501  
H    2.1424554    0.7534973  -13.7457555  
H    2.4261918   -1.3728117  -12.8321367  
H    2.1741984   -3.9375321   -8.3369591  
C    2.1451926   -2.0951771   -5.9900948  
C    1.6340471   -1.6323753   -4.8202147  
C    0.5538823   -0.7357923   -5.1581773  
C    0.4770632   -0.7140558   -6.6314107  
N    1.4686355   -1.5584201   -7.0749457  
C   -0.4180300    0.0158494   -7.3439773  
C   -1.3690899    0.8348540   -6.6110028  
O   -2.2145431    1.5279312   -7.1615954  
C   -1.3057475    0.8272853   -5.0503184  
O   -2.1011642    1.5130918   -4.4224310  
C   -0.2963293   -0.0005341   -4.3948471  
H    1.9749143   -1.8895633   -3.8331594  
H   -0.4575588    0.0175261   -8.4244138  
H    2.9593495   -2.7830349   -6.1509984  
C    3.1301146   -0.0010313   -1.7028256  
C    2.5367765   -0.0002766   -0.4864669  
C    1.1089901    0.0001027   -0.7656184  
C    1.0177865   -0.0004150   -2.2415133  
N    2.1993571   -0.0011612   -2.7963824  
C   -0.2459219   -0.0002879   -2.9257116  
C   -1.3675326   -0.0000606   -2.1698520  
O   -2.6129318    0.0000865   -2.6748483  
C   -1.3083588    0.0000910   -0.6783229  
O   -2.3693264    0.0004206   -0.0541685  
C    0.0000000    0.0000000    0.0000000  
H    3.0096016   -0.0001007    0.4807518  
H   -3.1967444    0.0002093   -1.8949026  
H    4.1849275   -0.0015114   -1.9271979  
C    2.5311839    2.1237619    3.0120429  
C    1.9795631    1.6616747    1.8395852  
C    0.9223175    0.7739173    2.1983588  
C    0.8753926    0.7337535    3.6154372  
N    1.8668922    1.5631002    4.0777464  
C   -0.0496243   -0.0427881    4.3197917  
C   -0.9437528   -0.7922060    3.5801400  
O   -1.8685244   -1.5680278    4.2172520  
C   -0.9124520   -0.7656372    2.1655264  
O   -1.8671164   -1.5663939    1.5732860  
C    0.0000000    0.0000000    1.4700000  
H    2.3005065    1.9304404    0.8477417  
H    2.0679347    1.7444845    5.0445261  
H   -0.0904770   -0.0778569    5.3997470  
H   -2.3849669   -2.0011402    3.5251786  
H   -1.7775064   -1.4909735    0.6183591  
H    3.3468514    2.8078103    3.1724291  
