62

C    0.7314592   -0.3781657   -9.6766326  
C    0.1978785    0.8375520   -9.3163689  
C    0.6438679    1.7899928  -10.2799814  
C    1.4530576    1.0912918  -11.2121601  
N    1.4868493   -0.2224633  -10.8152684  
C    2.0629533    1.7178606  -12.3031351  
C    1.8518889    3.0744192  -12.4560363  
O    2.4234954    3.7359594  -13.5041988  
C    1.0480418    3.7890174  -11.5362579  
O    0.9343111    5.1333157  -11.8248288  
C    0.4462746    3.1715930  -10.4596012  
H    1.9755374   -0.9597962  -11.2901431  
H    2.6809473    1.1910060  -13.0170759  
H    2.1526609    4.6598308  -13.4243584  
H    0.3758857    5.5417233  -11.1562708  
H   -0.1638574    3.7451028   -9.7716311  
H    0.6341346   -1.3437510   -9.2106587  
C    0.2868086   -0.7145917   -5.1244006  
C    0.5709437   -0.4618085   -6.4464575  
C   -0.4158488    0.4546237   -6.9165559  
C   -1.2827316    0.7276168   -5.8275581  
N   -0.8287665    0.0000939   -4.7555305  
C   -2.3751512    1.5942451   -5.9293602  
C   -2.5963110    2.1964905   -7.1527026  
O   -3.6486642    3.0518607   -7.3073262  
C   -1.7427299    1.9364809   -8.2511614  
O   -2.0952730    2.6121525   -9.4011725  
C   -0.6650032    1.0814348   -8.1515273  
H    1.3881891   -0.8866264   -7.0038020  
H   -3.0396891    1.8063847   -5.1031715  
H   -3.6211411    3.3557246   -8.2239360  
H   -1.4688055    2.3811273  -10.0938263  
H    0.7908055   -1.3492512   -4.4157725  
C    1.0672569   -0.0000698   -0.8321910  
C    0.0000000    0.0000000    0.0000000  
C   -1.1601223   -0.0000736   -0.8778472  
C   -0.5938729   -0.0000768   -2.2438435  
N    0.7113367   -0.0001553   -2.2234123  
C   -1.4286985   -0.0001877   -3.4135239  
C   -2.7683113   -0.0006798   -3.2270524  
O   -3.6653902   -0.0008302   -4.2276970  
C   -3.3702024   -0.0010610   -1.8610774  
O   -4.5974910   -0.0013779   -1.7662963  
C   -2.4926825   -0.0008943   -0.6770658  
H   -4.5324245   -0.0012258   -3.7833954  
H   -2.9677772   -0.0012974    0.2947961  
H    2.1134391   -0.0000547   -0.5705119  
C    0.8400945    0.7047457    2.2710304  
C    0.0000000    0.0000000    1.4700000  
C   -0.8844236   -0.7423113    2.3369512  
C   -0.4878984   -0.4098547    3.7186280  
N    0.5629682    0.4714286    3.6095011  
C   -1.0836927   -0.9095027    4.8308716  
C   -2.1891196   -1.8367527    4.6554461  
O   -2.7906899   -2.3413415    5.5944904  
C   -2.6257283   -2.2031529    3.2011665  
O   -3.5549479   -2.9829990    3.0410059  
C   -1.9068976   -1.5999348    2.0816745  
H   -0.7774656   -0.6525820    5.8354244  
H   -2.2155208   -1.8586617    1.0779135  
H    1.6384792    1.3747609    1.9961646  
H    1.0518368    0.8833920    4.3830260  
