62

C    4.7927427   -4.2351342   -3.1669864  
C    5.5502892   -4.8980446   -4.1046115  
C    5.0527121   -4.5179524   -5.3862304  
C    3.9826432   -3.6133748   -5.1657380  
N    3.8501812   -3.4651920   -3.8073882  
C    3.2554991   -3.0332430   -6.2095279  
C    3.6153324   -3.3722219   -7.4994079  
O    2.9388211   -2.8344814   -8.5559026  
C    4.6798843   -4.2732259   -7.7396943  
O    4.9160735   -4.5102887   -9.0781106  
C    5.3974903   -4.8461294   -6.7104482  
H    6.3609973   -5.5734351   -3.8910828  
H    3.1785455   -2.8749726   -3.3507397  
H    3.3445169   -3.1982784   -9.3536039  
H    5.6495393   -5.1284059   -9.1527035  
H    6.2077091   -5.5330374   -6.9253477  
H    4.8492660   -4.2517182   -2.0920501  
C    2.1451924   -2.0951770   -5.9900948  
C    1.6340467   -1.6323750   -4.8202142  
C    0.5538821   -0.7357921   -5.1581773  
C    0.4770628   -0.7140554   -6.6314112  
N    1.4686352   -1.5584198   -7.0749457  
C   -0.4180301    0.0158497   -7.3439768  
C   -1.3690899    0.8348541   -6.6110023  
O   -2.2145433    1.5279317   -7.1615950  
C   -1.3057475    0.8272853   -5.0503179  
O   -2.1011642    1.5130918   -4.4224305  
C   -0.2963293   -0.0005341   -4.3948471  
H    1.9749144   -1.8895632   -3.8331597  
H   -0.4575591    0.0175268   -8.4244137  
H    1.6685731   -1.7560263   -8.0382859  
C    3.1301146   -0.0010313   -1.7028256  
C    2.5367765   -0.0002766   -0.4864669  
C    1.1089901    0.0001027   -0.7656184  
C    1.0177865   -0.0004150   -2.2415133  
N    2.1993571   -0.0011612   -2.7963824  
C   -0.2459219   -0.0002879   -2.9257116  
C   -1.3675326   -0.0000606   -2.1698520  
O   -2.6129318    0.0000865   -2.6748483  
C   -1.3083588    0.0000910   -0.6783229  
O   -2.3693264    0.0004206   -0.0541685  
C    0.0000000    0.0000000    0.0000000  
H    3.0096016   -0.0001007    0.4807518  
H   -3.1967444    0.0002093   -1.8949026  
H    4.1849275   -0.0015114   -1.9271979  
C    0.8576279    0.7185626    2.2703808  
C    0.0000000    0.0000000    1.4700000  
C   -0.8668858   -0.7285659    2.3373528  
C   -0.4876752   -0.4117774    3.6669281  
N    0.5635254    0.4678311    3.5902241  
C   -1.1297612   -0.9515493    4.7854808  
C   -2.1738724   -1.8268314    4.5576857  
O   -2.8357962   -2.3827064    5.6140350  
C   -2.5667212   -2.1555554    3.2384331  
O   -3.6226318   -3.0413663    3.1773122  
C   -1.9335634   -1.6236449    2.1344818  
H    1.0363952    0.8769718    4.3757045  
H   -0.8454472   -0.7142436    5.8013813  
H   -3.5178062   -2.9546422    5.2385129  
H   -3.8247440   -3.2102924    2.2519915  
H   -2.2566033   -1.8942483    1.1360343  
H    1.6567807    1.3889844    2.0042067  
