62

C    7.8739229   -3.7060040   -4.3951156  
C    6.8375781   -3.0723533   -3.7494031  
C    6.8764849   -3.4930994   -2.3870307  
C    7.9673277   -4.3907404   -2.2596377  
N    8.5501336   -4.4991199   -3.4978658  
C    8.3050948   -5.0035322   -1.0491881  
C    7.5276828   -4.7044820    0.0527999  
O    7.8135126   -5.2747228    1.2595065  
C    6.4349358   -3.8116023   -0.0543767  
O    5.7581145   -3.6165274    1.1318787  
C    6.1009769   -3.2069125   -1.2482558  
H    9.3547874   -5.0594831   -3.7135180  
H    9.1351631   -5.6886924   -0.9455389  
H    7.1583842   -4.9361146    1.8835389  
H    5.0360023   -3.0011222    0.9723976  
H    5.2582538   -2.5274683   -1.2997499  
H    8.1833693   -3.6560688   -5.4250221  
C    5.8833907   -2.1427750   -4.3709425  
C    5.8356977   -1.7363030   -5.6609364  
C    4.7031562   -0.8254383   -5.7255541  
C    4.1678915   -0.7979256   -4.3473967  
N    4.8557055   -1.5681390   -3.5488531  
C    3.0267438   -0.0008951   -3.9901699  
C    2.4469276    0.7354874   -4.9653053  
O    1.3760856    1.5245628   -4.7737363  
C    2.9639691    0.7291619   -6.3655869  
O    2.3865728    1.4237052   -7.2019144  
C    4.1358648   -0.0967014   -6.7069582  
H    6.4884966   -2.0195253   -6.4688448  
H    1.1970815    1.9160964   -5.6476995  
H    4.4795595   -0.0736381   -7.7324194  
C    3.3003547    0.0005277   -1.4738986  
C    2.5232816    0.0003497   -2.6090746  
C    1.1623203   -0.0001319   -2.1820102  
C    1.1711884    0.0000584   -0.7636141  
N    2.4852301   -0.0014919   -0.3662359  
C    0.0000000    0.0000000    0.0000000  
C   -1.2020383    0.0000520   -0.6806479  
O   -2.3759248    0.0003493    0.0157745  
C   -1.2314655   -0.0005115   -2.0955511  
O   -2.5054388   -0.0008040   -2.6250184  
C   -0.0764513   -0.0007274   -2.8495195  
H    2.8036266    0.0088183    0.5858662  
H   -3.0835639    0.0000346   -0.6418822  
H   -2.4360043   -0.0011529   -3.5845924  
H   -0.1304091   -0.0013423   -3.9319089  
H    4.3715553    0.0004897   -1.3667133  
C    2.3971438    2.0127888    3.1728260  
C    1.9431056    1.6308205    1.9564670  
C    0.8496017    0.7127664    2.2356185  
C    0.7794028    0.6545384    3.7115134  
N    1.6840587    1.4146091    4.2663826  
C   -0.1885723   -0.1578550    4.3957118  
C   -1.0476298   -0.8789867    3.6398520  
O   -2.0015663   -1.6796266    4.1448486  
C   -1.0022026   -0.8410666    2.1483229  
O   -1.8147390   -1.5232959    1.5241687  
C    0.0000000    0.0000000    1.4700000  
H    2.3054237    1.9346118    0.9892483  
H   -0.2170646   -0.1815267    5.4753125  
H   -2.4487139   -2.0549881    3.3649027  
H    3.2048689    2.6911772    3.3971983  
