62

C    3.6725646    0.5509951   -8.7250565  
C    4.7561486   -0.2895463   -8.8337013  
C    5.1638111   -0.2687837  -10.2004420  
C    4.2844996    0.6097573  -10.8837453  
N    3.3901144    1.0887137   -9.9589244  
C    4.3911700    0.8727548  -12.2527750  
C    5.4041373    0.2375296  -12.9445564  
O    5.5538095    0.4587822  -14.2830854  
C    6.2912083   -0.6428064  -12.2805307  
O    7.2461856   -1.1976766  -13.1072596  
C    6.1863986   -0.9029378  -10.9300219  
H    5.1976834   -0.8496993   -8.0273081  
H    2.6519748    1.7419879  -10.1496171  
H    3.7240842    1.5411823  -12.7794674  
H    6.3084579   -0.0742840  -14.5652426  
H    7.8037076   -1.7787349  -12.5808144  
H    6.8804014   -1.5821402  -10.4488540  
C    3.9135205   -0.7081243   -4.5250692  
C    2.8699641   -0.0020530   -4.0185824  
C    2.2916403    0.7390434   -5.1145539  
C    3.0895150    0.4044294   -6.3096353  
N    4.0568594   -0.4768162   -5.8847343  
C    2.8606219    0.9024529   -7.5511206  
C    1.7547625    1.8301060   -7.7216206  
O    1.4676787    2.3333354   -8.7998801  
C    0.8966369    2.1987791   -6.4696201  
O   -0.0368091    2.9789835   -6.6008463  
C    1.2404687    1.5971817   -5.1836524  
H    0.6412575    1.8574784   -4.3217272  
H    4.5900516   -1.3778176   -4.0193954  
H    4.7576403   -0.8900200   -6.4722854  
C    3.2573670   -0.0002921   -1.5109382  
C    2.5379468   -0.0001711   -0.3591962  
C    1.1435043    0.0000330   -0.7338498  
C    1.1092608   -0.0000085   -2.2088474  
N    2.4227562    0.0001906   -2.6182610  
C   -0.0265533   -0.0002525   -2.9515663  
C   -1.3003033   -0.0002641   -2.2514979  
O   -2.3786785   -0.0004132   -2.8306425  
C   -1.2877724    0.0000310   -0.6895608  
O   -2.3539956    0.0003306   -0.0892035  
C    0.0000000    0.0000000    0.0000000  
H    2.9384091   -0.0000370    0.6389240  
H   -0.0296290   -0.0004088   -4.0327231  
H    4.3270394   -0.0004767   -1.6439445  
C    2.5311839    2.1237619    3.0120429  
C    1.9795631    1.6616747    1.8395852  
C    0.9223175    0.7739173    2.1983588  
C    0.8753926    0.7337535    3.6154372  
N    1.8668922    1.5631002    4.0777464  
C   -0.0496243   -0.0427881    4.3197917  
C   -0.9437528   -0.7922060    3.5801400  
O   -1.8685244   -1.5680278    4.2172520  
C   -0.9124520   -0.7656372    2.1655264  
O   -1.8671164   -1.5663939    1.5732860  
C    0.0000000    0.0000000    1.4700000  
H    2.3005065    1.9304404    0.8477417  
H    2.0679347    1.7444845    5.0445261  
H   -0.0904770   -0.0778569    5.3997470  
H   -2.3849669   -2.0011402    3.5251786  
H   -1.7775064   -1.4909735    0.6183591  
H    3.3468514    2.8078103    3.1724291  
