60

C    7.6223860   -0.6932048   -4.5098276  
C    8.9869932   -0.6475507   -4.3418089  
C    9.3915033    0.6986797   -4.5839553  
C    8.2205306    1.4350809   -4.8977411  
N    7.1645721    0.5593762   -4.8456778  
C    8.2429674    2.8013456   -5.1937236  
C    9.4698065    3.4358401   -5.1722580  
O    9.5489324    4.7691765   -5.4532682  
C   10.6493688    2.7181473   -4.8618284  
O   11.7919029    3.4911608   -4.8820255  
C   10.6280159    1.3702208   -4.5699984  
H    9.6139110   -1.4821452   -4.0783313  
H    7.3540620    3.3682764   -5.4338042  
H   10.4824550    5.0079046   -5.3839139  
H   12.5422423    2.9307112   -4.6618169  
H   11.5478517    0.8470873   -4.3360936  
H    6.9396083   -1.5204614   -4.4180719  
C    3.4546603   -0.7051940   -2.8655879  
C    2.5562217   -0.0001543   -3.6003001  
C    3.3075553    0.7421849   -4.5848131  
C    4.7275393    0.4094242   -4.3618644  
N    4.7487509   -0.4720442   -3.3057142  
C    5.7578599    0.9090037   -5.0902629  
C    5.4475471    1.8364959   -6.1654369  
O    6.3052803    2.3410463   -6.8781952  
C    3.9505757    2.2032202   -6.4191985  
O    3.6771258    2.9832721   -7.3214208  
C    2.9282239    1.6000479   -5.5678277  
H    1.8941006    1.8589998   -5.7501908  
H    3.2802844   -1.3753180   -2.0395027  
H    5.5766095   -0.8842294   -2.9160992  
C    0.0000000    0.0000000    0.0000000  
C    1.0541688   -0.0001719   -0.8560391  
C    0.5103141   -0.0000449   -2.1935955  
C   -0.9576367    0.0002461   -2.0455733  
N   -1.2018459   -0.0001392   -0.6915970  
C   -1.8348306    0.0008319   -3.0810611  
C   -1.2972842    0.0009739   -4.4314605  
O   -2.0050664    0.0014267   -5.4301321  
C    0.2542628    0.0004190   -4.6117571  
O    0.7184677    0.0002263   -5.7439119  
C    1.0974556    0.0000880   -3.4189127  
H    2.0940752   -0.0005479   -0.5817978  
H   -2.9081050    0.0011669   -2.9507065  
H   -2.1128195    0.0014911   -0.2706793  
C    1.1319247   -0.0015655    2.2709268  
C    0.7969915   -0.0034943    3.5869401  
C   -0.6453339   -0.0035710    3.6542670  
C   -1.1266833   -0.0015433    2.2596025  
N    0.0000000    0.0000000    1.4700000  
C   -2.4346130   -0.0013964    1.8976294  
C   -3.4350110   -0.0031408    2.9520183  
O   -4.6384611   -0.0030974    2.7283916  
C   -2.9478959   -0.0050506    4.4361073  
O   -3.7809380   -0.0062218    5.3323774  
C   -1.5113823   -0.0053090    4.7012123  
H    1.4821238   -0.0045407    4.4159191  
H   -2.7664565   -0.0000232    0.8686553  
H   -1.1823530   -0.0068408    5.7314848  
H    2.1104316   -0.0009391    1.8188057  
