64

C   -0.1387077    0.0017021   -4.3179690  
C    0.8680295    0.0011955   -5.2554908  
C    0.2429722    0.0018233   -6.5376383  
C   -1.1582725    0.0029979   -6.3175531  
N   -1.3554488    0.0009415   -4.9589754  
C   -2.0878500    0.0041707   -7.3619062  
C   -1.5938803    0.0044645   -8.6519339  
O   -2.4574176    0.0059478   -9.7089647  
C   -0.1991525    0.0029316   -8.8918279  
O    0.1346063    0.0030294  -10.2304648  
C    0.7184771    0.0015010   -7.8620321  
H    1.9231277   -0.0006417   -5.0415808  
H   -2.2494818    0.0117259   -4.5022808  
H   -1.9125267    0.0055962  -10.5066862  
H    1.0938155    0.0019694  -10.3047653  
H    1.7807474    0.0001630   -8.0766450  
C    3.3041276    0.0001179   -1.5420426  
C    2.5845371   -0.0004779   -0.3695857  
C    1.2040009   -0.0000006   -0.7283589  
C    1.1422378    0.0006039   -2.1454371  
N    2.4348645    0.0026112   -2.6077465  
C   -0.0655179    0.0008800   -2.8497922  
C   -1.2321765    0.0002327   -2.1101402  
O   -2.4392813    0.0001149   -2.7472526  
C   -1.1911209   -0.0000006   -0.6955274  
O   -2.4371527   -0.0002319   -0.1032865  
C    0.0000000    0.0000000    0.0000000  
H    3.0031534   -0.0000661    0.6222584  
H    2.7054636   -0.0071095   -3.5745261  
H   -3.1132983   -0.0000647   -2.0551788  
H   -2.3200284   -0.0004071    0.8516403  
H    4.3686627    0.0004072   -1.7024293  
C   -3.5414443    0.0051964   -7.1429023  
C   -4.2610332    0.0063776   -5.9704445  
C   -5.6415696    0.0076324   -6.3292177  
C   -5.7033336    0.0068582   -7.7462956  
N   -4.4107066    0.0073320   -8.2086069  
C   -6.9110897    0.0074207   -8.4506500  
C   -8.0777472    0.0084826   -7.7109971  
O   -9.2848529    0.0087185   -8.3481087  
C   -8.0366900    0.0096427   -6.2963842  
O   -9.2827206    0.0110375   -5.7041435  
C   -6.8455685    0.0093619   -5.6008585  
H   -3.8424154    0.0074446   -4.9786016  
H   -4.1401170   -0.0035876   -9.1753766  
H   -6.9649271    0.0069802   -9.5306050  
H   -9.9588685    0.0097936   -7.6560344  
H   -9.1655950    0.0117292   -4.7492169  
H   -6.8455673    0.0104553   -4.5171252  
C    0.8400945    0.7047457    2.2710304  
C    0.0000000    0.0000000    1.4700000  
C   -0.8844236   -0.7423113    2.3369512  
C   -0.4878984   -0.4098547    3.7186280  
N    0.5629682    0.4714286    3.6095011  
C   -1.0836927   -0.9095027    4.8308716  
C   -2.1891196   -1.8367527    4.6554461  
O   -2.7906899   -2.3413415    5.5944904  
C   -2.6257283   -2.2031529    3.2011665  
O   -3.5549479   -2.9829990    3.0410059  
C   -1.9068976   -1.5999348    2.0816745  
H   -0.7774656   -0.6525820    5.8354244  
H   -2.2155208   -1.8586617    1.0779135  
H    1.6384792    1.3747609    1.9961646  
H    1.0518368    0.8833920    4.3830260  
