62

C   -0.1685664    0.0961885   -8.7127348  
C    0.5689844   -0.5520184   -9.6762254  
C    0.0459866   -0.1506073  -10.9411144  
C   -1.0182680    0.7512234  -10.6842285  
N   -1.1229681    0.8773370   -9.3212362  
C   -1.7657135    1.3489742  -11.7034487  
C   -1.4325371    1.0307661  -13.0057220  
O   -2.1296704    1.5862927  -14.0393604  
C   -0.3741955    0.1328370  -13.2822220  
O   -0.1654955   -0.0825644  -14.6288449  
C    0.3634282   -0.4574410  -12.2772308  
H    1.3830181   -1.2315401   -9.4902361  
H   -1.7844712    1.4606346   -8.8414886  
H   -2.5781305    2.0370086  -11.5142675  
H   -1.7406888    1.2351951  -14.8509567  
H    0.5655390   -0.7000477  -14.7283776  
H    1.1682691   -1.1414858  -12.5197011  
C    2.5712578   -2.1206950   -5.9616534  
C    1.9373693   -1.6210572   -7.0756615  
C    0.9098907   -0.7465415   -6.6129414  
C    0.9654398   -0.7523422   -5.1956172  
N    1.9839668   -1.5983918   -4.8330982  
C    0.0950446    0.0004351   -4.4015596  
C   -0.8484203    0.7733794   -5.0501034  
O   -1.7229563    1.5281754   -4.3231345  
C   -0.9198269    0.7921109   -6.4633859  
O   -1.9133951    1.6110121   -6.9589329  
C   -0.0616588    0.0495204   -7.2473711  
H    2.1843499   -1.8586262   -8.0962283  
H    2.2669717   -1.7953555   -3.8901799  
H   -2.2874064    1.9829869   -4.9617323  
H   -1.8933723    1.5662715   -7.9197660  
H    3.3949106   -2.8094142   -5.8827847  
C    3.3321173    0.0004713   -1.3379338  
C    2.6974181    0.0000116   -2.5332314  
C    1.2800438   -0.0002119   -2.2052841  
C    1.2395034    0.0000643   -0.7271299  
N    2.4394062    0.0005460   -0.2131038  
C    0.0000000    0.0000000    0.0000000  
C   -1.1468702    0.0000634   -0.7169543  
O   -2.3742203    0.0000074   -0.1695487  
C   -1.1388770    0.0001607   -2.2096355  
O   -2.2206234    0.0000905   -2.7970411  
C    0.1454522    0.0001815   -2.9324241  
H    3.1367984   -0.0000653   -3.5160950  
H   -2.9844346    0.0001026   -0.9290167  
H    4.3940038    0.0007618   -1.1498640  
C    0.0000000    0.0000000    1.4700000  
C    1.0541688    0.0001722    2.3260392  
C    0.5103138    0.0000454    3.6635956  
C   -0.9576371   -0.0002459    3.5155732  
N   -1.2018458    0.0001392    2.1615969  
C   -1.8348311   -0.0008317    4.5510609  
C   -1.2972847   -0.0009736    5.9014604  
O   -2.0050672   -0.0014265    6.9001319  
C    0.2542623   -0.0004184    6.0817573  
O    0.7184670   -0.0002256    7.2139121  
C    1.0974552   -0.0000873    4.8889129  
H    2.0940752    0.0005483    2.0517982  
H   -2.9081052   -0.0011668    4.4207061  
H    2.1707277    0.0000911    5.0223670  
H   -2.1128194   -0.0014912    1.7406791  
