62

C   -3.5733089    0.0040245   -7.0541789  
C   -4.2679603    0.0044005   -5.8667759  
C   -5.6557709    0.0049560   -6.1962947  
C   -5.7474669    0.0046045   -7.6117514  
N   -4.4648990    0.0059918   -8.1012760  
C   -6.9698381    0.0046816   -8.2904257  
C   -8.1206055    0.0048146   -7.5262829  
O   -9.3409045    0.0045437   -8.1377431  
C   -8.0496633    0.0055404   -6.1128536  
O   -9.2829002    0.0060071   -5.4944129  
C   -6.8441100    0.0057380   -5.4426544  
H   -3.8284768    0.0053934   -4.8840013  
H   -4.2147940   -0.0044545   -9.0735509  
H   -7.0464863    0.0045593   -9.3690021  
H  -10.0001456    0.0049962   -7.4315801  
H   -9.1456222    0.0064584   -4.5421745  
H   -6.8212070    0.0064802   -4.3591636  
C   -0.1387078    0.0017019   -4.3179684  
C    0.8715321    0.0021967   -5.2254322  
C    0.2617556    0.0029743   -6.5342509  
C   -1.1970048    0.0029205   -6.3133239  
N   -1.3734972    0.0017348   -4.9488690  
C   -2.1246669    0.0039286   -7.3038527  
C   -1.6550225    0.0049218   -8.6793414  
O   -2.4116501    0.0058066   -9.6415332  
C   -0.1143765    0.0047446   -8.9366640  
O    0.2928835    0.0052679  -10.0905275  
C    0.7871615    0.0038972   -7.7872816  
H    1.9238030    0.0018531   -5.0033075  
H    1.8524583    0.0039851   -7.9740077  
H   -2.2623839    0.0029669   -4.4831157  
C    3.3041272    0.0001178   -1.5420428  
C    2.5845372   -0.0004779   -0.3695851  
C    1.2040007   -0.0000007   -0.7283589  
C    1.1422375    0.0006038   -2.1454371  
N    2.4348641    0.0026111   -2.6077464  
C   -0.0655179    0.0008799   -2.8497918  
C   -1.2321766    0.0002325   -2.1101402  
O   -2.4392816    0.0001148   -2.7472523  
C   -1.1911209   -0.0000007   -0.6955266  
O   -2.4371527   -0.0002320   -0.1032863  
C    0.0000000    0.0000000    0.0000000  
H    3.0031533   -0.0000660    0.6222584  
H    2.7054632   -0.0071097   -3.5745261  
H   -3.1132986   -0.0000648   -2.0551788  
H   -2.3200284   -0.0004071    0.8516409  
H    4.3686626    0.0004072   -1.7024289  
C    0.0000000    0.0000000    1.4700000  
C    1.0541688    0.0001722    2.3260392  
C    0.5103138    0.0000454    3.6635956  
C   -0.9576371   -0.0002459    3.5155732  
N   -1.2018458    0.0001392    2.1615969  
C   -1.8348311   -0.0008317    4.5510609  
C   -1.2972847   -0.0009736    5.9014604  
O   -2.0050672   -0.0014265    6.9001319  
C    0.2542623   -0.0004184    6.0817573  
O    0.7184670   -0.0002256    7.2139121  
C    1.0974552   -0.0000873    4.8889129  
H    2.0940752    0.0005483    2.0517982  
H   -2.9081052   -0.0011668    4.4207061  
H    2.1707277    0.0000911    5.0223670  
H   -2.1128194   -0.0014912    1.7406791  
