60

C    7.6470240   -0.7056961   -5.2523322  
C    8.9995402   -0.4543676   -5.2513953  
C    9.2550355    0.4536635   -6.3213487  
C    8.0098044    0.7232681   -6.9447577  
N    7.0548980    0.0018849   -6.2721684  
C    7.8830330    1.5817088   -8.0410233  
C    9.0342430    2.1790998   -8.5164346  
O    8.9674608    3.0264313   -9.5844151  
C   10.2859756    1.9223565   -7.9081035  
O   11.3382042    2.5924169   -8.4973227  
C   10.4118230    1.0753862   -6.8267481  
H    9.7142612   -0.8747439   -4.5647717  
H    6.9368924    1.7912281   -8.5207331  
H    9.8700686    3.3280587   -9.7505051  
H   12.1457903    2.3640903   -8.0269236  
H   11.3839508    0.8979156   -6.3818322  
H    7.0580749   -1.3348192   -4.6071175  
C    3.2973507   -0.0000930   -3.8752373  
C    4.6109361    0.0001676   -4.2009255  
C    4.6367195   -0.0000879   -5.6555160  
C    3.2125798   -0.0006171   -6.0535227  
N    2.4227569   -0.0005418   -5.0142109  
C    2.8079503   -0.0009509   -7.4324215  
C    3.7817678   -0.0003752   -8.3710445  
O    3.5485421   -0.0006033   -9.6945425  
C    5.2278982    0.0005386   -8.0010880  
O    6.0602363    0.0009025   -8.9079694  
C    5.6174391    0.0008216   -6.5797564  
H    5.4578085    0.0005834   -3.5361826  
H    1.7599990   -0.0015423   -7.6945434  
H    4.4333819   -0.0000291  -10.1022329  
C    3.3321175    0.0004715   -1.3379331  
C    2.6974186    0.0000117   -2.5332308  
C    1.2800441   -0.0002117   -2.2052838  
C    1.2395036    0.0000644   -0.7271292  
N    2.4394065    0.0005460   -0.2131033  
C    0.0000000    0.0000000    0.0000000  
C   -1.1468701    0.0000635   -0.7169542  
O   -2.3742199    0.0000073   -0.1695491  
C   -1.1388766    0.0001607   -2.2096354  
O   -2.2206227    0.0000905   -2.7970412  
C    0.1454526    0.0001817   -2.9324239  
H   -2.9844344    0.0001026   -0.9290168  
H    0.1083579    0.0003683   -4.0135594  
H    4.3940038    0.0007619   -1.1498630  
C    2.5528530    2.1414826    2.8079335  
C    2.0663498    1.7338582    4.0032312  
C    0.9804344    0.8229586    3.6752840  
C    0.9495562    0.7966882    2.1971295  
N    1.8690446    1.5676019    1.6831036  
C    0.0000000    0.0000000    1.4700000  
C   -0.8785127   -0.7372425    2.1869543  
O   -1.8187535   -1.5261249    1.6395491  
C   -0.8723269   -0.7321790    3.6796354  
O   -1.7010379   -1.4274584    4.2670412  
C    0.1115397    0.0933559    4.4024240  
H    2.4028853    2.0163452    4.9860947  
H   -2.2861435   -1.9184361    2.3990168  
H    0.0832434    0.0693689    5.4835595  
H    3.3664920    2.8238276    2.6198634  
