60

C    4.3780853   -3.7049563   -6.4772850  
C    3.6284256   -3.0718420   -5.5131045  
C    4.1351026   -3.4935708   -4.2481840  
C    5.2027088   -4.3912309   -4.5057684  
N    5.3222864   -4.4986756   -5.8691372  
C    5.9374050   -5.0048756   -3.4867246  
C    5.5881915   -4.7066743   -2.1839184  
O    6.2728578   -5.2777681   -1.1504308  
C    4.5257753   -3.8137903   -1.9067060  
O    4.3000371   -3.6196185   -0.5596044  
C    3.8003712   -3.2082593   -2.9115179  
H    6.0029485   -5.0588289   -6.3496657  
H    6.7521074   -5.6900551   -3.6764349  
H    5.8734487   -4.9396560   -0.3383863  
H    3.5673720   -3.0041463   -0.4596061  
H    2.9917926   -2.5288342   -2.6684938  
H    4.3130380   -3.6542556   -7.5506704  
C    2.5185215   -2.1418780   -5.7664428  
C    2.0285777   -1.7344761   -6.9604104  
C    0.9435058   -0.8236405   -6.6295061  
C    0.9168304   -0.7971602   -5.1512739  
N    1.8378567   -1.5679052   -4.6397550  
C   -0.0307352   -0.0004646   -4.4215603  
C   -0.9113601    0.7365845   -5.1361187  
O   -1.8501211    1.5254496   -4.5861545  
C   -0.9094206    0.7313062   -6.6288105  
O   -1.7398708    1.4264157   -7.2139564  
C    0.0724707   -0.0942318   -7.3542764  
H    2.3623447   -2.0170704   -7.9441870  
H   -2.3197104    1.9176033   -5.3443459  
H    0.0410964   -0.0704039   -8.4353302  
C    3.2573670   -0.0002920   -1.5109380  
C    2.5379468   -0.0001709   -0.3591961  
C    1.1435043    0.0000332   -0.7338500  
C    1.1092609   -0.0000082   -2.2088477  
N    2.4227562    0.0001909   -2.6182613  
C   -0.0265532   -0.0002522   -2.9515663  
C   -1.3003035   -0.0002639   -2.2514981  
O   -2.3786784   -0.0004131   -2.8306429  
C   -1.2877725    0.0000312   -0.6895608  
O   -2.3539958    0.0003307   -0.0892036  
C    0.0000000    0.0000000    0.0000000  
H    2.9384091   -0.0000369    0.6389239  
H    4.3270394   -0.0004765   -1.6439446  
H    2.7280494   -0.0013406   -3.5742113  
C    0.8400945    0.7047457    2.2710304  
C    0.0000000    0.0000000    1.4700000  
C   -0.8844236   -0.7423113    2.3369512  
C   -0.4878984   -0.4098547    3.7186280  
N    0.5629682    0.4714286    3.6095011  
C   -1.0836927   -0.9095027    4.8308716  
C   -2.1891196   -1.8367527    4.6554461  
O   -2.7906899   -2.3413415    5.5944904  
C   -2.6257283   -2.2031529    3.2011665  
O   -3.5549479   -2.9829990    3.0410059  
C   -1.9068976   -1.5999348    2.0816745  
H   -0.7774656   -0.6525820    5.8354244  
H   -2.2155208   -1.8586617    1.0779135  
H    1.6384792    1.3747609    1.9961646  
H    1.0518368    0.8833920    4.3830260  
