60

C   10.0757159    0.7187883   -1.0277409  
C    9.1358927    0.0016669   -0.3242234  
C    9.8357697   -0.7252315    0.6839385  
C   11.2115609   -0.4089573    0.5457572  
N   11.3225110    0.4687516   -0.5039734  
C   12.1985338   -0.9474345    1.3768510  
C   11.7891615   -1.8208681    2.3656408  
O   12.7113956   -2.3754202    3.2052645  
C   10.4211102   -2.1490515    2.5190949  
O   10.1736808   -3.0329715    3.5490497  
C    9.4469242   -1.6184182    1.6993897  
H   12.1794318    0.8771407   -0.8309078  
H   13.2487841   -0.7105121    1.2766247  
H   12.2208567   -2.9461768    3.8109640  
H    9.2271568   -3.2016507    3.5843029  
H    8.4069832   -1.8885662    1.8408809  
H    9.9554911    1.3877399   -1.8626114  
C    6.7793184   -0.0000203   -4.0582541  
C    7.7853564    0.0004709   -3.1461341  
C    7.1695416    0.0010648   -1.8401453  
C    5.7118176    0.0008488   -2.0678072  
N    5.5416283    0.0005848   -3.4330637  
C    4.7795901    0.0008674   -1.0815733  
C    5.2428765    0.0013429    0.2960697  
O    4.4818131    0.0014587    1.2547580  
C    6.7823177    0.0018304    0.5605058  
O    7.1842444    0.0025394    1.7162372  
C    7.6891545    0.0014823   -0.5847012  
H    8.8386419    0.0006050   -3.3633967  
H    6.8379580   -0.0005569   -5.1345677  
H    4.6549021   -0.0011625   -3.9029158  
C    3.3321168    0.0004716   -1.3379341  
C    2.6974177    0.0000118   -2.5332316  
C    1.2800432   -0.0002116   -2.2052842  
C    1.2395033    0.0000644   -0.7271298  
N    2.4394059    0.0005460   -0.2131041  
C    0.0000000    0.0000000    0.0000000  
C   -1.1468704    0.0000635   -0.7169542  
O   -2.3742206    0.0000074   -0.1695488  
C   -1.1388774    0.0001608   -2.2096352  
O   -2.2206238    0.0000906   -2.7970409  
C    0.1454514    0.0001818   -2.9324241  
H    3.1367978   -0.0000649   -3.5160956  
H   -2.9844350    0.0001027   -0.9290164  
H    0.1083567    0.0003684   -4.0135594  
C    2.4951002    2.0940188    2.9809380  
C    1.9440701    1.6314916    1.8291961  
C    0.8759964    0.7350050    2.2038498  
C    0.8497377    0.7130254    3.6788474  
N    1.8560616    1.5571714    4.0882609  
C   -0.0205033   -0.0168748    4.4215661  
C   -0.9962600   -0.8356168    3.7214979  
O   -1.8224391   -1.5286685    4.3006425  
C   -0.9864710   -0.8277881    2.1595606  
O   -1.8030528   -1.5133726    1.5592035  
C    0.0000000    0.0000000    1.4700000  
H    2.2509283    1.8888011    0.8310761  
H   -0.0229599   -0.0187323    5.5027230  
H    3.3143982    2.7817323    3.1139444  
H    2.0889452    1.7545833    5.0442112  
