64

C   -0.0777631    0.7084260   -7.3701958  
C   -1.0197326    0.4589941   -8.3412488  
C   -0.4310789   -0.4513271   -9.2682883  
C    0.8821355   -0.7242188   -8.8068503  
N    1.0649055   -0.0025084   -7.6534432  
C    1.7556790   -1.5855501   -9.4775349  
C    1.2950451   -2.1825053  -10.6349625  
O    2.1065754   -3.0325739  -11.3290913  
C   -0.0118909   -1.9225032  -11.1115484  
O   -0.3221096   -2.5925479  -12.2769441  
C   -0.8741103   -1.0726804  -10.4505603  
H   -2.0090132    0.8820712   -8.3776206  
H    2.7577994   -1.7975822   -9.1311251  
H    1.5973764   -3.3333479  -12.0929739  
H   -1.2211300   -2.3619260  -12.5302830  
H   -1.8693892   -0.8927469  -10.8398182  
H   -0.1300803    1.3383210   -6.4987295  
C    1.6707638   -0.0012342   -3.2725973  
C    3.0463714   -0.0037164   -3.2854244  
C    3.4499894   -0.0054220   -4.6535216  
C    2.2671973   -0.0035693   -5.4364170  
N    1.2050907   -0.0029951   -4.5666196  
C    2.2856094   -0.0042198   -6.8344328  
C    3.5205408   -0.0064805   -7.4533964  
O    3.5962543   -0.0068568   -8.8162176  
C    4.7118869   -0.0087282   -6.6895200  
O    5.8613546   -0.0112480   -7.4524500  
C    4.6944757   -0.0083610   -5.3103089  
H    3.6808652   -0.0053392   -2.4157072  
H    0.2370773    0.0088260   -4.8326874  
H    4.5366392   -0.0088321   -9.0374362  
H    6.6195097   -0.0126261   -6.8601638  
H    5.6233653   -0.0103041   -4.7520629  
C    1.0965515    0.0001359   -0.8010305  
C    0.0000000    0.0000000    0.0000000  
C   -1.1546564    0.0001470   -0.8669509  
C   -0.6372018    0.0003521   -2.2486279  
N    0.7342868    0.0007339   -2.1395011  
C   -1.4147743    0.0001355   -3.3608714  
C   -2.8576049   -0.0001046   -3.1854455  
O   -3.6427782   -0.0002491   -4.1244898  
C   -3.4275842   -0.0000725   -1.7311664  
O   -4.6406831    0.0000334   -1.5710053  
C   -2.4891868   -0.0001091   -0.6116742  
H   -1.0150456    0.0001619   -4.3654242  
H   -2.8919123   -0.0002920    0.3920869  
H    2.1388270    0.0000663   -0.5261648  
C    0.8576279    0.7185626    2.2703808  
C    0.0000000    0.0000000    1.4700000  
C   -0.8668858   -0.7285659    2.3373528  
C   -0.4876752   -0.4117774    3.6669281  
N    0.5635254    0.4678311    3.5902241  
C   -1.1297612   -0.9515493    4.7854808  
C   -2.1738724   -1.8268314    4.5576857  
O   -2.8357962   -2.3827064    5.6140350  
C   -2.5667212   -2.1555554    3.2384331  
O   -3.6226318   -3.0413663    3.1773122  
C   -1.9335634   -1.6236449    2.1344818  
H    1.0363952    0.8769718    4.3757045  
H   -0.8454472   -0.7142436    5.8013813  
H   -3.5178062   -2.9546422    5.2385129  
H   -3.8247440   -3.2102924    2.2519915  
H   -2.2566033   -1.8942483    1.1360343  
H    1.6567807    1.3889844    2.0042067  
