62

C   -8.4382330    1.0881583   -2.3015347  
C   -7.6598464   -0.0128202   -2.5743482  
C   -8.5413337   -1.1287116   -2.6855552  
C   -9.8564945   -0.6433752   -2.4693956  
N   -9.7577807    0.7060535   -2.2371986  
C  -10.9832490   -1.4703709   -2.5053494  
C  -10.7786562   -2.8116929   -2.7645322  
O  -11.8439564   -3.6637240   -2.8113786  
C   -9.4740262   -3.3149446   -2.9824621  
O   -9.4355271   -4.6720443   -3.2276977  
C   -8.3619700   -2.4997207   -2.9468735  
H  -10.5303181    1.3227541   -2.0615648  
H  -11.9882392   -1.1066624   -2.3412973  
H  -11.4846533   -4.5398507   -3.0026064  
H   -8.5189123   -4.9306153   -3.3639373  
H   -7.3751177   -2.9138372   -3.1174852  
H   -8.1564209    2.1155114   -2.1463358  
C   -4.5109061    2.0977189   -0.3577879  
C   -3.4201849    1.6341429   -1.0207351  
C   -3.9001607    0.7380706   -2.0461681  
C   -5.3704639    0.7174771   -1.9254392  
N   -5.6768567    1.5619484   -0.8833829  
C   -6.1968217   -0.0116748   -2.7173826  
C   -5.5981518   -0.8310167   -3.7579633  
O   -6.2573275   -1.5234763   -4.5223509  
C   -4.0429941   -0.8246549   -3.9037354  
O   -3.5275665   -1.5107550   -4.7760092  
C   -3.2578655    0.0024282   -2.9908505  
H   -2.3962310    1.8904976   -0.8147872  
H   -4.5610332    2.7855092    0.4706573  
H   -6.6046839    1.7602441   -0.5564855  
C    0.0000000    0.0000000    0.0000000  
C    1.0521666   -0.0011982   -0.8862343  
C    0.4917215   -0.0011996   -2.1979132  
C   -0.9187429    0.0003215   -2.0478682  
N   -1.1833171   -0.0009323   -0.7007913  
C   -1.7951703    0.0010483   -3.1372089  
C   -1.2375841    0.0005313   -4.4010422  
O   -2.0474218    0.0015510   -5.4997578  
C    0.1673576   -0.0013585   -4.5711963  
O    0.5673520   -0.0020735   -5.8915554  
C    1.0325768   -0.0023493   -3.4969892  
H    2.0953056   -0.0030808   -0.6200564  
H   -2.0989778    0.0102529   -0.2891822  
H   -1.4634888    0.0006601   -6.2693595  
H    1.5290707   -0.0033271   -5.9180047  
H    2.1042146   -0.0039770   -3.6584456  
C    3.2573670    0.0002920    2.9809380  
C    2.5379467    0.0001709    1.8291961  
C    1.1435042   -0.0000331    2.2038498  
C    1.1092607    0.0000083    3.6788474  
N    2.4227561   -0.0001909    4.0882609  
C   -0.0265533    0.0002524    4.4215661  
C   -1.3003036    0.0002640    3.7214979  
O   -2.3786784    0.0004133    4.3006425  
C   -1.2877726   -0.0000311    2.1595606  
O   -2.3539958   -0.0003306    1.5592035  
C    0.0000000    0.0000000    1.4700000  
H    2.9384090    0.0000368    0.8310761  
H   -0.0296291    0.0004086    5.5027230  
H    4.3270393    0.0004765    3.1139444  
H    2.7280493    0.0013407    5.0442112  
