62

C    6.8134652    0.6934921   -5.4777863  
C    7.5292041   -0.1237932   -4.6338496  
C    8.8968284   -0.0352385   -5.0292758  
C    8.9550844    0.8587846   -6.1289371  
N    7.6725977    1.2813584   -6.3764812  
C   10.1507675    1.1845598   -6.7762406  
C   11.3087761    0.5973574   -6.3046615  
O   12.5040018    0.8807597   -6.8997495  
C   11.2709910   -0.2974696   -5.2089090  
O   12.5073214   -0.7992927   -4.8581881  
C   10.0917425   -0.6195216   -4.5700191  
H    7.1162273   -0.7123494   -3.8325722  
H    7.4036910    1.9305627   -7.0935611  
H   10.2018516    1.8651026   -7.6149619  
H   13.1735359    0.3730855   -6.4230348  
H   12.3931930   -1.3943174   -4.1108436  
H   10.0939495   -1.3083542   -3.7333689  
C    3.4164199   -0.7248701   -3.0395970  
C    4.6504339   -0.5074363   -3.5630539  
C    4.4860929    0.4201609   -4.6573074  
C    3.0448514    0.7275403   -4.7289399  
N    2.4521483    0.0014840   -3.7217481  
C    2.4820257    1.5683543   -5.6333530  
C    3.3539028    2.2134704   -6.6009226  
O    2.9430859    2.9872366   -7.4558000  
C    4.8835163    1.9023315   -6.5436510  
O    5.6273702    2.4393190   -7.3533342  
C    5.3721319    0.9788728   -5.5227048  
H    5.5707637   -0.9468592   -3.2217111  
H    1.4224210    1.7802521   -5.6686799  
H    3.1302856   -1.3547904   -2.2130272  
C    0.0000000    0.0000000    0.0000000  
C    1.0662923   -0.0000101   -0.8334270  
C    0.4961873    0.0000065   -2.1718887  
C   -0.9663854   -0.0000848   -1.9540250  
N   -1.2632773   -0.0000083   -0.6828660  
C   -1.8985359   -0.0000514   -3.0477261  
C   -1.3925770    0.0004566   -4.3020547  
O   -2.1456378    0.0005414   -5.4151314  
C    0.0786240    0.0009326   -4.5545000  
O    0.4683767    0.0012591   -5.7221100  
C    1.0143171    0.0008444   -3.4159031  
H    2.1107200    0.0000633   -0.5721865  
H   -2.9622181   -0.0003268   -2.8593381  
H   -1.5042265    0.0009697   -6.1484419  
C    3.3041272   -0.0001177    3.0120429  
C    2.5845372    0.0004780    1.8395852  
C    1.2040006    0.0000008    2.1983588  
C    1.1422373   -0.0006037    3.6154372  
N    2.4348639   -0.0026109    4.0777464  
C   -0.0655181   -0.0008797    4.3197917  
C   -1.2321768   -0.0002324    3.5801400  
O   -2.4392816   -0.0001146    4.2172520  
C   -1.1911209    0.0000007    2.1655264  
O   -2.4371527    0.0002320    1.5732860  
C    0.0000000    0.0000000    1.4700000  
H    3.0031534    0.0000661    0.8477417  
H    2.7054629    0.0071099    5.0445261  
H   -0.1193549   -0.0014844    5.3997470  
H   -3.1132988    0.0000648    3.5251786  
H   -2.3200282    0.0004071    0.6183591  
H    4.3686625   -0.0004071    3.1724291  
