64

C   -0.3469075   -0.9889611   -9.4741908  
C   -0.4696770    0.0864361   -8.6251231  
C   -0.7389589    1.2285727   -9.4360559  
C   -0.7694165    0.7848722  -10.7829519  
N   -0.5256891   -0.5660758  -10.7705527  
C   -1.0104257    1.6461054  -11.8576510  
C   -1.2248910    2.9794888  -11.5673564  
O   -1.4652509    3.8638076  -12.5788998  
C   -1.1980758    3.4414143  -10.2299256  
O   -1.4293594    4.7957465  -10.1048821  
C   -0.9601061    2.5923995   -9.1692320  
H   -0.4964065   -1.1579757  -11.5809705  
H   -1.0347946    1.3142056  -12.8864619  
H   -1.5853766    4.7277022  -12.1635444  
H   -1.3941197    5.0253914   -9.1712732  
H   -0.9454224    2.9752179   -8.1554703  
H   -0.1445398   -2.0239296   -9.2577514  
C    2.3020059   -2.1258165   -5.9826638  
C    1.8093621   -1.6631473   -4.7844542  
C    0.7354063   -0.7757530   -5.0906400  
C    0.6179775   -0.7364003   -6.5036468  
N    1.5853777   -1.5658598   -7.0142844  
C   -0.3410999    0.0396022   -7.1615059  
C   -1.1974268    0.7893049   -6.3786729  
O   -2.1529115    1.5646259   -6.9693855  
C   -1.0957281    0.7635435   -4.9673579  
O   -2.0198648    1.5644924   -4.3287681  
C   -0.1496415   -0.0015615   -4.3176961  
H    2.1793383   -1.9313018   -3.8096702  
H    1.7380683   -1.7477623   -7.9897732  
H   -2.6343334    1.9980532   -6.2526991  
H   -1.8828076    1.4896273   -3.3794448  
H    3.1087985   -2.8098329   -6.1830798  
C    3.3003543    0.0005276   -1.4738987  
C    2.5232814    0.0003497   -2.6090747  
C    1.1623200   -0.0001320   -2.1820103  
C    1.1711883    0.0000582   -0.7636140  
N    2.4852300   -0.0014919   -0.3662360  
C    0.0000000    0.0000000    0.0000000  
C   -1.2020384    0.0000519   -0.6806477  
O   -2.3759249    0.0003493    0.0157743  
C   -1.2314656   -0.0005115   -2.0955510  
O   -2.5054392   -0.0008039   -2.6250180  
C   -0.0764516   -0.0007274   -2.8495195  
H    2.8919955   -0.0005620   -3.6205304  
H    2.8036267    0.0088183    0.5858662  
H   -3.0835638    0.0000347   -0.6418818  
H   -2.4360047   -0.0011529   -3.5845921  
H    4.3715549    0.0004895   -1.3667136  
C    2.4951002    2.0940188    2.9809380  
C    1.9440701    1.6314916    1.8291961  
C    0.8759964    0.7350050    2.2038498  
C    0.8497377    0.7130254    3.6788474  
N    1.8560616    1.5571714    4.0882609  
C   -0.0205033   -0.0168748    4.4215661  
C   -0.9962600   -0.8356168    3.7214979  
O   -1.8224391   -1.5286685    4.3006425  
C   -0.9864710   -0.8277881    2.1595606  
O   -1.8030528   -1.5133726    1.5592035  
C    0.0000000    0.0000000    1.4700000  
H    2.2509283    1.8888011    0.8310761  
H   -0.0229599   -0.0187323    5.5027230  
H    3.3143982    2.7817323    3.1139444  
H    2.0889452    1.7545833    5.0442112  
