60

C   -4.3568013    2.1196432   -0.0439428  
C   -5.5783088    1.6201330   -0.4323710  
C   -5.3394751    0.7460400   -1.5339700  
C   -3.9416102    0.7519549   -1.7745203  
N   -3.3751252    1.5976639   -0.8533857  
C   -3.3460098   -0.0004261   -2.7913644  
C   -4.1766441   -0.7730844   -3.5795417  
O   -3.6475263   -1.5274888   -4.5864783  
C   -5.5738556   -0.7919239   -3.3553479  
O   -6.2652643   -1.6105060   -4.2243818  
C   -6.1621474   -0.0497243   -2.3525626  
H   -6.5251584    1.8575141    0.0216323  
H   -2.3939630    1.7946128   -0.7726811  
H   -4.3895800   -1.9821531   -5.0058840  
H   -7.2009062   -1.5658640   -4.0048706  
H   -7.2352194   -0.0842032   -2.2048984  
H   -4.1083016    2.8080659    0.7455375  
C    0.0000000    0.0000000    0.0000000  
C    1.0662918   -0.0000103   -0.8334272  
C    0.4961866    0.0000066   -2.1718888  
C   -0.9663862   -0.0000848   -1.9540246  
N   -1.2632777   -0.0000084   -0.6828658  
C   -1.8985367   -0.0000514   -3.0477256  
C   -1.3925783    0.0004569   -4.3020543  
O   -2.1456389    0.0005417   -5.4151310  
C    0.0786225    0.0009329   -4.5544999  
O    0.4683752    0.0012595   -5.7221105  
C    1.0143159    0.0008446   -3.4159033  
H    2.1107193    0.0000632   -0.5721869  
H   -1.5042282    0.0009699   -6.1484418  
C    4.6171591   -2.0114326   -1.7322457  
C    3.3328186   -1.6298289   -1.9231047  
C    3.3780273   -0.7112570   -3.0503497  
C    4.8069984   -0.6523613   -3.4260584  
N    5.5382123   -1.4125185   -2.6569830  
C    5.2745444    0.1606806   -4.5148420  
C    4.3562391    0.8817948   -5.1975164  
O    4.6514300    1.6830002   -6.2352896  
C    2.9068147    0.8432093   -4.8427754  
O    2.1270256    1.5254615   -5.5073669  
C    2.4521470    0.0014842   -3.7217487  
H    2.4622556   -1.9341724   -1.3676129  
H    6.3245834    0.1848324   -4.7673198  
H    3.7953875    2.0581843   -6.5102110  
H    5.0049127   -2.6900161   -0.9891812  
C    0.0000000    0.0000000    1.4700000  
C    1.0662921    0.0000102    2.3034270  
C    0.4961870   -0.0000064    3.6418889  
C   -0.9663858    0.0000850    3.4240247  
N   -1.2632773    0.0000084    2.1528658  
C   -1.8985362    0.0000517    4.5177257  
C   -1.3925775   -0.0004564    5.7720543  
O   -2.1456383   -0.0005410    6.8851312  
C    0.0786232   -0.0009323    6.0245000  
O    0.4683759   -0.0012588    7.1921102  
C    1.0143166   -0.0008442    4.8859032  
H    2.1107198   -0.0000632    2.0421868  
H   -2.9622183    0.0003270    4.3293377  
H   -1.5042274   -0.0009692    7.6184419  
H    2.0724152   -0.0013148    5.1109744  
