60

C    3.4087101   -0.7064436   -3.0324172  
C    4.6439231   -0.4554585   -3.5835292  
C    4.4407869    0.4527126   -4.6645291  
C    3.0496381    0.7227526   -4.7254378  
N    2.4521480    0.0014830   -3.7217483  
C    2.4867659    1.5814353   -5.6744523  
C    3.3439020    2.1786251   -6.5782559  
O    2.8473359    3.0261783   -7.5259307  
C    4.7348360    1.9214476   -6.5337634  
O    5.4551834    2.5913534   -7.5010634  
C    5.2907831    1.0742382   -5.5979831  
H    5.5765049   -0.8761479   -3.2484102  
H    1.4272937    1.7912865   -5.7262423  
H    3.6036617    3.3276082   -8.0459079  
H    6.3843599    2.3627319   -7.4012289  
H    6.3597902    0.8964358   -5.5885603  
H    3.1341695   -1.3355410   -2.2030664  
C    0.0000000    0.0000000    0.0000000  
C    1.0662921   -0.0000106   -0.8334269  
C    0.4961870    0.0000059   -2.1718889  
C   -0.9663856   -0.0000854   -1.9540246  
N   -1.2632773   -0.0000087   -0.6828657  
C   -1.8985362   -0.0000522   -3.0477258  
C   -1.3925773    0.0004558   -4.3020541  
O   -2.1456384    0.0005402   -5.4151311  
C    0.0786236    0.0009315   -4.5544999  
O    0.4683762    0.0012578   -5.7221098  
C    1.0143167    0.0008435   -3.4159031  
H    2.1107198    0.0000631   -0.5721865  
H   -1.5042271    0.0009682   -6.1484419  
C   -4.2186864    2.1401319   -0.0437265  
C   -5.4804249    1.7323140   -0.3144300  
C   -5.3466896    0.8217459   -1.4411421  
C   -3.8965661    0.7958593   -1.7293375  
N   -3.2302258    1.5666940   -0.9133757  
C   -3.3460094   -0.0004268   -2.7913647  
C   -4.2050296   -0.7376515   -3.5315797  
O   -3.8298203   -1.5261798   -4.5530893  
C   -5.6737587   -0.7329698   -3.2651711  
O   -6.3965398   -1.4282098   -3.9789290  
C   -6.2140638    0.0921563   -2.1701083  
H   -6.3895960    2.0144738    0.1884311  
H   -4.6590776   -1.9185778   -4.8809749  
H   -7.2835615    0.0679002   -2.0094324  
H   -3.8917479    2.8223390    0.7248291  
C    3.3321173   -0.0004715    2.8079335  
C    2.6974184   -0.0000116    4.0032312  
C    1.2800439    0.0002118    3.6752840  
C    1.2395035   -0.0000644    2.1971295  
N    2.4394063   -0.0005460    1.6831036  
C    0.0000000    0.0000000    1.4700000  
C   -1.1468701   -0.0000635    2.1869543  
O   -2.3742202   -0.0000073    1.6395491  
C   -1.1388768   -0.0001607    3.6796354  
O   -2.2206231   -0.0000905    4.2670412  
C    0.1454524   -0.0001816    4.4024240  
H    3.1367986    0.0000651    4.9860947  
H   -2.9844344   -0.0001026    2.3990168  
H    0.1083576   -0.0003682    5.4835595  
H    4.3940039   -0.0007619    2.6198634  
