60

C    8.3477434   -4.3709920   -3.0747488  
C    8.3144375   -5.0035143   -1.8535722  
C    7.1200642   -4.5809148   -1.1982228  
C    6.4592243   -3.6833577   -2.0754958  
N    7.2325231   -3.5768097   -3.2047757  
C    5.2448911   -3.0689908   -1.7549700  
C    4.6873662   -3.3663502   -0.5265884  
O    3.5024942   -2.7945276   -0.1631186  
C    5.3317368   -4.2591178    0.3625515  
O    4.6507424   -4.4524105    1.5467084  
C    6.5298588   -4.8653611    0.0471171  
H    9.0599037   -5.6847551   -1.4804968  
H    7.0120204   -3.0169318   -4.0084524  
H    3.2953259   -3.1321270    0.7180015  
H    5.1530026   -5.0678631    2.0894400  
H    6.9999271   -5.5446762    0.7485764  
H    9.0794888   -4.4224087   -3.8626982  
C    4.5533953   -2.1376039   -2.6578830  
C    4.9399044   -1.7283662   -3.8886202  
C    3.8940255   -0.8167851   -4.3264065  
C    2.9285539   -0.7919268   -3.2066610  
N    3.3097737   -1.5641889   -2.2257066  
C    1.7334695    0.0049281   -3.2500363  
C    1.5131085    0.7436793   -4.3613519  
O    0.4396988    1.5328953   -4.5373375  
C    2.4688035    0.7400648   -5.5079975  
O    2.2042964    1.4366805   -6.4877846  
C    3.6875669   -0.0856726   -5.4394571  
H    5.8254287   -2.0102057   -4.4322107  
H    0.5632897    1.9263775   -5.4199754  
H    4.3545055   -0.0606062   -6.2908048  
C    1.1319246    0.0015678   -0.8009268  
C    0.7969914    0.0034958   -2.1169401  
C   -0.6453340    0.0035696   -2.1842669  
C   -1.1266832    0.0015410   -0.7896025  
N    0.0000000    0.0000000    0.0000000  
C   -2.4346129    0.0013913   -0.4276292  
C   -3.4350111    0.0031335   -1.4820181  
O   -4.6384614    0.0030875   -1.2583914  
C   -2.9478961    0.0050442   -2.9661074  
O   -3.7809382    0.0062135   -3.8623773  
C   -1.5113825    0.0053055   -3.2312122  
H   -2.7664565    0.0000174    0.6013448  
H   -1.1823533    0.0068381   -4.2614848  
H    2.1104316    0.0009435   -0.3488059  
C    0.0000000    0.0000000    1.4700000  
C    1.0541688    0.0001722    2.3260392  
C    0.5103138    0.0000454    3.6635956  
C   -0.9576371   -0.0002459    3.5155732  
N   -1.2018458    0.0001392    2.1615969  
C   -1.8348311   -0.0008317    4.5510609  
C   -1.2972847   -0.0009736    5.9014604  
O   -2.0050672   -0.0014265    6.9001319  
C    0.2542623   -0.0004184    6.0817573  
O    0.7184670   -0.0002256    7.2139121  
C    1.0974552   -0.0000873    4.8889129  
H    2.0940752    0.0005483    2.0517982  
H   -2.9081052   -0.0011668    4.4207061  
H    2.1707277    0.0000911    5.0223670  
H   -2.1128194   -0.0014912    1.7406791  
