62

C   -5.7450635    4.6209832   -0.1157932  
C   -5.3055848    3.5145504   -0.8050917  
C   -6.2190905    2.4566863   -0.5204315  
C   -7.2037468    2.9814374    0.3553619  
N   -6.8849556    4.2973111    0.5822263  
C   -8.2661358    2.2154972    0.8447010  
C   -8.3359601    0.8958654    0.4423649  
O   -9.3529400    0.1031343    0.8899640  
C   -7.3628385    0.3539577   -0.4306682  
O   -7.5704044   -0.9748159   -0.7382720  
C   -6.3143415    1.1089186   -0.9135900  
H   -4.4332114    3.4744997   -1.4346586  
H   -7.4101237    4.9308437    1.1573910  
H   -9.0197565    2.6094681    1.5125668  
H   -9.2147624   -0.7674482    0.4946686  
H   -6.8699914   -1.2626287   -1.3317277  
H   -5.3347987    5.6150314   -0.0656987  
C   -3.9834216    0.7255574   -1.7966820  
C   -5.3237513    0.5085124   -1.8186556  
C   -5.5825289   -0.4184178   -2.8950708  
C   -4.2737049   -0.7258290   -3.5027450  
N   -3.3460097   -0.0004262   -2.7913647  
C   -4.0918502   -1.5661140   -4.5527708  
C   -5.2633979   -2.2105865   -5.1225671  
O   -5.2038139   -2.9838462   -6.0695727  
C   -6.6595203   -1.8994021   -4.4950220  
O   -7.6531010   -2.4358507   -4.9664893  
C   -6.7288173   -0.9765485   -3.3648051  
H   -3.1230862   -1.7780461   -4.9834574  
H   -7.6992176   -0.7665470   -2.9359152  
H   -3.4077087    1.3549517   -1.1376624  
C    0.0000000    0.0000000    0.0000000  
C    1.0662919   -0.0000103   -0.8334272  
C    0.4961868    0.0000066   -2.1718889  
C   -0.9663860   -0.0000849   -1.9540248  
N   -1.2632775   -0.0000084   -0.6828659  
C   -1.8985364   -0.0000515   -3.0477258  
C   -1.3925778    0.0004567   -4.3020543  
O   -2.1456385    0.0005412   -5.4151314  
C    0.0786229    0.0009326   -4.5544999  
O    0.4683756    0.0012594   -5.7221104  
C    1.0143162    0.0008443   -3.4159034  
H    2.1107195    0.0000631   -0.5721869  
H   -1.5042277    0.0009692   -6.1484420  
H    2.0724151    0.0013151   -3.6409746  
C    1.1243417   -0.0099156    2.2619005  
C    0.7474090   -0.0234034    3.5848544  
C   -0.6787367   -0.0234952    3.6114698  
C   -1.1201739   -0.0099357    2.2635546  
N    0.0000000    0.0000000    1.4700000  
C   -2.4730812   -0.0065396    1.9108239  
C   -3.3971947   -0.0173298    2.9375057  
O   -4.7313508   -0.0149487    2.6493466  
C   -2.9763630   -0.0305536    4.2886322  
O   -4.0166453   -0.0397858    5.1947621  
C   -1.6418541   -0.0336380    4.6373480  
H    1.4178735   -0.0310004    4.4271209  
H   -2.8160170    0.0039190    0.8854031  
H   -5.1938803   -0.0234410    3.4974381  
H   -3.6464643   -0.0484781    6.0827341  
H   -1.3497443   -0.0436789    5.6809233  
H    2.1062470   -0.0051382    1.8205408  
