64

C   -1.1788604    0.6938462   -8.9030146  
C   -0.2313622   -0.1228467   -9.4754892  
C   -0.4042094   -0.0341710  -10.8885923  
C   -1.4810726    0.8593117  -11.1209281  
N   -1.9297335    1.2814606   -9.8940988  
C   -1.9300711    1.1850406  -12.4043182  
C   -1.2799456    0.5983468  -13.4726367  
O   -1.6774439    0.8817290  -14.7472751  
C   -0.2036840   -0.2959372  -13.2611330  
O    0.3395384   -0.7972944  -14.4259923  
C    0.2396210   -0.6179434  -11.9953062  
H    0.4943182   -0.7110960   -8.9403787  
H   -2.6808094    1.9302408   -9.7426064  
H   -2.7503452    1.8651728  -12.5880909  
H   -1.1000072    0.3744516  -15.3325119  
H    1.0595237   -1.3919693  -14.1945034  
H    1.0663334   -1.3063540  -11.8644775  
C    0.6885583   -0.7240830   -5.1615367  
C    0.3679852   -0.5066242   -6.4630818  
C   -0.7389724    0.4203835   -6.4747905  
C   -1.0391591    0.7273895   -5.0632572  
N   -0.1387079    0.0017019   -4.3179684  
C   -2.0220472    1.5676164   -4.6513660  
C   -2.8389205    2.2124490   -5.6659811  
O   -3.7486836    2.9856885   -5.3962918  
C   -2.5388500    1.9016971   -7.1670464  
O   -3.2201592    2.4384507   -8.0301654  
C   -1.4526760    0.9788669   -7.4871444  
H    0.8516397   -0.9456597   -7.3174468  
H   -2.2256208    1.7792484   -3.6108470  
H    1.4594120   -1.3536539   -4.7476342  
C    3.3041273    0.0001178   -1.5420428  
C    2.5845373   -0.0004780   -0.3695851  
C    1.2040007   -0.0000007   -0.7283589  
C    1.1422374    0.0006038   -2.1454372  
N    2.4348641    0.0026111   -2.6077464  
C   -0.0655179    0.0008799   -2.8497918  
C   -1.2321766    0.0002325   -2.1101402  
O   -2.4392814    0.0001148   -2.7472522  
C   -1.1911209   -0.0000007   -0.6955266  
O   -2.4371528   -0.0002320   -0.1032862  
C    0.0000000    0.0000000    0.0000000  
H    3.0031533   -0.0000660    0.6222584  
H    2.7054631   -0.0071097   -3.5745261  
H   -3.1132988   -0.0000648   -2.0551787  
H   -2.3200282   -0.0004072    0.8516409  
H    4.3686625    0.0004073   -1.7024290  
C    2.5311839    2.1237619    3.0120429  
C    1.9795631    1.6616747    1.8395852  
C    0.9223175    0.7739173    2.1983588  
C    0.8753926    0.7337535    3.6154372  
N    1.8668922    1.5631002    4.0777464  
C   -0.0496243   -0.0427881    4.3197917  
C   -0.9437528   -0.7922060    3.5801400  
O   -1.8685244   -1.5680278    4.2172520  
C   -0.9124520   -0.7656372    2.1655264  
O   -1.8671164   -1.5663939    1.5732860  
C    0.0000000    0.0000000    1.4700000  
H    2.3005065    1.9304404    0.8477417  
H    2.0679347    1.7444845    5.0445261  
H   -0.0904770   -0.0778569    5.3997470  
H   -2.3849669   -2.0011402    3.5251786  
H   -1.7775064   -1.4909735    0.6183591  
H    3.3468514    2.8078103    3.1724291  
