60

C    5.9372776   -2.1198499   -1.4348625  
C    5.2448597   -1.6565224   -2.5295549  
C    6.1159431   -0.7688946   -3.2280750  
C    7.3365248   -0.7300845   -2.5065490  
N    7.1934032   -1.5600779   -1.4224620  
C    8.4280218    0.0459681   -2.9080030  
C    8.2848450    0.7962796   -4.0589633  
O    9.3194884    1.5716772   -4.4963257  
C    7.0747433    0.7710653   -4.7923363  
O    7.0884608    1.5725859   -5.9151539  
C    5.9974492    0.0059111   -4.3967323  
H    4.2356475   -1.9243992   -2.7917109  
H    7.9008100   -1.7424328   -0.7337658  
H    9.3609650    0.0800066   -2.3624198  
H    9.0133765    2.0055604   -5.3033600  
H    6.2347687    1.4980659   -6.3524869  
H    5.6340120   -2.8042185   -0.6611515  
C    1.7334697    0.0049246   -3.2500361  
C    3.0913864    0.0046114   -3.2383151  
C    3.5242791    0.0065426   -4.6157893  
C    2.2984623    0.0080465   -5.4368628  
N    1.2476587    0.0065694   -4.5487759  
C    2.2819768    0.0104505   -6.7938549  
C    3.5566110    0.0114101   -7.4923125  
O    3.6472560    0.0134890   -8.7130008  
C    4.8674248    0.0095965   -6.6428604  
O    5.9464914    0.0100765   -7.2198154  
C    4.7574564    0.0073252   -5.1862363  
H    3.7182529    0.0030074   -2.3644445  
H    1.3716378    0.0116508   -7.3771145  
H    0.2773175    0.0086319   -4.8046686  
C    1.1319247    0.0015655   -0.8009267  
C    0.7969916    0.0034943   -2.1169401  
C   -0.6453337    0.0035710   -2.1842668  
C   -1.1266832    0.0015433   -0.7896026  
N    0.0000000    0.0000000    0.0000000  
C   -2.4346130    0.0013964   -0.4276294  
C   -3.4350109    0.0031408   -1.4820183  
O   -4.6384610    0.0030973   -1.2583915  
C   -2.9478956    0.0050505   -2.9661075  
O   -3.7809378    0.0062218   -3.8623775  
C   -1.5113821    0.0053090   -3.2312122  
H   -2.7664565    0.0000232    0.6013446  
H   -1.1823527    0.0068407   -4.2614846  
H    2.1104317    0.0009391   -0.3488056  
C    0.0000000    0.0000000    1.4700000  
C    1.0662921    0.0000102    2.3034270  
C    0.4961870   -0.0000064    3.6418889  
C   -0.9663858    0.0000850    3.4240247  
N   -1.2632773    0.0000084    2.1528658  
C   -1.8985362    0.0000517    4.5177257  
C   -1.3925775   -0.0004564    5.7720543  
O   -2.1456383   -0.0005410    6.8851312  
C    0.0786232   -0.0009323    6.0245000  
O    0.4683759   -0.0012588    7.1921102  
C    1.0143166   -0.0008442    4.8859032  
H    2.1107198   -0.0000632    2.0421868  
H   -2.9622183    0.0003270    4.3293377  
H   -1.5042274   -0.0009692    7.6184419  
H    2.0724152   -0.0013148    5.1109744  
