62

C    1.6487258   -2.3707623   -7.7799781  
C    1.2159531   -1.0676894   -7.6952661  
C    1.5658511   -0.4320895   -8.9233471  
C    2.2152123   -1.4052134   -9.7253978  
N    2.2505212   -2.5704125   -9.0003590  
C    2.6976729   -1.1283901  -11.0081265  
C    2.5211249    0.1540781  -11.4900846  
O    2.9727597    0.4784533  -12.7366081  
C    1.8760151    1.1389180  -10.7047561  
O    1.7772273    2.3673847  -11.3248008  
C    1.4000459    0.8666048   -9.4391240  
H    2.6421678   -3.4390823   -9.3165994  
H    3.1935961   -1.8655974  -11.6243950  
H    2.7512794    1.4087235  -12.8737511  
H    1.3296014    2.9744214  -10.7275223  
H    0.9102535    1.6414592   -8.8610398  
H    1.5770170   -3.1731751   -7.0658701  
C    0.8246867   -0.7190543   -5.2242741  
C   -0.0307352   -0.0004646   -4.4215603  
C   -0.9001604    0.7278868   -5.2865486  
C   -0.5247009    0.4109451   -6.6171514  
N    0.5268047   -0.4685438   -6.5433115  
C   -1.1700224    0.9504892   -7.7339507  
C   -2.2135721    1.8256965   -7.5033123  
O   -2.8785559    2.3813506   -8.5578538  
C   -2.6027002    2.1545707   -6.1829949  
O   -3.6585244    3.0402812   -6.1189979  
C   -1.9663492    1.6228848   -5.0807725  
H   -0.8885752    0.7130660   -8.7506223  
H   -3.5595538    2.9532703   -8.1804768  
H   -3.8580209    3.2093201   -5.1931309  
H   -2.2865756    1.8935992   -4.0814492  
H    1.6246629   -1.3893553   -4.9602777  
C    3.2573670   -0.0002920   -1.5109380  
C    2.5379468   -0.0001709   -0.3591961  
C    1.1435043    0.0000332   -0.7338500  
C    1.1092609   -0.0000082   -2.2088477  
N    2.4227562    0.0001909   -2.6182613  
C   -0.0265532   -0.0002522   -2.9515663  
C   -1.3003035   -0.0002639   -2.2514981  
O   -2.3786784   -0.0004131   -2.8306429  
C   -1.2877725    0.0000312   -0.6895608  
O   -2.3539958    0.0003307   -0.0892036  
C    0.0000000    0.0000000    0.0000000  
H    2.9384091   -0.0000369    0.6389239  
H    4.3270394   -0.0004765   -1.6439446  
H    2.7280494   -0.0013406   -3.5742113  
C    0.0000000    0.0000000    1.4700000  
C    1.0662921    0.0000102    2.3034270  
C    0.4961870   -0.0000064    3.6418889  
C   -0.9663858    0.0000850    3.4240247  
N   -1.2632773    0.0000084    2.1528658  
C   -1.8985362    0.0000517    4.5177257  
C   -1.3925775   -0.0004564    5.7720543  
O   -2.1456383   -0.0005410    6.8851312  
C    0.0786232   -0.0009323    6.0245000  
O    0.4683759   -0.0012588    7.1921102  
C    1.0143166   -0.0008442    4.8859032  
H    2.1107198   -0.0000632    2.0421868  
H   -2.9622183    0.0003270    4.3293377  
H   -1.5042274   -0.0009692    7.6184419  
H    2.0724152   -0.0013148    5.1109744  
