60

C   -3.2883813    0.0017546   -7.3160641  
C   -4.0380125    0.0026654   -6.1625824  
C   -5.4088227    0.0031592   -6.5568927  
C   -5.4339655    0.0022207   -7.9750928  
N   -4.1298298    0.0033329   -8.4038653  
C   -6.6231269    0.0020812   -8.7104065  
C   -7.8084999    0.0025969   -8.0011320  
O   -8.9987474    0.0021373   -8.6692069  
C   -7.8039928    0.0039100   -6.5859306  
O   -9.0649046    0.0047031   -6.0260694  
C   -6.6312329    0.0043217   -5.8598729  
H   -3.6451521    0.0040452   -5.1602592  
H   -3.8343553   -0.0075338   -9.3633219  
H   -6.6490541    0.0015119   -9.7913909  
H   -9.6904141    0.0029214   -7.9947729  
H   -8.9724830    0.0055451   -5.0684364  
H   -6.6592223    0.0055158   -4.7765019  
C    0.0139742    0.0003878   -4.4216236  
C    1.0657034    0.0004477   -5.2806583  
C    0.5180450    0.0007113   -6.6166624  
C   -0.9494789    0.0008300   -6.4644642  
N   -1.1898345    0.0002247   -5.1097987  
C   -1.8296152    0.0014748   -7.4974515  
C   -1.2959129    0.0018668   -8.8493753  
O   -2.0065337    0.0023907   -9.8460291  
C    0.2551150    0.0014974   -9.0340855  
O    0.7160969    0.0015157  -10.1675560  
C    1.1016982    0.0010812   -7.8436448  
H    2.1063859    0.0001392   -5.0093774  
H    2.1745868    0.0010325   -7.9801520  
H   -2.0996068    0.0017004   -4.6862906  
C    3.2798085    0.0005856   -1.4499646  
C    2.5571146    0.0005565   -2.5996553  
C    1.1637435    0.0001548   -2.2210360  
C    1.1336964   -0.0000200   -0.7459470  
N    2.4483515   -0.0001429   -0.3402716  
C    0.0000000    0.0000000    0.0000000  
C   -1.2757368   -0.0000187   -0.6964415  
O   -2.3524594   -0.0000640   -0.1142314  
C   -1.2676495   -0.0000873   -2.2584081  
O   -2.3355761   -0.0004101   -2.8557295  
C    0.0181563    0.0001759   -2.9516296  
H    2.9547358    0.0006075   -3.5989104  
H    4.3498547    0.0008611   -1.3200019  
H    2.7563628    0.0012823    0.6148064  
C    0.0000000    0.0000000    1.4700000  
C    1.0662921    0.0000102    2.3034270  
C    0.4961870   -0.0000064    3.6418889  
C   -0.9663858    0.0000850    3.4240247  
N   -1.2632773    0.0000084    2.1528658  
C   -1.8985362    0.0000517    4.5177257  
C   -1.3925775   -0.0004564    5.7720543  
O   -2.1456383   -0.0005410    6.8851312  
C    0.0786232   -0.0009323    6.0245000  
O    0.4683759   -0.0012588    7.1921102  
C    1.0143166   -0.0008442    4.8859032  
H    2.1107198   -0.0000632    2.0421868  
H   -2.9622183    0.0003270    4.3293377  
H   -1.5042274   -0.0009692    7.6184419  
H    2.0724152   -0.0013148    5.1109744  
