64

C    1.1188650    0.0008222   -0.8003808  
C    0.0000000    0.0000000    0.0000000  
C   -1.1323856    0.0008897   -0.8673534  
C   -0.6382649    0.0019678   -2.1969285  
N    0.7324026    0.0038480   -2.1202240  
C   -1.4770900    0.0027314   -3.3154818  
C   -2.8395465    0.0020940   -3.0876867  
O   -3.7039184    0.0024421   -4.1440361  
C   -3.3517859    0.0013925   -1.7684342  
O   -4.7300486    0.0012362   -1.7073139  
C   -2.5248539    0.0009122   -0.6644828  
H   -1.1067552    0.0036986   -4.3313817  
H   -4.5940017    0.0021823   -3.7685147  
H   -4.9934592    0.0007256   -0.7819932  
H   -2.9462578    0.0005601    0.3339647  
H    2.1619901    0.0009355   -0.5342063  
C    4.5841865   -2.0202110   -3.0853082  
C    3.4713878   -1.6303065   -2.4210555  
C    2.7894971   -0.7233874   -3.3315622  
C    3.6536755   -0.6796189   -4.5306716  
N    4.7071677   -1.4378856   -4.3921933  
C    3.3222621    0.1187973   -5.6786193  
C    2.1792868    0.8403743   -5.6309815  
O    1.7472617    1.6288353   -6.6298431  
C    1.2859871    0.8168684   -4.4353128  
O    0.2614373    1.4986633   -4.4612745  
C    1.6478449   -0.0100100   -3.2702997  
H    3.1525877   -1.9221623   -1.4350213  
H    0.9116310    2.0080726   -6.3026525  
H    5.3560074   -2.6944334   -2.7496145  
C    4.2068241    0.1368585   -6.8525548  
C    5.3922773   -0.5232890   -7.0792119  
C    5.8338664   -0.1502331   -8.3832167  
C    4.8692818    0.7474044   -8.9083356  
N    3.8939141    0.8983912   -7.9541465  
C    4.9814097    1.3195351  -10.1791160  
C    6.0875821    0.9795448  -10.9334143  
O    6.2468110    1.5096064  -12.1810902  
C    7.0606555    0.0853878  -10.4270262  
O    8.1029709   -0.1536926  -11.2986690  
C    6.9505478   -0.4796225   -9.1735646  
H    5.8783295   -1.1923736   -6.3899571  
H    3.0837755    1.4851296   -8.0401429  
H    4.2496286    2.0042379  -10.5851713  
H    7.0717404    1.1464755  -12.5287847  
H    8.7149120   -0.7668415  -10.8801236  
H    7.7117349   -1.1614072   -8.8126735  
C    0.8676693    0.7151171    2.2619005  
C    0.5875920    0.4624972    3.5848544  
C   -0.5048400   -0.4542819    3.6114698  
C   -0.8517165   -0.7276451    2.2635546  
N    0.0000000    0.0000000    1.4700000  
C   -1.8902865   -1.5946756    1.9108239  
C   -2.5912627   -2.1969500    2.9375057  
O   -3.6148162   -3.0527051    2.6493466  
C   -2.2603868   -1.9365747    4.2886322  
O   -3.0513550   -2.6123276    5.1947621  
C   -1.2361111   -1.0811317    4.6373480  
H    1.1060808    0.8876438    4.4271209  
H   -2.1597133   -1.8070987    0.8854031  
H   -3.9636755   -3.3565188    3.4974381  
H   -2.7621927   -2.3810384    6.0827341  
H   -1.0058879   -0.9010589    5.6809233  
H    1.6167816    1.3499334    1.8205408  
