62

C    1.1793678    0.0025701   -7.9489253  
C    0.0376577    0.0043272   -7.1814865  
C   -1.0689733    0.0053549   -8.0814677  
C   -0.5363221    0.0038551   -9.3960806  
N    0.8315294    0.0041338   -9.2794722  
C   -1.3421989    0.0040194  -10.5385999  
C   -2.7107132    0.0054219  -10.3506017  
O   -3.5439392    0.0052940  -11.4316886  
C   -3.2611740    0.0073057   -9.0468357  
O   -4.6406322    0.0089634   -9.0259017  
C   -2.4667601    0.0074180   -7.9192577  
H    0.0062900    0.0059140   -6.1053793  
H    1.4793674   -0.0072709  -10.0463856  
H   -0.9424203    0.0030256  -11.5432791  
H   -4.4445856    0.0067011  -11.0822620  
H   -4.9308928    0.0101465   -8.1086493  
H   -2.9170764    0.0090649   -6.9335141  
C    3.1006060    0.0006268   -3.9654947  
C    4.4058792   -0.0003266   -4.3999233  
C    4.3701025   -0.0003735   -5.8258687  
C    3.0041047    0.0008689   -6.2079349  
N    2.2602341   -0.0005001   -5.0541280  
C    2.5925322    0.0014788   -7.5441225  
C    3.5778764    0.0011295   -8.5122524  
O    3.2316408    0.0020454   -9.8325298  
C    4.9461773   -0.0004816   -8.1509114  
O    5.8059951   -0.0010569   -9.2298264  
C    5.3529314   -0.0013572   -6.8329292  
H    5.2766923   -0.0020210   -3.7669344  
H    1.2572718    0.0104893   -5.0102246  
H    4.0587363    0.0013039  -10.3317057  
H    6.7093478   -0.0021242   -8.8988329  
H    6.4083298   -0.0027710   -6.5867368  
C    3.2798085    0.0005859   -1.4499648  
C    2.5571146    0.0005569   -2.5996553  
C    1.1637437    0.0001551   -2.2210359  
C    1.1336966   -0.0000198   -0.7459471  
N    2.4483513   -0.0001427   -0.3402720  
C    0.0000000    0.0000000    0.0000000  
C   -1.2757366   -0.0000185   -0.6964416  
O   -2.3524595   -0.0000640   -0.1142313  
C   -1.2676493   -0.0000870   -2.2584084  
O   -2.3355759   -0.0004098   -2.8557296  
C    0.0181563    0.0001763   -2.9516295  
H    0.0150795    0.0003323   -4.0331630  
H    4.3498549    0.0008614   -1.3200020  
H    2.7563627    0.0012824    0.6148062  
C    0.8681109    0.7263879    2.2709268  
C    0.6127770    0.5096195    3.5869401  
C   -0.4920590   -0.4175482    3.6542670  
C   -0.8620974   -0.7254003    2.2596025  
N    0.0000000    0.0000000    1.4700000  
C   -1.8641242   -1.5660088    1.8976294  
C   -2.6293522   -2.2103885    2.9520183  
O   -3.5512764   -2.9839180    2.7283916  
C   -2.2549728   -1.8987399    4.4361073  
O   -2.8923672   -2.4351063    5.3323774  
C   -1.1543735   -0.9755647    4.7012123  
H    1.1382914    0.9492124    4.4159191  
H   -2.1192137   -1.7782617    0.8686553  
H   -0.9013378   -0.7652422    5.7314848  
H    1.6172880    1.3558399    1.8188057  
