62

C    9.2566789    0.0028820   -3.2380397  
C    9.8847795    0.0021402   -2.0141295  
C   11.2886526    0.0030893   -2.2665988  
C   11.4582799    0.0046931   -3.6748420  
N   10.2046682    0.0025723   -4.2343656  
C   12.7162245    0.0062626   -4.2850589  
C   13.8230913    0.0065190   -3.4586070  
O   15.0752588    0.0083789   -4.0018268  
C   13.6742970    0.0045608   -2.0512434  
O   14.8715451    0.0046772   -1.3657221  
C   12.4336135    0.0027386   -1.4485604  
H    9.3917594   -0.0000558   -1.0570930  
H   10.0085615    0.0136009   -5.2189481  
H   12.8522468    0.0073452   -5.3577659  
H   15.6945467    0.0079273   -3.2603773  
H   14.6819551    0.0033162   -0.4225060  
H   12.3509836    0.0010798   -0.3679828  
C    5.6484569   -0.0000687   -0.6807740  
C    4.7161325   -0.0005435   -1.6923264  
C    5.4371286    0.0004108   -2.9230838  
C    6.8175141    0.0011683   -2.5968002  
N    6.9105275    0.0028041   -1.2271422  
C    7.8240136    0.0018984   -3.5672365  
C    7.4298420    0.0015561   -4.8911720  
O    8.3714604    0.0018859   -5.8792857  
C    6.0574640    0.0011768   -5.2367103  
O    5.8267420    0.0012899   -6.5968985  
C    5.0639868    0.0007296   -4.2798774  
H    7.7671525   -0.0069128   -0.7036149  
H    7.8889784    0.0018577   -6.7162296  
H    4.8759896    0.0009873   -6.7441179  
H    4.0211713    0.0006278   -4.5748589  
H    5.5130317   -0.0001060    0.3872238  
C    3.2573665   -0.0002920   -1.5109385  
C    2.5379463   -0.0001709   -0.3591964  
C    1.1435038    0.0000331   -0.7338500  
C    1.1092599   -0.0000083   -2.2088477  
N    2.4227553    0.0001909   -2.6182613  
C   -0.0265539   -0.0002524   -2.9515660  
C   -1.3003040   -0.0002640   -2.2514977  
O   -2.3786790   -0.0004133   -2.8306421  
C   -1.2877727    0.0000311   -0.6895603  
O   -2.3539959    0.0003306   -0.0892030  
C    0.0000000    0.0000000    0.0000000  
H    2.9384091   -0.0000367    0.6389234  
H   -0.0296303   -0.0004086   -4.0327229  
H    2.7280482   -0.0013407   -3.5742119  
C    2.4951002    2.0940188    2.9809380  
C    1.9440701    1.6314916    1.8291961  
C    0.8759964    0.7350050    2.2038498  
C    0.8497377    0.7130254    3.6788474  
N    1.8560616    1.5571714    4.0882609  
C   -0.0205033   -0.0168748    4.4215661  
C   -0.9962600   -0.8356168    3.7214979  
O   -1.8224391   -1.5286685    4.3006425  
C   -0.9864710   -0.8277881    2.1595606  
O   -1.8030528   -1.5133726    1.5592035  
C    0.0000000    0.0000000    1.4700000  
H    2.2509283    1.8888011    0.8310761  
H   -0.0229599   -0.0187323    5.5027230  
H    3.3143982    2.7817323    3.1139444  
H    2.0889452    1.7545833    5.0442112  
