60

C    5.6685267    0.0002157   -2.2869307  
C    4.7390844    0.0009612   -1.2727295  
C    5.4635795    0.0004225   -0.0440283  
C    6.8430309   -0.0003722   -0.3742384  
N    6.9321468   -0.0024287   -1.7441550  
C    7.8522875   -0.0007544    0.5933305  
C    7.4618846   -0.0000194    1.9183826  
O    8.4063108    0.0000012    2.9038117  
C    6.0904959    0.0004035    2.2678240  
O    5.8636452    0.0007017    3.6286626  
C    5.0942999    0.0005074    1.3138219  
H    7.7872777    0.0071654   -2.2701206  
H    8.9054278   -0.0015041    0.3481836  
H    7.9262132    0.0002667    3.7421253  
H    4.9133156    0.0010058    3.7785865  
H    4.0523283    0.0006524    1.6117690  
H    5.5300628   -0.0000848   -3.3545385  
C    3.2798077    0.0005856   -1.4499659  
C    2.5571132    0.0005565   -2.5996562  
C    1.1637425    0.0001548   -2.2210364  
C    1.1336957   -0.0000200   -0.7459472  
N    2.4483508   -0.0001429   -0.3402728  
C    0.0000000    0.0000000    0.0000000  
C   -1.2757370   -0.0000187   -0.6964410  
O   -2.3524597   -0.0000640   -0.1142306  
C   -1.2676501   -0.0000873   -2.2584079  
O   -2.3355772   -0.0004101   -2.8557287  
C    0.0181552    0.0001759   -2.9516296  
H    2.9547343    0.0006074   -3.5989115  
H    2.7563624    0.0012823    0.6148054  
C    0.8518565   -0.7041558   -5.2251428  
C    0.0139724    0.0003878   -4.4216237  
C   -0.8729907    0.7427330   -5.2859473  
C   -0.4803645    0.4105165   -6.6687947  
N    0.5708988   -0.4706743   -6.5627861  
C   -1.0793725    0.9102634   -7.7792663  
C   -2.1843909    1.8373743   -7.6005621  
O   -2.7886826    2.3420364   -8.5378186  
C   -2.6168974    2.2035197   -6.1449933  
O   -3.5457374    2.9832471   -5.9820767  
C   -1.8948221    1.6002144   -5.0276383  
H   -0.7759787    0.6535191   -8.7847236  
H   -2.2006146    1.8587647   -4.0229660  
H    1.6510888   -1.3741283   -4.9526469  
H    1.0576066   -0.8824758   -7.3377583  
C    2.4951002    2.0940188    2.9809380  
C    1.9440701    1.6314916    1.8291961  
C    0.8759964    0.7350050    2.2038498  
C    0.8497377    0.7130254    3.6788474  
N    1.8560616    1.5571714    4.0882609  
C   -0.0205033   -0.0168748    4.4215661  
C   -0.9962600   -0.8356168    3.7214979  
O   -1.8224391   -1.5286685    4.3006425  
C   -0.9864710   -0.8277881    2.1595606  
O   -1.8030528   -1.5133726    1.5592035  
C    0.0000000    0.0000000    1.4700000  
H    2.2509283    1.8888011    0.8310761  
H   -0.0229599   -0.0187323    5.5027230  
H    3.3143982    2.7817323    3.1139444  
H    2.0889452    1.7545833    5.0442112  
