62

C    6.2084881   -2.3697957   -6.2475066  
C    5.7788232   -1.0668186   -6.3480376  
C    6.6020969   -0.4310557   -7.3240626  
C    7.5237875   -1.4039861   -7.7886270  
N    7.2584532   -2.5692311   -7.1130386  
C    8.4904495   -1.1269682   -8.7600246  
C    8.5271444    0.1554990   -9.2719904  
O    9.4508214    0.4800595  -10.2230414  
C    7.6161961    1.1401474   -8.8209287  
O    7.7805159    2.3686392   -9.4268590  
C    6.6624729    0.8676423   -7.8624514  
H    7.7456170   -3.4377962   -7.2405059  
H    9.1958864   -1.8640274   -9.1182232  
H    9.3050057    1.4102941  -10.4390649  
H    7.1269435    2.9755392   -9.0661379  
H    5.9783011    1.6423525   -7.5365523  
H    5.8499891   -3.1722759   -5.6258454  
C    4.4071365   -0.7184468   -4.2557781  
C    3.2973506   -0.0000934   -3.8752374  
C    2.8597412    0.7281416   -5.0210001  
C    3.7486367    0.4113758   -6.0799855  
N    4.6772283   -0.4679007   -5.5807785  
C    3.6188207    0.9508685   -7.3632955  
C    2.5724307    1.8258426   -7.5816217  
O    2.3991138    2.3814367   -8.8162437  
C    1.6752944    2.1545387   -6.5376284  
O    0.6861522    3.0400261   -6.9129343  
C    1.8029168    1.6229035   -5.2712939  
H    4.2930456    0.7135786   -8.1746616  
H    1.6230841    2.9531877   -8.7518675  
H    0.1239561    3.2089555   -6.1507000  
H    1.1004517    1.8934779   -4.4916717  
H    5.0282467   -1.3886014   -3.6865034  
C    3.3321174    0.0004714   -1.3379332  
C    2.6974186    0.0000115   -2.5332308  
C    1.2800441   -0.0002119   -2.2052838  
C    1.2395035    0.0000643   -0.7271293  
N    2.4394063    0.0005458   -0.2131034  
C    0.0000000    0.0000000    0.0000000  
C   -1.1468701    0.0000634   -0.7169542  
O   -2.3742201    0.0000072   -0.1695492  
C   -1.1388767    0.0001606   -2.2096354  
O   -2.2206229    0.0000903   -2.7970413  
C    0.1454526    0.0001815   -2.9324239  
H   -2.9844344    0.0001023   -0.9290168  
H    0.1083580    0.0003680   -4.0135594  
H    4.3940040    0.0007617   -1.1498630  
C    0.0000000    0.0000000    1.4700000  
C    1.0541688    0.0001722    2.3260392  
C    0.5103138    0.0000454    3.6635956  
C   -0.9576371   -0.0002459    3.5155732  
N   -1.2018458    0.0001392    2.1615969  
C   -1.8348311   -0.0008317    4.5510609  
C   -1.2972847   -0.0009736    5.9014604  
O   -2.0050672   -0.0014265    6.9001319  
C    0.2542623   -0.0004184    6.0817573  
O    0.7184670   -0.0002256    7.2139121  
C    1.0974552   -0.0000873    4.8889129  
H    2.0940752    0.0005483    2.0517982  
H   -2.9081052   -0.0011668    4.4207061  
H    2.1707277    0.0000911    5.0223670  
H   -2.1128194   -0.0014912    1.7406791  
