60

C    5.3808521   -0.8942174   -8.6660526  
C    4.8833646    0.1895903   -7.9802429  
C    5.0252038    1.3234209   -8.8340059  
C    5.6201778    0.8662197  -10.0377073  
N    5.8246686   -0.4844327   -9.9015490  
C    5.9080466    1.7165273  -11.1095732  
C    5.5892110    3.0526644  -10.9637688  
O    5.8485009    3.9266905  -11.9795744  
C    4.9954706    3.5279935   -9.7703073  
O    4.7383616    4.8834140   -9.7789308  
C    4.7114476    2.6897618   -8.7123728  
H    6.2234664   -1.0844195  -10.6008038  
H    6.3615621    1.3743142  -12.0295817  
H    5.5533425    4.7946572  -11.6749763  
H    4.3381392    5.1224271   -8.9373259  
H    4.2565363    3.0827359   -7.8106495  
H    5.4555288   -1.9268772   -8.3711017  
C    6.1812373   -2.0122605   -4.4510963  
C    5.2702187   -1.6303461   -3.5260204  
C    4.3856200   -0.7126510   -4.2273195  
C    4.9238565   -0.6545500   -5.6033682  
N    5.9763881   -1.4143797   -5.7405736  
C    4.3191903    0.1574945   -6.6231959  
C    3.2262690    0.8784137   -6.2838837  
O    2.5612865    1.6787218   -7.1343809  
C    2.6590319    0.8406141   -4.9036753  
O    1.6623422    1.5226360   -4.6656073  
C    3.2973506   -0.0000934   -3.8752374  
H    5.2063282   -1.9339561   -2.4950913  
H    1.8346677    2.0540005   -6.6049057  
H    7.0103757   -2.6904146   -4.3261563  
C    3.3321174    0.0004714   -1.3379332  
C    2.6974186    0.0000115   -2.5332308  
C    1.2800441   -0.0002119   -2.2052838  
C    1.2395035    0.0000643   -0.7271293  
N    2.4394063    0.0005458   -0.2131034  
C    0.0000000    0.0000000    0.0000000  
C   -1.1468701    0.0000634   -0.7169542  
O   -2.3742201    0.0000072   -0.1695492  
C   -1.1388767    0.0001606   -2.2096354  
O   -2.2206229    0.0000903   -2.7970413  
C    0.1454526    0.0001815   -2.9324239  
H   -2.9844344    0.0001023   -0.9290168  
H    0.1083580    0.0003680   -4.0135594  
H    4.3940040    0.0007617   -1.1498630  
C    0.8681109    0.7263879    2.2709268  
C    0.6127770    0.5096195    3.5869401  
C   -0.4920590   -0.4175482    3.6542670  
C   -0.8620974   -0.7254003    2.2596025  
N    0.0000000    0.0000000    1.4700000  
C   -1.8641242   -1.5660088    1.8976294  
C   -2.6293522   -2.2103885    2.9520183  
O   -3.5512764   -2.9839180    2.7283916  
C   -2.2549728   -1.8987399    4.4361073  
O   -2.8923672   -2.4351063    5.3323774  
C   -1.1543735   -0.9755647    4.7012123  
H    1.1382914    0.9492124    4.4159191  
H   -2.1192137   -1.7782617    0.8686553  
H   -0.9013378   -0.7652422    5.7314848  
H    1.6172880    1.3558399    1.8188057  
