60

C   -5.2390164    2.1323056   -6.1878425  
C   -6.2428947    1.6348179   -6.9860921  
C   -5.6285296    0.7619204   -7.9322448  
C   -4.2364868    0.7664461   -7.6599895  
N   -4.0340160    1.6102158   -6.5961871  
C   -3.3187311    0.0147086   -8.3998563  
C   -3.8153168   -0.7558662   -9.4331982  
O   -2.9632217   -1.5095592  -10.1874504  
C   -5.2009406   -0.7732951   -9.7205305  
O   -5.5386788   -1.5898552  -10.7800141  
C   -6.1068741   -0.0317289   -8.9912220  
H   -7.2891415    1.8727469   -6.8980544  
H   -3.1455503    1.8058524   -6.1715271  
H   -3.5079392   -1.9627469  -10.8440841  
H   -6.4911946   -1.5443624  -10.9074832  
H   -7.1623405   -0.0650915   -9.2348459  
H   -5.2870361    2.8193572   -5.3604299  
C   -1.0641738    0.0073911   -4.6315339  
C    0.2004553    0.0078178   -5.1262942  
C    0.0892946    0.0101555   -6.5659030  
C   -1.3541083    0.0110917   -6.8714806  
N   -1.9986532    0.0089311   -5.6559784  
C   -1.8747039    0.0136545   -8.1247479  
C   -0.9518136    0.0153963   -9.2476043  
O   -1.3222287    0.0176755  -10.4142606  
C    0.5810414    0.0141933   -8.9473387  
O    1.3676713    0.0153340   -9.8846081  
C    1.0213765    0.0116821   -7.5545177  
H    1.1076402    0.0064481   -4.5486895  
H    2.0843764    0.0110680   -7.3551324  
H   -2.9945001    0.0104955   -5.5321487  
C    1.1319245    0.0015656   -0.8009271  
C    0.7969914    0.0034943   -2.1169404  
C   -0.6453340    0.0035712   -2.1842672  
C   -1.1266833    0.0015434   -0.7896027  
N    0.0000000    0.0000000    0.0000000  
C   -2.4346131    0.0013965   -0.4276296  
C   -3.4350110    0.0031409   -1.4820182  
O   -4.6384610    0.0030975   -1.2583916  
C   -2.9478961    0.0050507   -2.9661073  
O   -3.7809383    0.0062220   -3.8623773  
C   -1.5113824    0.0053091   -3.2312124  
H    1.4821237    0.0045409   -2.9459193  
H   -2.7664564    0.0000233    0.6013449  
H    2.1104315    0.0009392   -0.3488061  
C    2.4951002    2.0940188    2.9809380  
C    1.9440701    1.6314916    1.8291961  
C    0.8759964    0.7350050    2.2038498  
C    0.8497377    0.7130254    3.6788474  
N    1.8560616    1.5571714    4.0882609  
C   -0.0205033   -0.0168748    4.4215661  
C   -0.9962600   -0.8356168    3.7214979  
O   -1.8224391   -1.5286685    4.3006425  
C   -0.9864710   -0.8277881    2.1595606  
O   -1.8030528   -1.5133726    1.5592035  
C    0.0000000    0.0000000    1.4700000  
H    2.2509283    1.8888011    0.8310761  
H   -0.0229599   -0.0187323    5.5027230  
H    3.3143982    2.7817323    3.1139444  
H    2.0889452    1.7545833    5.0442112  
