60

C    9.8721974   -0.7111882   -2.1748556  
C   11.0879268   -0.4613109   -2.7681776  
C   10.8483543    0.4462317   -3.8422218  
C    9.4560876    0.7170479   -3.8555837  
N    8.8929592   -0.0031758   -2.8314836  
C    8.8614886    1.5754052   -4.7853495  
C    9.6874658    2.1714655   -5.7184377  
O    9.1591731    3.0186551   -6.6491304  
C   11.0789616    1.9135006   -5.7214842  
O   11.7660938    2.5823134   -6.7133928  
C   11.6661922    1.0666116   -4.8047157  
H   12.0312141   -0.8823171   -2.4649351  
H    7.8009821    1.7858438   -4.8009291  
H    9.8973936    3.3192804   -7.1949507  
H   12.6980181    2.3532144   -6.6453161  
H   12.7347933    0.8881867   -4.8318282  
H    9.6259023   -1.3395501   -1.3361312  
C    6.5698745   -0.0006424    0.9721610  
C    7.6069601   -0.0018567    0.1026609  
C    6.9912940   -0.0024304   -1.2154644  
C    5.5370524   -0.0015106   -0.9475763  
N    5.2839240   -0.0003802    0.3330154  
C    4.5679461   -0.0016854   -2.0086701  
C    5.0305960   -0.0023424   -3.2796107  
O    4.2398095   -0.0025847   -4.3662099  
C    6.4922749   -0.0029068   -3.5823560  
O    6.8417602   -0.0036172   -4.7626442  
C    7.4664610   -0.0027579   -2.4765141  
H    8.6597324   -0.0022168    0.3279336  
H    4.8556979   -0.0030411   -5.1210837  
H    6.6068538    0.0001033    2.0499390  
C    3.1301149   -0.0010311   -1.7028252  
C    2.5367768   -0.0002767   -0.4864665  
C    1.1089904    0.0001028   -0.7656183  
C    1.0177872   -0.0004148   -2.2415132  
N    2.1993578   -0.0011611   -2.7963820  
C   -0.2459209   -0.0002877   -2.9257118  
C   -1.3675319   -0.0000605   -2.1698524  
O   -2.6129313    0.0000867   -2.6748490  
C   -1.3083584    0.0000910   -0.6783232  
O   -2.3693261    0.0004206   -0.0541692  
C    0.0000000    0.0000000    0.0000000  
H    3.0096017   -0.0001007    0.4807525  
H   -0.2829630   -0.0004687   -4.0053125  
H   -3.1967441    0.0002094   -1.8949034  
C    0.8175213    0.6860729    2.3021913  
C    0.0000000    0.0000000    1.4700000  
C   -0.8887526   -0.7456559    2.3478473  
C   -0.4549825   -0.3816753    3.7138435  
N    0.5448156    0.4573574    3.6934124  
C   -1.0945674   -0.9182058    4.8835240  
C   -2.1210866   -1.7789155    4.6970523  
O   -2.8083856   -2.3554314    5.6976972  
C   -2.5824069   -2.1655116    3.3310774  
O   -3.5227682   -2.9541547    3.2362962  
C   -1.9100805   -1.6015804    2.1470656  
H   -0.7567140   -0.6349833    5.8697035  
H   -3.4728268   -2.9124471    5.2533954  
H   -2.2742832   -1.9066565    1.1752040  
H    1.6189533    1.3585343    2.0405121  
