62

C    6.7034526    0.1935465   -4.8584155  
C    7.7678576   -0.4638689   -4.2863007  
C    8.9346837   -0.0743005   -5.0083477  
C    8.5167684    0.8301285   -6.0179423  
N    7.1561085    0.9691139   -5.9000236  
C    9.4065743    1.4183904   -6.9218130  
C   10.7426427    1.0878458   -6.8041712  
O   11.6544538    1.6337394   -7.6606840  
C   11.1789889    0.1871342   -5.8036025  
O   12.5395556   -0.0410016   -5.8161246  
C   10.3016952   -0.3937873   -4.9117444  
H    7.7102299   -1.1417707   -3.4519617  
H    6.5807471    1.5570447   -6.4755909  
H    9.0943716    2.1083431   -7.6936274  
H   12.5151418    1.2749231   -7.4082315  
H   12.7507431   -0.6595441   -5.1101440  
H   10.6652829   -1.0802516   -4.1560666  
C    4.6171599   -2.0114326   -1.7322447  
C    3.3328193   -1.6298291   -1.9231037  
C    3.3780282   -0.7112570   -3.0503490  
C    4.8069992   -0.6523616   -3.4260571  
N    5.5382134   -1.4125186   -2.6569816  
C    5.2745454    0.1606804   -4.5148408  
C    4.3562407    0.8817945   -5.1975154  
O    4.6514314    1.6829997   -6.2352884  
C    2.9068165    0.8432089   -4.8427747  
O    2.1270270    1.5254609   -5.5073660  
C    2.4521483    0.0014840   -3.7217481  
H    2.4622564   -1.9341724   -1.3676124  
H    3.7953895    2.0581840   -6.5102098  
H    5.0049134   -2.6900158   -0.9891801  
C    0.0000000    0.0000000    0.0000000  
C    1.0662923   -0.0000101   -0.8334270  
C    0.4961873    0.0000065   -2.1718887  
C   -0.9663854   -0.0000848   -1.9540250  
N   -1.2632773   -0.0000083   -0.6828660  
C   -1.8985359   -0.0000514   -3.0477261  
C   -1.3925770    0.0004566   -4.3020547  
O   -2.1456378    0.0005414   -5.4151314  
C    0.0786240    0.0009326   -4.5545000  
O    0.4683767    0.0012591   -5.7221100  
C    1.0143171    0.0008444   -3.4159031  
H    2.1107200    0.0000633   -0.5721865  
H   -2.9622181   -0.0003268   -2.8593381  
H   -1.5042265    0.0009697   -6.1484419  
C    3.3041272   -0.0001177    3.0120429  
C    2.5845372    0.0004780    1.8395852  
C    1.2040006    0.0000008    2.1983588  
C    1.1422373   -0.0006037    3.6154372  
N    2.4348639   -0.0026109    4.0777464  
C   -0.0655181   -0.0008797    4.3197917  
C   -1.2321768   -0.0002324    3.5801400  
O   -2.4392816   -0.0001146    4.2172520  
C   -1.1911209    0.0000007    2.1655264  
O   -2.4371527    0.0002320    1.5732860  
C    0.0000000    0.0000000    1.4700000  
H    3.0031534    0.0000661    0.8477417  
H    2.7054629    0.0071099    5.0445261  
H   -0.1193549   -0.0014844    5.3997470  
H   -3.1132988    0.0000648    3.5251786  
H   -2.3200282    0.0004071    0.6183591  
H    4.3686625   -0.0004071    3.1724291  
