60

C    4.6169818   -2.1215080    0.3140822  
C    4.7549096   -1.6590889   -0.9741766  
C    5.8718215   -0.7719224   -0.9807571  
C    6.3797976   -0.7324446    0.3429982  
N    5.5936707   -1.5616131    1.1039854  
C    7.4847591    0.0433962    0.7062059  
C    8.0880958    0.7928054   -0.2850297  
O    9.1708262    1.5679582    0.0147158  
C    7.5956980    0.7669152   -1.6115635  
O    8.3044933    1.5675692   -2.4832888  
C    6.5055040    0.0019695   -1.9705360  
H    4.1269935   -1.9272594   -1.8065220  
H    5.7198879   -1.7433720    2.0832775  
H    7.8767016    0.0779404    1.7133754  
H    9.4326589    2.0011901   -0.8080950  
H    7.9073602    1.4926342   -3.3563716  
H    3.8983107   -2.8053060    0.7322822  
C    2.4521485    0.0014838   -3.7217479  
C    3.5087829    0.0013023   -2.8687536  
C    4.7039154    0.0022084   -3.6789958  
C    4.2537131    0.0029671   -5.0840252  
N    2.8785576    0.0020813   -5.0411853  
C    5.0840337    0.0043213   -6.1574641  
C    6.5167228    0.0048564   -5.9126426  
O    7.3462800    0.0060004   -6.8127172  
C    7.0158851    0.0038175   -4.4325611  
O    8.2198465    0.0039492   -4.2140686  
C    6.0245775    0.0026616   -3.3596400  
H    3.4569040    0.0004300   -1.7945464  
H    4.7332280    0.0049887   -7.1801302  
H    2.2773150    0.0038584   -5.8446475  
C    0.0000000    0.0000000    0.0000000  
C    1.0662924   -0.0000102   -0.8334267  
C    0.4961874    0.0000064   -2.1718888  
C   -0.9663853   -0.0000849   -1.9540250  
N   -1.2632772   -0.0000084   -0.6828660  
C   -1.8985357   -0.0000515   -3.0477261  
C   -1.3925767    0.0004566   -4.3020548  
O   -2.1456375    0.0005411   -5.4151316  
C    0.0786242    0.0009324   -4.5545000  
O    0.4683770    0.0012590   -5.7221099  
C    1.0143173    0.0008443   -3.4159029  
H    2.1107200    0.0000632   -0.5721862  
H   -2.9622180   -0.0003269   -2.8593382  
H   -1.5042262    0.0009694   -6.1484423  
C    1.0672568    0.0000697    2.3021913  
C    0.0000000    0.0000000    1.4700000  
C   -1.1601224    0.0000736    2.3478473  
C   -0.5938729    0.0000769    3.7138435  
N    0.7113367    0.0001554    3.6934124  
C   -1.4286986    0.0001879    4.8835240  
C   -2.7683114    0.0006799    4.6970523  
O   -3.6653903    0.0008304    5.6976972  
C   -3.3702025    0.0010610    3.3310774  
O   -4.5974910    0.0013779    3.2362962  
C   -2.4926826    0.0008943    2.1470656  
H   -0.9878360   -0.0000190    5.8697035  
H   -4.5324246    0.0012261    5.2533954  
H   -2.9677772    0.0012974    1.1752040  
H    2.1134392    0.0000545    2.0405121  
