60

C    7.9583974   -3.7031091   -4.2322490  
C    6.9035289   -3.0702415   -3.6164583  
C    6.9028210   -3.4921718   -2.2538963  
C    7.9896998   -4.3896950   -2.0955520  
N    8.6083631   -4.4968679   -3.3163661  
C    8.2921977   -5.0034755   -0.8763071  
C    7.4829355   -4.7055531    0.2028199  
O    7.7336163   -5.2767894    1.4168466  
C    6.3935651   -3.8128091    0.0646236  
O    5.6824200   -3.6189146    1.2308230  
C    6.0943931   -3.2071446   -1.1379537  
H    9.4190907   -5.0568732   -3.5089672  
H    9.1190546   -5.6885518   -0.7491104  
H    7.0605039   -4.9388657    2.0218189  
H    4.9651165   -3.0035217    1.0509031  
H    5.2533685   -2.5278325   -1.2133911  
H    8.2977102   -3.6522075   -5.2526577  
C    5.9676385   -2.1403201   -4.2647287  
C    5.9574580   -1.7327287   -5.5552114  
C    4.8270660   -0.8220457   -5.6520102  
C    4.2518649   -0.7958515   -4.2900113  
N    4.9163000   -1.5666193   -3.4724345  
C    3.1006054    0.0006263   -3.9654951  
C    2.5492758    0.7377404   -4.9564711  
O    1.4731209    1.5264230   -4.7955005  
C    3.1069008    0.7327491   -6.3410973  
O    2.5539554    1.4279030   -7.1932904  
C    4.2884402   -0.0925691   -6.6488941  
H    6.6335874   -2.0151067   -6.3440011  
H    1.3195663    1.9186838   -5.6739680  
H    4.6618638   -0.0685360   -7.6638851  
C    3.2798083    0.0005857   -1.4499652  
C    2.5571142    0.0005565   -2.5996556  
C    1.1637432    0.0001548   -2.2210361  
C    1.1336964   -0.0000200   -0.7459473  
N    2.4483512   -0.0001428   -0.3402723  
C    0.0000000    0.0000000    0.0000000  
C   -1.2757368   -0.0000186   -0.6964415  
O   -2.3524598   -0.0000639   -0.1142311  
C   -1.2676497   -0.0000872   -2.2584083  
O   -2.3355766   -0.0004101   -2.8557295  
C    0.0181558    0.0001758   -2.9516296  
H    0.0150788    0.0003319   -4.0331631  
H    4.3498547    0.0008612   -1.3200026  
H    2.7563626    0.0012823    0.6148059  
C    2.5128556    2.1077716    2.9199648  
C    1.9592212    1.6432552    4.0696553  
C    0.8915788    0.7479214    3.6910360  
C    0.8684491    0.7287414    2.2159470  
N    1.8754542    1.5738793    1.8102719  
C    0.0000000    0.0000000    1.4700000  
C   -0.9772830   -0.8200135    2.1664417  
O   -1.8021297   -1.5120829    1.5842315  
C   -0.9711318   -0.8147624    3.7284083  
O   -1.7894187   -1.5009653    4.3257297  
C    0.0140216    0.0115358    4.4216297  
H    2.2638494    1.8988021    5.0689105  
H    0.0117648    0.0094386    5.5031631  
H    3.3327358    2.7953732    2.7900019  
H    2.1123206    1.7707734    0.8551938  
