64

C    8.1857344    0.0031514   -2.6641678  
C    8.3354586    0.0066566   -4.0316608  
C    9.7369432    0.0088279   -4.2970584  
C   10.3981850    0.0061918   -3.0421964  
N    9.4269620    0.0047234   -2.0719689  
C   11.7910877    0.0070256   -2.9213250  
C   12.5299307    0.0102783   -4.0884919  
O   13.8935178    0.0108762   -4.0281399  
C   11.8884640    0.0133179   -5.3499706  
O   12.7620472    0.0167840   -6.4177638  
C   10.5143731    0.0127707   -5.4699658  
H    7.5332354    0.0086452   -4.7495931  
H    9.5953308   -0.0077843   -1.0822837  
H   12.3011386    0.0051730   -1.9678852  
H   14.2072649    0.0135765   -4.9418257  
H   12.2481898    0.0186535   -7.2311212  
H   10.0513840    0.0153360   -6.4498196  
C    5.6692779    0.0013336   -2.3388885  
C    4.7630507    0.0004755   -1.3275395  
C    5.5107321   -0.0007787   -0.0923041  
C    6.9370632   -0.0005503   -0.4696227  
N    6.9650294    0.0003504   -1.8451615  
C    7.9663623   -0.0010980    0.4148252  
C    7.6481548   -0.0021969    1.8330204  
O    8.5043581   -0.0028177    2.7077870  
C    6.1443518   -0.0027089    2.2553735  
O    5.8642059   -0.0039400    3.4464980  
C    5.1238526   -0.0017578    1.2101785  
H    9.0057222   -0.0007873    0.1170998  
H    4.0849824   -0.0019148    1.5109647  
H    5.4995508    0.0023846   -3.4033512  
C    3.3003548    0.0005276   -1.4738982  
C    2.5232817    0.0003497   -2.6090743  
C    1.1623204   -0.0001319   -2.1820101  
C    1.1711886    0.0000583   -0.7636140  
N    2.4852302   -0.0014919   -0.3662356  
C    0.0000000    0.0000000    0.0000000  
C   -1.2020379    0.0000520   -0.6806479  
O   -2.3759249    0.0003495    0.0157742  
C   -1.2314652   -0.0005112   -2.0955511  
O   -2.5054384   -0.0008036   -2.6250184  
C   -0.0764510   -0.0007271   -2.8495195  
H    2.8919962   -0.0005619   -3.6205297  
H    2.8036267    0.0088181    0.5858667  
H   -3.0835636    0.0000348   -0.6418823  
H   -2.4360038   -0.0011526   -3.5845925  
H   -0.1304090   -0.0013420   -3.9319089  
C    2.5311839    2.1237619    3.0120429  
C    1.9795631    1.6616747    1.8395852  
C    0.9223175    0.7739173    2.1983588  
C    0.8753926    0.7337535    3.6154372  
N    1.8668922    1.5631002    4.0777464  
C   -0.0496243   -0.0427881    4.3197917  
C   -0.9437528   -0.7922060    3.5801400  
O   -1.8685244   -1.5680278    4.2172520  
C   -0.9124520   -0.7656372    2.1655264  
O   -1.8671164   -1.5663939    1.5732860  
C    0.0000000    0.0000000    1.4700000  
H    2.3005065    1.9304404    0.8477417  
H    2.0679347    1.7444845    5.0445261  
H   -0.0904770   -0.0778569    5.3997470  
H   -2.3849669   -2.0011402    3.5251786  
H   -1.7775064   -1.4909735    0.6183591  
H    3.3468514    2.8078103    3.1724291  
