62

C    2.5432474   -2.1201839   -5.9711738  
C    1.9944233   -1.6589125   -4.7970838  
C    0.9351222   -0.7723427   -5.1527170  
C    0.8841191   -0.7320295   -6.5696505  
N    1.8752704   -1.5601472   -7.0349012  
C   -0.0438064    0.0435294   -7.2712560  
C   -0.9367047    0.7917924   -6.5289536  
O   -1.8641931    1.5666222   -7.1633176  
C   -0.9013486    0.7650563   -5.1144385  
O   -1.8552613    1.5646082   -4.5193668  
C    0.0139746    0.0003883   -4.4216235  
H    2.3185015   -1.9274449   -3.8061970  
H    2.0737737   -1.7411560   -8.0022747  
H   -0.0877729    0.0787063   -8.3510857  
H   -2.3791717    1.9990292   -6.4697144  
H   -1.7628468    1.4891551   -3.5647096  
H    3.3592557   -2.8032527   -6.1339813  
C    3.2798087    0.0005858   -1.4499643  
C    2.5571149    0.0005569   -2.5996548  
C    1.1637440    0.0001551   -2.2210358  
C    1.1336966   -0.0000198   -0.7459468  
N    2.4483512   -0.0001426   -0.3402714  
C    0.0000000    0.0000000    0.0000000  
C   -1.2757369   -0.0000185   -0.6964416  
O   -2.3524599   -0.0000639   -0.1142315  
C   -1.2676492   -0.0000870   -2.2584080  
O   -2.3355760   -0.0004099   -2.8557298  
C    0.0181565    0.0001762   -2.9516296  
H    2.9547360    0.0006079   -3.5989102  
H    2.7563627    0.0012824    0.6148067  
C    4.7390849    0.0009618   -1.2727274  
C    5.6949939    0.0015511   -2.2307549  
C    6.9549544    0.0016812   -1.5034317  
C    6.5623385    0.0012149   -0.0777962  
N    5.2646566    0.0007113    0.0636667  
C    7.5356716    0.0011414    0.9794207  
C    8.8418530    0.0011278    0.6283864  
O    9.8560143    0.0010694    1.5101563  
C    9.2698392    0.0012213   -0.8016446  
O   10.4759238    0.0013272   -1.0477761  
C    8.2523646    0.0013394   -1.8677918  
H    5.5615855    0.0017693   -3.2990611  
H    7.2204107    0.0010035    2.0126294  
H   10.6613099    0.0010489    0.9618393  
H    8.6033679    0.0012895   -2.8910346  
C    0.8676693    0.7151171    2.2619005  
C    0.5875920    0.4624972    3.5848544  
C   -0.5048400   -0.4542819    3.6114698  
C   -0.8517165   -0.7276451    2.2635546  
N    0.0000000    0.0000000    1.4700000  
C   -1.8902865   -1.5946756    1.9108239  
C   -2.5912627   -2.1969500    2.9375057  
O   -3.6148162   -3.0527051    2.6493466  
C   -2.2603868   -1.9365747    4.2886322  
O   -3.0513550   -2.6123276    5.1947621  
C   -1.2361111   -1.0811317    4.6373480  
H    1.1060808    0.8876438    4.4271209  
H   -2.1597133   -1.8070987    0.8854031  
H   -3.9636755   -3.3565188    3.4974381  
H   -2.7621927   -2.3810384    6.0827341  
H   -1.0058879   -0.9010589    5.6809233  
H    1.6167816    1.3499334    1.8205408  
