62

C   -3.9849596    0.7194519   -1.9554403  
C   -3.2941075    0.0012873   -2.9038235  
C   -4.2599432   -0.7263565   -3.6603265  
C   -5.5339713   -0.4094414   -3.1233509  
N   -5.3307339    0.4693513   -2.0884424  
C   -6.7219956   -0.9483828   -3.6262728  
C   -6.6220979   -1.8229489   -4.6908535  
O   -7.7507709   -2.3779977   -5.2209800  
C   -5.3599666   -2.1517858   -5.2401317  
O   -5.4269547   -3.0368199   -6.2963369  
C   -4.1875175   -1.6206946   -4.7443178  
H   -6.0533077    0.8783790   -1.5240270  
H   -7.6961102   -0.7109762   -3.2213776  
H   -7.4604453   -2.9495358   -5.9436967  
H   -4.5328204   -3.2058806   -6.6086603  
H   -3.2354103   -1.8913641   -5.1855753  
H   -3.6241065    1.3891889   -1.1937339  
C    0.0000000    0.0000000    0.0000000  
C    1.0541688   -0.0001722   -0.8560392  
C    0.5103135   -0.0000454   -2.1935954  
C   -0.9576375    0.0002459   -2.0455728  
N   -1.2018462   -0.0001392   -0.6915966  
C   -1.8348315    0.0008316   -3.0810604  
C   -1.2972851    0.0009737   -4.4314603  
O   -2.0050681    0.0014265   -5.4301316  
C    0.2542617    0.0004185   -4.6117570  
O    0.7184664    0.0002257   -5.7439119  
C    1.0974549    0.0000874   -3.4189129  
H    2.0940751   -0.0005482   -0.5817983  
H   -2.1128195    0.0014911   -0.2706785  
C    3.4546596   -0.7051950   -2.8655885  
C    2.5562209   -0.0001551   -3.6003007  
C    3.3075545    0.7421839   -4.5848140  
C    4.7275383    0.4094228   -4.3618654  
N    4.7487496   -0.4720453   -3.3057149  
C    5.7578589    0.9090023   -5.0902642  
C    5.4475459    1.8364946   -6.1654382  
O    6.3052792    2.3410445   -6.8781962  
C    3.9505741    2.2032189   -6.4191997  
O    3.6771245    2.9832708   -7.3214220  
C    2.9282233    1.6000469   -5.5678283  
H    6.7924729    0.6518568   -4.9103761  
H    1.8940995    1.8589988   -5.7501916  
H    3.2802835   -1.3753189   -2.0395033  
H    5.5766091   -0.8842306   -2.9161006  
C    1.1188642   -0.0008217    2.2703808  
C    0.0000000    0.0000000    1.4700000  
C   -1.1323862   -0.0008904    2.3373528  
C   -0.6382662   -0.0019682    3.6669281  
N    0.7324016   -0.0038477    3.5902241  
C   -1.4770914   -0.0027325    4.7854808  
C   -2.8395474   -0.0020958    4.5576857  
O   -3.7039201   -0.0024443    5.6140350  
C   -3.3517868   -0.0013946    3.2384331  
O   -4.7300496   -0.0012389    3.1773122  
C   -2.5248543   -0.0009135    2.1344818  
H    1.3576314    0.0056174    4.3757045  
H   -1.1067570   -0.0036993    5.8013813  
H   -4.5940033   -0.0021850    5.2385129  
H   -4.9934601   -0.0007286    2.2519915  
H   -2.9462578   -0.0005617    1.1360343  
H    2.1619896   -0.0009344    2.0042067  
