62

C    8.4343665   -0.7321893    0.0492482  
C    8.1095235   -0.0125737   -1.0772942  
C    9.2812325    0.7010345   -1.4677557  
C   10.2979202    0.3744554   -0.5341511  
N    9.7496258   -0.4963345    0.3745375  
C   11.5918233    0.8985980   -0.6108432  
C   11.8644338    1.7680259   -1.6490898  
O   13.1117214    2.3087136   -1.7713394  
C   10.8632113    2.1063368   -2.5903212  
O   11.2903562    2.9846101   -3.5647585  
C    9.5864537    1.5898476   -2.5151216  
H   10.2365504   -0.9093441    1.1493339  
H   12.3711336    0.6537693    0.0976310  
H   13.0869146    2.8789925   -2.5507180  
H   10.5545924    3.1608253   -4.1590682  
H    8.8404411    1.8675087   -3.2505445  
H    7.8315207   -1.3939198    0.6472851  
C    5.5836005   -0.0008275   -1.0808163  
C    4.5679461   -0.0016854   -2.0086701  
C    5.1807168   -0.0015779   -3.2967356  
C    6.5840020   -0.0009186   -3.0900574  
N    6.7941554    0.0014757   -1.7334268  
C    7.5035523   -0.0009463   -4.1432500  
C    6.9972727   -0.0019595   -5.4284959  
O    7.8506654   -0.0023842   -6.4937346  
C    5.6003144   -0.0022530   -5.6550445  
O    5.2537724   -0.0028650   -6.9904295  
C    4.6925710   -0.0019529   -4.6165225  
H    8.5742737   -0.0003019   -3.9923864  
H    7.2981734   -0.0027882   -7.2862096  
H    4.2938967   -0.0030560   -7.0555555  
H    3.6282967   -0.0020082   -4.8209694  
H    5.5402816   -0.0002307   -0.0051386  
C    3.1301149   -0.0010311   -1.7028252  
C    2.5367768   -0.0002767   -0.4864665  
C    1.1089904    0.0001028   -0.7656183  
C    1.0177872   -0.0004148   -2.2415132  
N    2.1993578   -0.0011611   -2.7963820  
C   -0.2459209   -0.0002877   -2.9257118  
C   -1.3675319   -0.0000605   -2.1698524  
O   -2.6129313    0.0000867   -2.6748490  
C   -1.3083584    0.0000910   -0.6783232  
O   -2.3693261    0.0004206   -0.0541692  
C    0.0000000    0.0000000    0.0000000  
H    3.0096017   -0.0001007    0.4807525  
H   -0.2829630   -0.0004687   -4.0053125  
H   -3.1967441    0.0002094   -1.8949034  
C    2.4951002    2.0940188    2.9809380  
C    1.9440701    1.6314916    1.8291961  
C    0.8759964    0.7350050    2.2038498  
C    0.8497377    0.7130254    3.6788474  
N    1.8560616    1.5571714    4.0882609  
C   -0.0205033   -0.0168748    4.4215661  
C   -0.9962600   -0.8356168    3.7214979  
O   -1.8224391   -1.5286685    4.3006425  
C   -0.9864710   -0.8277881    2.1595606  
O   -1.8030528   -1.5133726    1.5592035  
C    0.0000000    0.0000000    1.4700000  
H    2.2509283    1.8888011    0.8310761  
H   -0.0229599   -0.0187323    5.5027230  
H    3.3143982    2.7817323    3.1139444  
H    2.0889452    1.7545833    5.0442112  
