60

C   10.0917441    0.7188608   -1.0810327  
C    9.1302743    0.0015974   -0.4075514  
C    9.7981140   -0.7254810    0.6219859  
C   11.1775652   -0.4091654    0.5271966  
N   11.3214565    0.4687406   -0.5183622  
C   12.1379241   -0.9477863    1.3888167  
C   11.6976729   -1.8214091    2.3640812  
O   12.5930572   -2.3761072    3.2321882  
C   10.3254786   -2.1496367    2.4743769  
O   10.0457977   -3.0337517    3.4958768  
C    9.3775432   -1.6188617    1.6245405  
H   12.1882269    0.8772005   -0.8181115  
H   13.1908003   -0.7108331    1.3217113  
H   12.0837225   -2.9469825    3.8220558  
H    9.0986364   -3.2024484    3.5013157  
H    8.3336713   -1.8890479    1.7332079  
H    9.9978213    1.3879666   -1.9191464  
C    6.6781261    0.0000524   -4.1292993  
C    7.7444182    0.0009684   -3.2958728  
C    7.1743128    0.0014027   -1.9574109  
C    5.7117403    0.0007371   -2.1752745  
N    5.4148486   -0.0001362   -3.4464332  
C    4.7795901    0.0008674   -1.0815733  
C    5.2855494    0.0012391    0.1727552  
O    4.5324883    0.0014070    1.2858322  
C    6.7567502    0.0015422    0.4252007  
O    7.1465030    0.0019990    1.5928107  
C    7.6924431    0.0014448   -0.7133963  
H    8.7888458    0.0012168   -3.5571132  
H    5.1738997    0.0016452    2.0191429  
H    6.6781258   -0.0005127   -5.2077115  
C    3.3321168    0.0004716   -1.3379341  
C    2.6974177    0.0000118   -2.5332316  
C    1.2800432   -0.0002116   -2.2052842  
C    1.2395033    0.0000644   -0.7271298  
N    2.4394059    0.0005460   -0.2131041  
C    0.0000000    0.0000000    0.0000000  
C   -1.1468704    0.0000635   -0.7169542  
O   -2.3742206    0.0000074   -0.1695488  
C   -1.1388774    0.0001608   -2.2096352  
O   -2.2206238    0.0000906   -2.7970409  
C    0.1454514    0.0001818   -2.9324241  
H    3.1367978   -0.0000649   -3.5160956  
H   -2.9844350    0.0001027   -0.9290164  
H    0.1083567    0.0003684   -4.0135594  
C    2.4951002    2.0940188    2.9809380  
C    1.9440701    1.6314916    1.8291961  
C    0.8759964    0.7350050    2.2038498  
C    0.8497377    0.7130254    3.6788474  
N    1.8560616    1.5571714    4.0882609  
C   -0.0205033   -0.0168748    4.4215661  
C   -0.9962600   -0.8356168    3.7214979  
O   -1.8224391   -1.5286685    4.3006425  
C   -0.9864710   -0.8277881    2.1595606  
O   -1.8030528   -1.5133726    1.5592035  
C    0.0000000    0.0000000    1.4700000  
H    2.2509283    1.8888011    0.8310761  
H   -0.0229599   -0.0187323    5.5027230  
H    3.3143982    2.7817323    3.1139444  
H    2.0889452    1.7545833    5.0442112  
