64

C   -8.4057991    0.3870433   -3.0476324  
C   -9.7233519    0.2410768   -2.6799144  
C  -10.0579051   -1.1329301   -2.8664067  
C   -8.8946702   -1.7821108   -3.3536195  
N   -7.9107406   -0.8300302   -3.4538311  
C   -8.8588866   -3.1480156   -3.6499528  
C  -10.0184189   -3.8718200   -3.4505314  
O  -10.0387799   -5.2090121   -3.7235076  
C  -11.1892281   -3.2419539   -2.9654620  
O  -12.2614703   -4.0978745   -2.8204132  
C  -11.2253298   -1.8944425   -2.6731687  
H  -10.3647775    1.0283219   -2.3224058  
H   -7.9755447   -3.6487246   -4.0217040  
H  -10.9314112   -5.5160593   -3.5180900  
H  -13.0106124   -3.5934456   -2.4888366  
H  -12.1368302   -1.4397443   -2.3031732  
H   -7.7804306    1.2633062   -3.0536532  
C   -3.9587656    0.7181783   -2.0486249  
C   -5.3032699    0.4668358   -2.1956006  
C   -5.4393879   -0.4497799   -3.2799844  
C   -4.1329654   -0.7243640   -3.7593494  
N   -3.2578655    0.0024282   -2.9908505  
C   -3.8862119   -1.5915937   -4.8279063  
C   -4.9781533   -2.1928158   -5.4231993  
O   -4.7941449   -3.0487111   -6.4703845  
C   -6.2893762   -1.9312143   -4.9594359  
O   -7.2703945   -2.6060159   -5.6562783  
C   -6.5335693   -1.0755738   -3.9055022  
H   -6.0893264    0.8927069   -1.5958151  
H   -2.8929129   -1.8049451   -5.1980958  
H   -5.6730430   -3.3516850   -6.7330816  
H   -8.1249454   -2.3739308   -5.2801357  
H   -3.4444141    1.3524851   -1.3471574  
C    0.0000000    0.0000000    0.0000000  
C    1.0521666   -0.0011982   -0.8862343  
C    0.4917215   -0.0011996   -2.1979132  
C   -0.9187429    0.0003215   -2.0478682  
N   -1.1833171   -0.0009323   -0.7007913  
C   -1.7951703    0.0010483   -3.1372089  
C   -1.2375841    0.0005313   -4.4010422  
O   -2.0474218    0.0015510   -5.4997578  
C    0.1673576   -0.0013585   -4.5711963  
O    0.5673520   -0.0020735   -5.8915554  
C    1.0325768   -0.0023493   -3.4969892  
H    2.0953056   -0.0030808   -0.6200564  
H   -2.0989778    0.0102529   -0.2891822  
H   -1.4634888    0.0006601   -6.2693595  
H    1.5290707   -0.0033271   -5.9180047  
H    2.1042146   -0.0039770   -3.6584456  
C    0.0000000    0.0000000    1.4700000  
C    1.0541688    0.0001722    2.3260392  
C    0.5103138    0.0000454    3.6635956  
C   -0.9576371   -0.0002459    3.5155732  
N   -1.2018458    0.0001392    2.1615969  
C   -1.8348311   -0.0008317    4.5510609  
C   -1.2972847   -0.0009736    5.9014604  
O   -2.0050672   -0.0014265    6.9001319  
C    0.2542623   -0.0004184    6.0817573  
O    0.7184670   -0.0002256    7.2139121  
C    1.0974552   -0.0000873    4.8889129  
H    2.0940752    0.0005483    2.0517982  
H   -2.9081052   -0.0011668    4.4207061  
H    2.1707277    0.0000911    5.0223670  
H   -2.1128194   -0.0014912    1.7406791  
