62

C   -7.4978475    3.0855748   -0.0064326  
C   -7.0359825    1.8524210   -0.4045289  
C   -8.1189286    0.9354872   -0.2594040  
C   -9.2251766    1.6728210    0.2350438  
N   -8.8132594    2.9744246    0.3791626  
C  -10.4674957    1.0876419    0.4977196  
C  -10.5954816   -0.2664806    0.2565776  
O  -11.7867533   -0.8884199    0.4954813  
C   -9.5031685   -1.0192591   -0.2363668  
O   -9.7890441   -2.3557288   -0.4246933  
C   -8.2772222   -0.4426781   -0.4954725  
H   -9.3869313    3.7322758    0.7024932  
H  -11.3145069    1.6440651    0.8747706  
H  -11.6607161   -1.8178860    0.2642430  
H   -8.9990909   -2.7915948   -0.7587556  
H   -7.4588550   -1.0448454   -0.8724964  
H   -6.9926185    4.0353337    0.0343200  
C   -4.5109071    2.0977186   -0.3577879  
C   -3.4201851    1.6341429   -1.0207351  
C   -3.9001607    0.7380705   -2.0461682  
C   -5.3704635    0.7174770   -1.9254398  
N   -5.6768568    1.5619483   -0.8833834  
C   -6.1968217   -0.0116749   -2.7173831  
C   -5.5981518   -0.8310168   -3.7579638  
O   -6.2573266   -1.5234764   -4.5223515  
C   -4.0429941   -0.8246547   -3.9037356  
O   -3.5275663   -1.5107550   -4.7760092  
C   -3.2578655    0.0024282   -2.9908505  
H   -2.3962312    1.8904974   -0.8147870  
H   -7.2728523   -0.0125174   -2.6121839  
H   -4.5610337    2.7855092    0.4706574  
C    0.0000000    0.0000000    0.0000000  
C    1.0521666   -0.0011982   -0.8862343  
C    0.4917215   -0.0011996   -2.1979132  
C   -0.9187429    0.0003215   -2.0478682  
N   -1.1833171   -0.0009323   -0.7007913  
C   -1.7951703    0.0010483   -3.1372089  
C   -1.2375841    0.0005313   -4.4010422  
O   -2.0474218    0.0015510   -5.4997578  
C    0.1673576   -0.0013585   -4.5711963  
O    0.5673520   -0.0020735   -5.8915554  
C    1.0325768   -0.0023493   -3.4969892  
H    2.0953056   -0.0030808   -0.6200564  
H   -2.0989778    0.0102529   -0.2891822  
H   -1.4634888    0.0006601   -6.2693595  
H    1.5290707   -0.0033271   -5.9180047  
H    2.1042146   -0.0039770   -3.6584456  
C    1.0672568    0.0000697    2.3021913  
C    0.0000000    0.0000000    1.4700000  
C   -1.1601224    0.0000736    2.3478473  
C   -0.5938729    0.0000769    3.7138435  
N    0.7113367    0.0001554    3.6934124  
C   -1.4286986    0.0001879    4.8835240  
C   -2.7683114    0.0006799    4.6970523  
O   -3.6653903    0.0008304    5.6976972  
C   -3.3702025    0.0010610    3.3310774  
O   -4.5974910    0.0013779    3.2362962  
C   -2.4926826    0.0008943    2.1470656  
H   -0.9878360   -0.0000190    5.8697035  
H   -4.5324246    0.0012261    5.2533954  
H   -2.9677772    0.0012974    1.1752040  
H    2.1134392    0.0000545    2.0405121  
