62

C    6.6540971   -0.0011650    1.3962730  
C    5.4018070   -0.0014566    0.8268551  
C    5.5874903   -0.0008421   -0.5874011  
C    6.9861183   -0.0004713   -0.8235501  
N    7.6043964    0.0012708    0.4021524  
C    7.5360612   -0.0001420   -2.1089883  
C    6.6581046   -0.0004950   -3.1754631  
O    7.1413995   -0.0005482   -4.4519583  
C    5.2593676   -0.0004920   -2.9601677  
O    4.5179016   -0.0004426   -4.1235986  
C    4.7161324   -0.0005436   -1.6923263  
H    4.4691981   -0.0009350    1.3646591  
H    8.5971753   -0.0086542    0.5513883  
H    8.6011199    0.0002854   -2.2956726  
H    6.3714456   -0.0005123   -5.0354278  
H    3.5847245   -0.0004711   -3.8895378  
H    6.9446145   -0.0010561    2.4328822  
C    3.2573666   -0.0002920   -1.5109384  
C    2.5379463   -0.0001710   -0.3591964  
C    1.1435039    0.0000331   -0.7338498  
C    1.1092600   -0.0000083   -2.2088476  
N    2.4227554    0.0001909   -2.6182613  
C   -0.0265538   -0.0002524   -2.9515660  
C   -1.3003040   -0.0002640   -2.2514976  
O   -2.3786789   -0.0004133   -2.8306420  
C   -1.2877727    0.0000311   -0.6895603  
O   -2.3539960    0.0003306   -0.0892032  
C    0.0000000    0.0000000    0.0000000  
H    2.9384090   -0.0000368    0.6389236  
H    2.7280484   -0.0013407   -3.5742118  
C    0.8071477   -0.7052399   -5.2248761  
C   -0.0307367   -0.0004647   -4.4215603  
C   -0.9177000    0.7416306   -5.2860982  
C   -0.5250737    0.4090151   -6.6688496  
N    0.5261899   -0.4721446   -6.5625862  
C   -1.1240819    0.9084413   -7.7794655  
C   -2.2291007    1.8356032   -7.6010288  
O   -2.8333926    2.3399945   -8.5384300  
C   -2.6616073    2.2021686   -6.1455653  
O   -3.5904477    2.9819425   -5.9828742  
C   -1.9395318    1.5991861   -5.0280367  
H   -0.8206880    0.6514069   -8.7848486  
H   -2.2453244    1.8580262   -4.0234386  
H    1.6063804   -1.3751334   -4.9521863  
H    1.0128980   -0.8841695   -7.3374400  
C    2.5285572    2.1210227    2.9438989  
C    1.9331703    1.6216660    4.0790748  
C    0.8903039    0.7472258    3.6520102  
C    0.8972198    0.7527806    2.2336141  
N    1.9028376    1.5986179    1.8362361  
C    0.0000000    0.0000000    1.4700000  
C   -0.9207814   -0.7726952    2.1506477  
O   -1.8198395   -1.5274828    1.4542253  
C   -0.9436862   -0.7911793    3.5655508  
O   -1.9197945   -1.6098497    4.0950179  
C   -0.0590329   -0.0485852    4.3195194  
H    2.2150357    1.8593692    5.0905303  
H    2.1533708    1.7953814    0.8841339  
H   -2.3621246   -1.9821033    2.1118817  
H   -1.8668290   -1.5649508    5.0545920  
H   -0.1007624   -0.0827977    5.4019087  
H    3.3491200    2.8096064    2.8367138  
