60

C    4.2954759    0.1829703   -6.8052229  
C    5.4843353   -0.4758688   -7.0173846  
C    5.9502120   -0.0887172   -8.3087682  
C    4.9962492    0.8157728   -8.8414771  
N    4.0035866    0.9571170   -7.9037887  
C    5.1322807    1.4019676  -10.1034835  
C    6.2518774    1.0692546  -10.8410359  
O    6.4345390    1.6130741  -12.0795465  
C    7.2146753    0.1684455  -10.3268574  
O    8.2726766   -0.0619822  -11.1817731  
C    7.0809892   -0.4104376   -9.0820492  
H    5.9570190   -1.1531445   -6.3268333  
H    3.1956792    1.5456485   -7.9981168  
H    4.4087020    2.0919547  -10.5152533  
H    7.2654244    1.2529733  -12.4160311  
H    8.8762673   -0.6804314  -10.7589226  
H    7.8348035   -1.0970329   -8.7148583  
C    4.6014568   -2.0165230   -3.0560766  
C    3.4769384   -1.6328845   -2.4081117  
C    2.8127343   -0.7151037   -3.3208062  
C    3.6989099   -0.6588453   -4.5032234  
N    4.7490139   -1.4197419   -4.3538651  
C    3.3894065    0.1527210   -5.6480614  
C    2.2463720    0.8749435   -5.6134073  
O    1.8335166    1.6749950   -6.6111591  
C    1.3311609    0.8390162   -4.4347394  
O    0.3078533    1.5221557   -4.4719306  
C    1.6707636   -0.0012343   -3.2725974  
H    3.1397618   -1.9354141   -1.4314523  
H    0.9923242    2.0514417   -6.2951910  
H    5.3663742   -2.6952858   -2.7137968  
C    1.0965514    0.0001358   -0.8010306  
C    0.0000000    0.0000000    0.0000000  
C   -1.1546565    0.0001470   -0.8669508  
C   -0.6372019    0.0003520   -2.2486278  
N    0.7342867    0.0007338   -2.1395012  
C   -1.4147744    0.0001354   -3.3608712  
C   -2.8576052   -0.0001047   -3.1854454  
O   -3.6427785   -0.0002490   -4.1244896  
C   -3.4275841   -0.0000727   -1.7311660  
O   -4.6406832    0.0000333   -1.5710049  
C   -2.4891868   -0.0001090   -0.6116739  
H   -1.0150456    0.0001617   -4.3654239  
H   -2.8919122   -0.0002919    0.3920871  
H    2.1388270    0.0000663   -0.5261650  
C    0.0000000    0.0000000    1.4700000  
C    1.0541688    0.0001722    2.3260392  
C    0.5103138    0.0000454    3.6635956  
C   -0.9576371   -0.0002459    3.5155732  
N   -1.2018458    0.0001392    2.1615969  
C   -1.8348311   -0.0008317    4.5510609  
C   -1.2972847   -0.0009736    5.9014604  
O   -2.0050672   -0.0014265    6.9001319  
C    0.2542623   -0.0004184    6.0817573  
O    0.7184670   -0.0002256    7.2139121  
C    1.0974552   -0.0000873    4.8889129  
H    2.0940752    0.0005483    2.0517982  
H   -2.9081052   -0.0011668    4.4207061  
H    2.1707277    0.0000911    5.0223670  
H   -2.1128194   -0.0014912    1.7406791  
