62

C   11.0934572    2.1260270   -2.4989981  
C    9.8419671    1.6636508   -2.1636646  
C   10.0080305    0.7764191   -1.0591992  
C   11.3943830    0.7368591   -0.7618998  
N   12.0247804    1.5660439   -1.6561423  
C   11.9239499   -0.0390606    0.2736172  
C   11.0378251   -0.7884660    1.0228517  
O   11.5012567   -1.5636939    2.0462121  
C    9.6511346   -0.7624944    0.7413717  
O    8.8993791   -1.5631556    1.5763261  
C    9.1280325    0.0025291   -0.2802107  
H    8.9225964    1.9318909   -2.6553936  
H   13.0118215    1.7477568   -1.6827712  
H   12.9795885   -0.0736674    0.5052020  
H   10.7287726   -1.9969088    2.4320336  
H    7.9754163   -1.4881631    1.3188934  
H   11.3956031    2.8098507   -3.2736285  
C    6.8354432    0.0008786   -4.0255230  
C    5.5758875    0.0005992   -3.5179857  
C    5.7016160    0.0007904   -2.0795742  
C    7.1480384    0.0012362   -1.7886234  
N    7.7802455    0.0008701   -3.0105904  
C    7.6812949    0.0019200   -0.5406883  
C    6.7698186    0.0020121    0.5914541  
O    7.1520256    0.0025450    1.7543038  
C    5.2340027    0.0012938    0.3067212  
O    4.4569015    0.0010577    1.2519061  
C    4.7795901    0.0008674   -1.0815733  
H    4.6629017    0.0001119   -4.0863788  
H    7.1529573    0.0008730   -5.0556079  
H    8.7747879    0.0025945   -3.1444929  
C    3.3321168    0.0004716   -1.3379341  
C    2.6974177    0.0000118   -2.5332316  
C    1.2800432   -0.0002116   -2.2052842  
C    1.2395033    0.0000644   -0.7271298  
N    2.4394059    0.0005460   -0.2131041  
C    0.0000000    0.0000000    0.0000000  
C   -1.1468704    0.0000635   -0.7169542  
O   -2.3742206    0.0000074   -0.1695488  
C   -1.1388774    0.0001608   -2.2096352  
O   -2.2206238    0.0000906   -2.7970409  
C    0.1454514    0.0001818   -2.9324241  
H    3.1367978   -0.0000649   -3.5160956  
H   -2.9844350    0.0001027   -0.9290164  
H    0.1083567    0.0003684   -4.0135594  
C    0.0000000    0.0000000    1.4700000  
C    1.0521667    0.0011902    2.3562342  
C    0.4917218    0.0011957    3.6679131  
C   -0.9187428   -0.0003148    3.5178682  
N   -1.1833171    0.0009411    2.1707914  
C   -1.7951701   -0.0010350    4.6072090  
C   -1.2375837   -0.0005224    5.8710424  
O   -2.0474215   -0.0015360    6.9697579  
C    0.1673580    0.0013566    6.0411963  
O    0.5673524    0.0020687    7.3615553  
C    1.0325770    0.0023412    4.9669890  
H    2.0953057    0.0030649    2.0900562  
H   -2.0989778   -0.0102372    1.7591824  
H   -2.8710934   -0.0020419    4.4995513  
H   -1.4634884   -0.0006497    7.7393593  
H    1.5290710    0.0033153    7.3880045  
H    2.1042148    0.0039609    5.1284455  
