62

C    6.6549770   -3.2381148   -4.8667985  
C    7.7625838   -3.1912200   -5.6813384  
C    7.8896207   -1.8446212   -6.1342537  
C    6.8222405   -1.1092842   -5.5581420  
N    6.0906966   -1.9859490   -4.7959611  
C    6.6344768    0.2570019   -5.7879159  
C    7.5409123    0.8926123   -6.6140823  
O    7.4046711    2.2260211   -6.8719045  
C    8.6122226    0.1759909   -7.1985188  
O    9.4286641    0.9500431   -7.9970232  
C    8.7979118   -1.1719558   -6.9724974  
H    8.3998740   -4.0252452   -5.9206221  
H    5.8229142    0.8231251   -5.3519419  
H    8.1309503    2.4655978   -7.4621459  
H   10.1258197    0.3902756   -8.3523224  
H    9.6276974   -1.6942536   -7.4341664  
H    6.2220132   -4.0659926   -4.3318968  
C    4.5939382   -2.1037472   -2.7696736  
C    4.8996526   -1.6376001   -4.0079464  
C    3.8355765   -0.7416508   -4.3950543  
C    2.8780295   -0.7238869   -3.2727447  
N    3.3957277   -1.5703485   -2.3196545  
C    1.7334695    0.0049281   -3.2500363  
C    1.4239148    0.8265213   -4.4083522  
O    0.4172710    1.5187840   -4.4841261  
C    2.4237222    0.8227865   -5.6084260  
O    2.1735667    1.5103259   -6.5892281  
C    3.6246410   -0.0037444   -5.5162756  
H    4.3119033   -0.0005912   -6.3513712  
H    5.1430571   -2.7922310   -2.1481048  
H    2.9698479   -1.7683917   -1.4328329  
C    1.1319246    0.0015678   -0.8009268  
C    0.7969914    0.0034958   -2.1169401  
C   -0.6453340    0.0035696   -2.1842669  
C   -1.1266832    0.0015410   -0.7896025  
N    0.0000000    0.0000000    0.0000000  
C   -2.4346129    0.0013913   -0.4276292  
C   -3.4350111    0.0031335   -1.4820181  
O   -4.6384614    0.0030875   -1.2583914  
C   -2.9478961    0.0050442   -2.9661074  
O   -3.7809382    0.0062135   -3.8623773  
C   -1.5113825    0.0053055   -3.2312122  
H   -2.7664565    0.0000174    0.6013448  
H   -1.1823533    0.0068381   -4.2614848  
H    2.1104316    0.0009435   -0.3488059  
C    2.5311839    2.1237619    3.0120429  
C    1.9795631    1.6616747    1.8395852  
C    0.9223175    0.7739173    2.1983588  
C    0.8753926    0.7337535    3.6154372  
N    1.8668922    1.5631002    4.0777464  
C   -0.0496243   -0.0427881    4.3197917  
C   -0.9437528   -0.7922060    3.5801400  
O   -1.8685244   -1.5680278    4.2172520  
C   -0.9124520   -0.7656372    2.1655264  
O   -1.8671164   -1.5663939    1.5732860  
C    0.0000000    0.0000000    1.4700000  
H    2.3005065    1.9304404    0.8477417  
H    2.0679347    1.7444845    5.0445261  
H   -0.0904770   -0.0778569    5.3997470  
H   -2.3849669   -2.0011402    3.5251786  
H   -1.7775064   -1.4909735    0.6183591  
H    3.3468514    2.8078103    3.1724291  
