64

C    1.1188648    0.0008224   -0.8003808  
C    0.0000000    0.0000000    0.0000000  
C   -1.1323856    0.0008899   -0.8673532  
C   -0.6382652    0.0019680   -2.1969285  
N    0.7324026    0.0038481   -2.1202240  
C   -1.4770902    0.0027317   -3.3154818  
C   -2.8395465    0.0020943   -3.0876868  
O   -3.7039183    0.0024421   -4.1440356  
C   -3.3517865    0.0013928   -1.7684340  
O   -4.7300494    0.0012365   -1.7073132  
C   -2.5248539    0.0009123   -0.6644827  
H   -1.1067556    0.0036988   -4.3313817  
H   -4.5940018    0.0021826   -3.7685147  
H   -4.9934600    0.0007259   -0.7819928  
H   -2.9462579    0.0005602    0.3339648  
H    2.1619897    0.0009357   -0.5342064  
C    4.5412320   -2.0990433   -2.8732831  
C    3.3927961   -1.6299051   -2.3209426  
C    2.7903289   -0.7451819   -3.2900315  
C    3.6883355   -0.7373099   -4.4606351  
N    4.7307599   -1.5775599   -4.1440598  
C    3.4698875   -0.0211181   -5.5924718  
C    2.2703767    0.7967037   -5.6623070  
O    1.9845423    1.4779284   -6.6382848  
C    1.3053409    0.8036751   -4.4341124  
O    0.2924819    1.4886261   -4.4812232  
C    1.6478447   -0.0100098   -3.2702996  
H    3.0113381   -1.8754402   -1.3458448  
H    5.2651738   -2.7816968   -2.4588164  
H    5.5083129   -1.7821891   -4.7445478  
C    5.7516750   -3.2893606   -7.5084359  
C    6.3497143   -2.5339848   -8.4903846  
C    5.8972179   -1.1923935   -8.3172370  
C    5.0178027   -1.1901207   -7.2043356  
N    4.9503332   -2.4795690   -6.7380864  
C    4.3827122   -0.0324764   -6.7446536  
C    4.6403107    1.1443668   -7.4205676  
O    4.0468483    2.3042099   -7.0136534  
C    5.5144456    1.1622713   -8.5333956  
O    5.6680195    2.4109618   -9.0995501  
C    6.1411139    0.0205577   -8.9876023  
H    7.0277370   -2.9045611   -9.2400188  
H    4.4107958   -2.7834572   -5.9478126  
H    4.3577944    2.9949686   -7.6131787  
H    6.2731535    2.3352018   -9.8436457  
H    6.8053582    0.0651456   -9.8427450  
H    5.8322182   -4.3419652   -7.2974969  
C    2.5285572    2.1210227    2.9438989  
C    1.9331703    1.6216660    4.0790748  
C    0.8903039    0.7472258    3.6520102  
C    0.8972198    0.7527806    2.2336141  
N    1.9028376    1.5986179    1.8362361  
C    0.0000000    0.0000000    1.4700000  
C   -0.9207814   -0.7726952    2.1506477  
O   -1.8198395   -1.5274828    1.4542253  
C   -0.9436862   -0.7911793    3.5655508  
O   -1.9197945   -1.6098497    4.0950179  
C   -0.0590329   -0.0485852    4.3195194  
H    2.2150357    1.8593692    5.0905303  
H    2.1533708    1.7953814    0.8841339  
H   -2.3621246   -1.9821033    2.1118817  
H   -1.8668290   -1.5649508    5.0545920  
H   -0.1007624   -0.0827977    5.4019087  
H    3.3491200    2.8096064    2.8367138  
