64

C    2.8233682   -0.7205532   -3.3382294  
C    3.4268672   -0.4842899   -4.5516693  
C    2.5842319    0.4170854   -5.2672726  
C    1.4720823    0.6983442   -4.4330401  
N    1.6478443   -0.0100055   -3.2702994  
C    0.4355942    1.5542942   -4.8175280  
C    0.5235655    2.1371665   -6.0668070  
O   -0.4609061    2.9814402   -6.4922838  
C    1.6251323    1.8686433   -6.9137210  
O    1.5672602    2.5248823   -8.1258862  
C    2.6478793    1.0241206   -6.5351767  
H   -0.4148265    1.7726469   -4.1864108  
H   -0.2071935    3.2724202   -7.3778499  
H    2.3476186    2.2892328   -8.6368799  
H    3.4787742    0.8374032   -7.2054214  
H    3.1377269   -1.3408174   -2.5163967  
C    1.1188647    0.0008252   -0.8003807  
C    0.0000000    0.0000000    0.0000000  
C   -1.1323854    0.0008867   -0.8673533  
C   -0.6382658    0.0019661   -2.1969280  
N    0.7324021    0.0038501   -2.1202238  
C   -1.4770906    0.0027278   -3.3154811  
C   -2.8395469    0.0020868   -3.0876860  
O   -3.7039189    0.0024327   -4.1440356  
C   -3.3517866    0.0013841   -1.7684334  
O   -4.7300490    0.0012234   -1.7073130  
C   -2.5248543    0.0009055   -0.6644820  
H   -1.1067559    0.0036958   -4.3313815  
H   -4.5940023    0.0021703   -3.7685138  
H   -4.9934599    0.0007124   -0.7819922  
H   -2.9462580    0.0005524    0.3339655  
H    2.1619899    0.0009412   -0.5342062  
C    4.6998385   -1.0658295   -5.0013986  
C    5.5513445   -1.9366903   -4.3618624  
C    6.6421258   -2.1789709   -5.2484831  
C    6.3994689   -1.4222495   -6.4233943  
N    5.2110413   -0.7597202   -6.2408814  
C    7.2726514   -1.4200440   -7.5153361  
C    8.4116921   -2.1956395   -7.4193433  
O    9.2984944   -2.2297833   -8.4563730  
C    8.6711366   -2.9578755   -6.2555127  
O    9.8463500   -3.6782012   -6.3133612  
C    7.8100274   -2.9607406   -5.1780114  
H    5.4038355   -2.3477250   -3.3778477  
H    4.7864565   -0.1362658   -6.9034629  
H    7.0933654   -0.8456079   -8.4137141  
H   10.0114815   -2.8231519   -8.1865082  
H    9.9460065   -4.1643259   -5.4891311  
H    8.0352539   -3.5548188   -4.3000464  
C    2.4951002    2.0940188    2.9809380  
C    1.9440701    1.6314916    1.8291961  
C    0.8759964    0.7350050    2.2038498  
C    0.8497377    0.7130254    3.6788474  
N    1.8560616    1.5571714    4.0882609  
C   -0.0205033   -0.0168748    4.4215661  
C   -0.9962600   -0.8356168    3.7214979  
O   -1.8224391   -1.5286685    4.3006425  
C   -0.9864710   -0.8277881    2.1595606  
O   -1.8030528   -1.5133726    1.5592035  
C    0.0000000    0.0000000    1.4700000  
H    2.2509283    1.8888011    0.8310761  
H   -0.0229599   -0.0187323    5.5027230  
H    3.3143982    2.7817323    3.1139444  
H    2.0889452    1.7545833    5.0442112  
