60

C    0.7214786   -1.0938689   -9.5474197  
C    0.2914229    0.0049637   -8.8402516  
C    0.3647565    1.1230083   -9.7229737  
C    0.8503644    0.6411365  -10.9655152  
N    1.0584982   -0.7083882  -10.8238096  
C    1.0486653    1.4709549  -12.0731562  
C    0.7510433    2.8115887  -11.9238279  
O    0.9258751    3.6662799  -12.9735654  
C    0.2658738    3.3114016  -10.6919129  
O    0.0164306    4.6682422  -10.7021032  
C    0.0702601    2.4933919   -9.5986964  
H    1.3917258   -1.3230215  -11.5443417  
H    1.4186351    1.1098931  -13.0228720  
H    0.6630697    4.5413727  -12.6598630  
H   -0.3078270    4.9244076   -9.8332882  
H   -0.3024099    2.9049030   -8.6679694  
H    0.8158346   -2.1218312   -9.2418890  
C    1.7704312   -2.0997830   -5.2515185  
C    1.5928585   -1.6333167   -6.5144327  
C    0.4607457   -0.7379009   -6.4771946  
C   -0.0100421   -0.7207977   -5.0790331  
N    0.8257125   -1.5670937   -4.3875227  
C   -1.0641734    0.0073898   -4.6315339  
C   -1.7831601    0.8289562   -5.5910239  
O   -2.7459475    1.5206787   -5.2862920  
C   -1.3021140    0.8259151   -7.0770897  
O   -1.8998117    1.5134385   -7.8939923  
C   -0.1528624    0.0000283   -7.4390071  
H    2.1870135   -1.8876241   -7.3740379  
H    2.5118285   -2.7880437   -4.8793388  
H    0.7607707   -1.7654786   -3.4059558  
C    1.1319248    0.0015675   -0.8009270  
C    0.7969916    0.0034959   -2.1169404  
C   -0.6453336    0.0035703   -2.1842672  
C   -1.1266831    0.0015415   -0.7896027  
N    0.0000000    0.0000000    0.0000000  
C   -2.4346129    0.0013924   -0.4276297  
C   -3.4350110    0.0031352   -1.4820184  
O   -4.6384610    0.0030897   -1.2583919  
C   -2.9478958    0.0050460   -2.9661075  
O   -3.7809377    0.0062160   -3.8623775  
C   -1.5113821    0.0053068   -3.2312125  
H    1.4821240    0.0045436   -2.9459192  
H   -2.7664565    0.0000185    0.6013447  
H    2.1104318    0.0009428   -0.3488058  
C    2.5128556    2.1077716    2.9199648  
C    1.9592212    1.6432552    4.0696553  
C    0.8915788    0.7479214    3.6910360  
C    0.8684491    0.7287414    2.2159470  
N    1.8754542    1.5738793    1.8102719  
C    0.0000000    0.0000000    1.4700000  
C   -0.9772830   -0.8200135    2.1664417  
O   -1.8021297   -1.5120829    1.5842315  
C   -0.9711318   -0.8147624    3.7284083  
O   -1.7894187   -1.5009653    4.3257297  
C    0.0140216    0.0115358    4.4216297  
H    2.2638494    1.8988021    5.0689105  
H    0.0117648    0.0094386    5.5031631  
H    3.3327358    2.7953732    2.7900019  
H    2.1123206    1.7707734    0.8551938  
