62

C    4.2255539   -0.0174887   -8.2272746  
C    5.2617198   -0.6935459   -8.8287515  
C    5.2485152   -0.3331921  -10.2088137  
C    4.1731624    0.5734488  -10.3919677  
N    3.5718795    0.7417912   -9.1693752  
C    3.8622478    1.1371336  -11.6330886  
C    4.6514567    0.7792818  -12.7088537  
O    4.3922259    1.3004438  -13.9434399  
C    5.7286239   -0.1240875  -12.5462153  
O    6.4196088   -0.3808919  -13.7123796  
C    6.0357592   -0.6807729  -11.3221685  
H    5.9425687   -1.3648078   -8.3339331  
H    2.7850479    1.3380626   -8.9867888  
H    3.0439190    1.8286242  -11.7793117  
H    5.0510887    0.9251861  -14.5420601  
H    7.1297735   -0.9992782  -13.5152285  
H    6.8668399   -1.3699595  -11.2283382  
C    5.7035980   -2.1123456   -4.6323628  
C    5.5262382   -1.6495162   -5.8966442  
C    4.3945378   -0.7534738   -5.8620418  
C    3.9237595   -0.7320394   -4.4639363  
N    4.7591255   -1.5766815   -3.7699383  
C    2.8699641   -0.0020530   -4.0185824  
C    2.1513545    0.8170171   -4.9804864  
O    1.1888859    1.5100763   -4.6777914  
C    2.6323973    0.8093812   -6.4665363  
O    2.0350151    1.4947725   -7.2854585  
C    3.7812681   -0.0180958   -6.8260216  
H    6.1202751   -1.9066256   -6.7554977  
H    6.4446790   -2.7998496   -4.2581597  
H    4.6940935   -1.7721471   -2.7877920  
C    3.2573670   -0.0002921   -1.5109382  
C    2.5379468   -0.0001711   -0.3591962  
C    1.1435043    0.0000330   -0.7338498  
C    1.1092608   -0.0000085   -2.2088474  
N    2.4227562    0.0001906   -2.6182610  
C   -0.0265533   -0.0002525   -2.9515663  
C   -1.3003033   -0.0002641   -2.2514979  
O   -2.3786785   -0.0004132   -2.8306425  
C   -1.2877724    0.0000310   -0.6895608  
O   -2.3539956    0.0003306   -0.0892035  
C    0.0000000    0.0000000    0.0000000  
H    2.9384091   -0.0000370    0.6389240  
H   -0.0296290   -0.0004088   -4.0327231  
H    4.3270394   -0.0004767   -1.6439445  
C    2.5311839    2.1237619    3.0120429  
C    1.9795631    1.6616747    1.8395852  
C    0.9223175    0.7739173    2.1983588  
C    0.8753926    0.7337535    3.6154372  
N    1.8668922    1.5631002    4.0777464  
C   -0.0496243   -0.0427881    4.3197917  
C   -0.9437528   -0.7922060    3.5801400  
O   -1.8685244   -1.5680278    4.2172520  
C   -0.9124520   -0.7656372    2.1655264  
O   -1.8671164   -1.5663939    1.5732860  
C    0.0000000    0.0000000    1.4700000  
H    2.3005065    1.9304404    0.8477417  
H    2.0679347    1.7444845    5.0445261  
H   -0.0904770   -0.0778569    5.3997470  
H   -2.3849669   -2.0011402    3.5251786  
H   -1.7775064   -1.4909735    0.6183591  
H    3.3468514    2.8078103    3.1724291  
