62

C    2.6640389   -2.8811873   -5.6027104  
C    3.2364374   -3.5901247   -4.5720628  
C    4.3175760   -4.3352565   -5.1293047  
C    4.3569846   -4.0380274   -6.5156770  
N    3.3382724   -3.1536257   -6.7699878  
C    5.3005047   -4.5975378   -7.3825720  
C    6.2211995   -5.4728127   -6.8399938  
O    7.1648659   -6.0475182   -7.6413822  
C    6.1977999   -5.7821852   -5.4592128  
O    7.1796358   -6.6706439   -5.0719354  
C    5.2671120   -5.2307966   -4.6034582  
H    2.9136814   -3.5732383   -3.5451564  
H    3.1259584   -2.7551925   -7.6667349  
H    5.3357614   -4.3751961   -8.4401755  
H    7.6982865   -6.6158934   -7.0707001  
H    7.0936702   -6.8257471   -4.1263366  
H    5.2737621   -5.4868414   -3.5504271  
C    1.5214681   -1.9563162   -5.5959991  
C    0.7564344   -1.5844073   -4.5433899  
C   -0.2212177   -0.6607930   -5.0980362  
C    0.1090029   -0.5886732   -6.5375977  
N    1.1296218   -1.3460487   -6.8354367  
C   -0.6386058    0.2326998   -7.4494710  
C   -1.6694953    0.9491468   -6.9461763  
O   -2.4518892    1.7570649   -7.6818187  
C   -2.0277815    0.8972570   -5.4980401  
O   -2.9783775    1.5758982   -5.1094083  
C   -1.2456329    0.0471727   -4.5828766  
H    0.8445932   -1.8981613   -3.5172991  
H   -0.3750446    0.2664711   -8.4965174  
H   -3.0926575    2.1264000   -7.0476575  
C    1.1243410    0.0099923   -0.7919003  
C    0.7474076    0.0234544   -2.1148543  
C   -0.6787381    0.0234490   -2.1414700  
C   -1.1201745    0.0098592   -0.7935546  
N    0.0000000    0.0000000    0.0000000  
C   -2.4730816    0.0063709   -0.4408240  
C   -3.3971958    0.0170982   -1.4675058  
O   -4.7313517    0.0146259   -1.1793471  
C   -2.9763648    0.0303504   -2.8186324  
O   -4.0166480    0.0395118   -3.7247624  
C   -1.6418562    0.0335260   -3.1673481  
H    1.4178717    0.0310972   -2.9571209  
H   -2.8160166   -0.0041111    0.5845966  
H   -5.1938818    0.0230867   -2.0274384  
H   -3.6464675    0.0482293   -4.6127343  
H    2.1062467    0.0052819   -0.3505407  
C    0.0000000    0.0000000    1.4700000  
C    1.0662921    0.0000102    2.3034270  
C    0.4961870   -0.0000064    3.6418889  
C   -0.9663858    0.0000850    3.4240247  
N   -1.2632773    0.0000084    2.1528658  
C   -1.8985362    0.0000517    4.5177257  
C   -1.3925775   -0.0004564    5.7720543  
O   -2.1456383   -0.0005410    6.8851312  
C    0.0786232   -0.0009323    6.0245000  
O    0.4683759   -0.0012588    7.1921102  
C    1.0143166   -0.0008442    4.8859032  
H    2.1107198   -0.0000632    2.0421868  
H   -2.9622183    0.0003270    4.3293377  
H   -1.5042274   -0.0009692    7.6184419  
H    2.0724152   -0.0013148    5.1109744  
