64

C    6.0516302   -2.0736823   -4.7437825  
C    7.0798885   -2.9276228   -4.4183004  
C    7.9820570   -2.9331453   -5.5231352  
C    7.4474914   -2.0560920   -6.5013707  
N    6.2741372   -1.5526944   -5.9969436  
C    8.0766633   -1.8161776   -7.7266759  
C    9.2673179   -2.4733860   -7.9687452  
O    9.9237724   -2.2751906   -9.1489140  
C    9.8164280   -3.3526262   -7.0052972  
O   11.0067556   -3.9310175   -7.3950769  
C    9.1961429   -3.5899913   -5.7964013  
H    7.1682320   -3.4796057   -3.4982439  
H    5.6767834   -0.8945366   -6.4638243  
H    7.6743435   -1.1490125   -8.4764968  
H   10.7201436   -2.8208969   -9.1133735  
H   11.3094647   -4.5096392   -6.6885584  
H    9.6406375   -4.2689504   -5.0781277  
C    4.4925592   -2.1138025   -2.7420812  
C    4.8565033   -1.6946791   -3.9763664  
C    3.8030380   -0.7794120   -4.3874582  
C    2.8583246   -0.7634597   -3.2499848  
N    3.2572736   -1.5437000   -2.2824861  
C    1.6628945    0.0339172   -3.2649299  
C    1.4223699    0.7816762   -4.3659921  
O    0.3461538    1.5724674   -4.5158198  
C    2.3568204    0.7871864   -5.5300084  
O    2.0745625    1.4917539   -6.4990983  
C    3.5763792   -0.0392797   -5.4905723  
H    0.4536189    1.9730611   -5.3973685  
H    4.2275608   -0.0074320   -6.3538098  
H    5.0117284   -2.8025037   -2.0946814  
C    1.1243410    0.0100105   -0.7919003  
C    0.7474072    0.0234665   -2.1148542  
C   -0.6787384    0.0234379   -2.1414698  
C   -1.1201748    0.0098411   -0.7935547  
N    0.0000000    0.0000000    0.0000000  
C   -2.4730818    0.0063307   -0.4408240  
C   -3.3971962    0.0170429   -1.4675058  
O   -4.7313520    0.0145490   -1.1793468  
C   -2.9763654    0.0303020   -2.8186325  
O   -4.0166484    0.0394464   -3.7247625  
C   -1.6418567    0.0334992   -3.1673480  
H   -2.8160166   -0.0041569    0.5845966  
H   -5.1938823    0.0230023   -2.0274386  
H   -3.6464680    0.0481700   -4.6127343  
H   -1.3497475    0.0435647   -4.2109234  
H    2.1062466    0.0053162   -0.3505405  
C    2.5285572    2.1210227    2.9438989  
C    1.9331703    1.6216660    4.0790748  
C    0.8903039    0.7472258    3.6520102  
C    0.8972198    0.7527806    2.2336141  
N    1.9028376    1.5986179    1.8362361  
C    0.0000000    0.0000000    1.4700000  
C   -0.9207814   -0.7726952    2.1506477  
O   -1.8198395   -1.5274828    1.4542253  
C   -0.9436862   -0.7911793    3.5655508  
O   -1.9197945   -1.6098497    4.0950179  
C   -0.0590329   -0.0485852    4.3195194  
H    2.2150357    1.8593692    5.0905303  
H    2.1533708    1.7953814    0.8841339  
H   -2.3621246   -1.9821033    2.1118817  
H   -1.8668290   -1.5649508    5.0545920  
H   -0.1007624   -0.0827977    5.4019087  
H    3.3491200    2.8096064    2.8367138  
