62

C   -0.1034816    0.0914625   -8.7392623  
C    0.6647942   -0.5558292   -9.6790670  
C    0.1826892   -0.1534337  -10.9597900  
C   -0.8894336    0.7480267  -10.7365239  
N   -1.0379484    0.8729822   -9.3775002  
C   -1.6038072    1.3465232  -11.7787630  
C   -1.2288547    1.0294556  -13.0699083  
O   -1.8924710    1.5857474  -14.1249751  
C   -0.1620114    0.1319122  -13.3129677  
O    0.0899382   -0.0823297  -14.6523581  
C    0.5430018   -0.4591009  -12.2852588  
H    1.4725405   -1.2353883   -9.4675520  
H   -1.7146432    1.4557814   -8.9187955  
H   -2.4220082    2.0342809  -11.6152408  
H   -1.4775215    1.2353867  -14.9239303  
H    0.8239026   -0.6996230  -14.7288353  
H    1.3553442   -1.1428253  -12.5022822  
C    2.5409787   -2.1228912   -5.9711679  
C    1.9926483   -1.6610298   -4.7970789  
C    0.9342952   -0.7733297   -5.1527152  
C    0.8833350   -0.7329666   -6.5696486  
N    1.8736004   -1.5621444   -7.0348961  
C   -0.0437617    0.0435814   -7.2712563  
C   -0.9358592    0.7928004   -6.5289556  
O   -1.8625194    1.5686191   -7.1633227  
C   -0.9005315    0.7660310   -5.1144410  
O   -1.8535892    1.5666039   -4.5193714  
C    0.0139741    0.0003876   -4.4216236  
H    2.3164396   -1.9299054   -3.8061914  
H    2.0719103   -1.7433687   -8.0022701  
H   -2.3770352    2.0015783   -6.4697198  
H   -1.7612553    1.4910553   -3.5647139  
H    3.3562571   -2.8068328   -6.1339727  
C    3.2798085    0.0005853   -1.4499648  
C    2.5571144    0.0005562   -2.5996554  
C    1.1637436    0.0001546   -2.2210360  
C    1.1336965   -0.0000201   -0.7459470  
N    2.4483513   -0.0001430   -0.3402717  
C    0.0000000    0.0000000    0.0000000  
C   -1.2757367   -0.0000188   -0.6964414  
O   -2.3524597   -0.0000640   -0.1142313  
C   -1.2676494   -0.0000875   -2.2584081  
O   -2.3355762   -0.0004102   -2.8557294  
C    0.0181562    0.0001757   -2.9516296  
H    2.9547357    0.0006072   -3.5989105  
H    4.3498550    0.0008609   -1.3200021  
H    2.7563627    0.0012824    0.6148063  
C    2.5128556    2.1077716    2.9199648  
C    1.9592212    1.6432552    4.0696553  
C    0.8915788    0.7479214    3.6910360  
C    0.8684491    0.7287414    2.2159470  
N    1.8754542    1.5738793    1.8102719  
C    0.0000000    0.0000000    1.4700000  
C   -0.9772830   -0.8200135    2.1664417  
O   -1.8021297   -1.5120829    1.5842315  
C   -0.9711318   -0.8147624    3.7284083  
O   -1.7894187   -1.5009653    4.3257297  
C    0.0140216    0.0115358    4.4216297  
H    2.2638494    1.8988021    5.0689105  
H    0.0117648    0.0094386    5.5031631  
H    3.3327358    2.7953732    2.7900019  
H    2.1123206    1.7707734    0.8551938  
