60

C    4.5651563    0.0002515   -7.8772046  
C    4.9074547    0.0009609   -6.5448016  
C    6.3324212    0.0006880   -6.4809998  
C    6.8088652    0.0000854   -7.8170109  
N    5.7097706   -0.0021173   -8.6395708  
C    8.1705125   -0.0000137   -8.1343531  
C    9.0675328    0.0008118   -7.0838619  
O   10.4087516    0.0011067   -7.3371356  
C    8.6116038    0.0010461   -5.7441060  
O    9.6278976    0.0014666   -4.8111057  
C    7.2684536    0.0008709   -5.4303012  
H    4.2152501    0.0004914   -5.7202743  
H    5.7359555    0.0075579   -9.6431635  
H    8.5400775   -0.0006158   -9.1505335  
H   10.8490026    0.0013905   -6.4772268  
H    9.2346825    0.0016292   -3.9330475  
H    3.5950971   -0.0001979   -8.3440500  
C    6.8354437    0.0008786   -4.0255229  
C    5.5758874    0.0005992   -3.5179853  
C    5.7016159    0.0007905   -2.0795737  
C    7.1480382    0.0012363   -1.7886223  
N    7.7802454    0.0008701   -3.0105895  
C    7.6812948    0.0019202   -0.5406876  
C    6.7698185    0.0020122    0.5914547  
O    7.1520245    0.0025452    1.7543043  
C    5.2340022    0.0012939    0.3067212  
O    4.4569006    0.0010578    1.2519059  
C    4.7795901    0.0008674   -1.0815733  
H    4.6629022    0.0001117   -4.0863787  
H    8.7453470    0.0023682   -0.3491099  
H    8.7747876    0.0025946   -3.1444910  
C    3.3321168    0.0004716   -1.3379341  
C    2.6974177    0.0000118   -2.5332316  
C    1.2800432   -0.0002116   -2.2052842  
C    1.2395033    0.0000644   -0.7271298  
N    2.4394059    0.0005460   -0.2131041  
C    0.0000000    0.0000000    0.0000000  
C   -1.1468704    0.0000635   -0.7169542  
O   -2.3742206    0.0000074   -0.1695488  
C   -1.1388774    0.0001608   -2.2096352  
O   -2.2206238    0.0000906   -2.7970409  
C    0.1454514    0.0001818   -2.9324241  
H    3.1367978   -0.0000649   -3.5160956  
H   -2.9844350    0.0001027   -0.9290164  
H    0.1083567    0.0003684   -4.0135594  
C    0.0000000    0.0000000    1.4700000  
C    1.0662921    0.0000102    2.3034270  
C    0.4961870   -0.0000064    3.6418889  
C   -0.9663858    0.0000850    3.4240247  
N   -1.2632773    0.0000084    2.1528658  
C   -1.8985362    0.0000517    4.5177257  
C   -1.3925775   -0.0004564    5.7720543  
O   -2.1456383   -0.0005410    6.8851312  
C    0.0786232   -0.0009323    6.0245000  
O    0.4683759   -0.0012588    7.1921102  
C    1.0143166   -0.0008442    4.8859032  
H    2.1107198   -0.0000632    2.0421868  
H   -2.9622183    0.0003270    4.3293377  
H   -1.5042274   -0.0009692    7.6184419  
H    2.0724152   -0.0013148    5.1109744  
