62

C   -6.8711881    1.9442658    0.1875488  
C   -7.1639207    2.7753258    1.2440123  
C   -8.5768800    2.7264563    1.4331019  
C   -9.0973876    1.8413316    0.4545560  
N   -8.0351822    1.3856578   -0.2861854  
C  -10.4609282    1.5522607    0.3450831  
C  -11.3145360    2.1676985    1.2399386  
O  -12.6554767    1.9206406    1.1778601  
C  -10.8143113    3.0542082    2.2231442  
O  -11.7905768    3.5871931    3.0393410  
C   -9.4692965    3.3400570    2.3315512  
H   -6.4473483    3.3473588    1.8081892  
H   -8.0956137    0.7339460   -1.0475006  
H  -10.8639737    0.8786846   -0.3985918  
H  -13.0622542    2.4432818    1.8811695  
H  -11.3689780    4.1741508    3.6744305  
H   -9.1156189    4.0233801    3.0947424  
C   -4.3568011    2.1196432   -0.0439434  
C   -5.5783087    1.6201330   -0.4323715  
C   -5.3394752    0.7460401   -1.5339702  
C   -3.9416100    0.7519547   -1.7745206  
N   -3.3751248    1.5976636   -0.8533860  
C   -3.3460097   -0.0004262   -2.7913647  
C   -4.1766438   -0.7730847   -3.5795419  
O   -3.6475259   -1.5274892   -4.5864790  
C   -5.5738549   -0.7919241   -3.3553482  
O   -6.2652647   -1.6105065   -4.2243823  
C   -6.1621470   -0.0497242   -2.3525630  
H   -2.3939627    1.7946126   -0.7726814  
H   -4.3895802   -1.9821535   -5.0058840  
H   -7.2009061   -1.5658643   -4.0048709  
H   -7.2352196   -0.0842033   -2.2048984  
H   -4.1083018    2.8080669    0.7455379  
C    0.0000000    0.0000000    0.0000000  
C    1.0662919   -0.0000103   -0.8334272  
C    0.4961868    0.0000066   -2.1718889  
C   -0.9663860   -0.0000849   -1.9540248  
N   -1.2632775   -0.0000084   -0.6828659  
C   -1.8985364   -0.0000515   -3.0477258  
C   -1.3925778    0.0004567   -4.3020543  
O   -2.1456385    0.0005412   -5.4151314  
C    0.0786229    0.0009326   -4.5544999  
O    0.4683756    0.0012594   -5.7221104  
C    1.0143162    0.0008443   -3.4159034  
H    2.1107195    0.0000631   -0.5721869  
H   -1.5042277    0.0009692   -6.1484420  
H    2.0724151    0.0013151   -3.6409746  
C    3.2573670    0.0002920    2.9809380  
C    2.5379467    0.0001709    1.8291961  
C    1.1435042   -0.0000331    2.2038498  
C    1.1092607    0.0000083    3.6788474  
N    2.4227561   -0.0001909    4.0882609  
C   -0.0265533    0.0002524    4.4215661  
C   -1.3003036    0.0002640    3.7214979  
O   -2.3786784    0.0004133    4.3006425  
C   -1.2877726   -0.0000311    2.1595606  
O   -2.3539958   -0.0003306    1.5592035  
C    0.0000000    0.0000000    1.4700000  
H    2.9384090    0.0000368    0.8310761  
H   -0.0296291    0.0004086    5.5027230  
H    4.3270393    0.0004765    3.1139444  
H    2.7280493    0.0013407    5.0442112  
