60

C    5.5229715   -2.3823639   -6.6592262  
C    6.4967474   -2.5958806   -7.6071913  
C    6.6681750   -1.3676592   -8.3119496  
C    5.7645855   -0.4328158   -7.7449227  
N    5.0833961   -1.0820965   -6.7454068  
C    5.6607926    0.8870094   -8.1944536  
C    6.4843822    1.2701802   -9.2351537  
O    6.4243903    2.5474033   -9.7127665  
C    7.3921839    0.3518260   -9.8142379  
O    8.1429313    0.8851431  -10.8415129  
C    7.4949234   -0.9504455   -9.3714518  
H    7.0184761   -3.5231573   -7.7713613  
H    4.9740514    1.6043297   -7.7666206  
H    7.0721926    2.6024153  -10.4273232  
H    8.7295198    0.2002598  -11.1768524  
H    8.1994915   -1.6311938   -9.8347484  
H    5.1061914   -3.0551060   -5.9293834  
C    3.9135205   -0.7081243   -4.5250692  
C    2.8699641   -0.0020530   -4.0185824  
C    2.2916400    0.7390435   -5.1145535  
C    3.0895145    0.4044296   -6.3096355  
N    4.0568589   -0.4768159   -5.8847345  
C    2.8606213    0.9024529   -7.5511207  
C    1.7547619    1.8301062   -7.7216203  
O    1.4676782    2.3333354   -8.7998802  
C    0.8966364    2.1987794   -6.4696198  
O   -0.0368097    2.9789838   -6.6008455  
C    1.2404684    1.5971819   -5.1836520  
H    3.4577919    0.6439616   -8.4145320  
H    0.6412571    1.8574785   -4.3217268  
H    4.5900518   -1.3778176   -4.0193959  
C    3.2573670   -0.0002921   -1.5109382  
C    2.5379468   -0.0001711   -0.3591962  
C    1.1435043    0.0000330   -0.7338498  
C    1.1092608   -0.0000085   -2.2088474  
N    2.4227562    0.0001906   -2.6182610  
C   -0.0265533   -0.0002525   -2.9515663  
C   -1.3003033   -0.0002641   -2.2514979  
O   -2.3786785   -0.0004132   -2.8306425  
C   -1.2877724    0.0000310   -0.6895608  
O   -2.3539956    0.0003306   -0.0892035  
C    0.0000000    0.0000000    0.0000000  
H    2.9384091   -0.0000370    0.6389240  
H   -0.0296290   -0.0004088   -4.0327231  
H    4.3270394   -0.0004767   -1.6439445  
C    2.3971438    2.0127888    3.1728260  
C    1.9431056    1.6308205    1.9564670  
C    0.8496017    0.7127664    2.2356185  
C    0.7794028    0.6545384    3.7115134  
N    1.6840587    1.4146091    4.2663826  
C   -0.1885723   -0.1578550    4.3957118  
C   -1.0476298   -0.8789867    3.6398520  
O   -2.0015663   -1.6796266    4.1448486  
C   -1.0022026   -0.8410666    2.1483229  
O   -1.8147390   -1.5232959    1.5241687  
C    0.0000000    0.0000000    1.4700000  
H    2.3054237    1.9346118    0.9892483  
H   -0.2170646   -0.1815267    5.4753125  
H   -2.4487139   -2.0549881    3.3649027  
H    3.2048689    2.6911772    3.3971983  
