60

C    8.4278963   -0.7225280    0.0755468  
C    8.1165426   -0.0037914   -1.0553572  
C    9.2879207    0.7225043   -1.4227365  
C   10.2905186    0.4042153   -0.4712041  
N    9.7344766   -0.4740631    0.4254905  
C   11.5802148    0.9416113   -0.5229927  
C   11.8630324    1.8160159   -1.5543065  
O   13.1067930    2.3695825   -1.6524708  
C   10.8759178    2.1462093   -2.5131565  
O   11.3119708    3.0308854   -3.4778058  
C    9.6033130    1.6166433   -2.4625288  
H   10.2112319   -0.8838016    1.2083062  
H   12.3488015    0.7031528    0.1992356  
H   13.0905387    2.9412758   -2.4310381  
H   10.5855179    3.2009275   -4.0852234  
H    8.8681783    1.8883289   -3.2110220  
H    7.8209065   -1.3916350    0.6610536  
C    5.5795936   -0.0015222   -1.1027757  
C    4.5679461   -0.0016854   -2.0086701  
C    5.1756898   -0.0023284   -3.3184345  
C    6.6347911   -0.0025574   -3.0997722  
N    6.8134018   -0.0016468   -1.7355922  
C    7.5609147   -0.0035413   -4.0917394  
C    7.0891356   -0.0042082   -5.4664974  
O    7.8442685   -0.0050456   -6.4298635  
C    5.5480924   -0.0037283   -5.7214291  
O    5.1390415   -0.0039759   -6.8746585  
C    4.6483398   -0.0029380   -4.5706482  
H    8.6266511   -0.0038221   -3.9097631  
H    3.5827541   -0.0028153   -4.7557202  
H    5.5275967   -0.0011045   -0.0261209  
C    3.1301149   -0.0010311   -1.7028252  
C    2.5367768   -0.0002767   -0.4864665  
C    1.1089904    0.0001028   -0.7656183  
C    1.0177872   -0.0004148   -2.2415132  
N    2.1993578   -0.0011611   -2.7963820  
C   -0.2459209   -0.0002877   -2.9257118  
C   -1.3675319   -0.0000605   -2.1698524  
O   -2.6129313    0.0000867   -2.6748490  
C   -1.3083584    0.0000910   -0.6783232  
O   -2.3693261    0.0004206   -0.0541692  
C    0.0000000    0.0000000    0.0000000  
H    3.0096017   -0.0001007    0.4807525  
H   -0.2829630   -0.0004687   -4.0053125  
H   -3.1967441    0.0002094   -1.8949034  
C    0.0000000    0.0000000    1.4700000  
C    1.0662921    0.0000102    2.3034270  
C    0.4961870   -0.0000064    3.6418889  
C   -0.9663858    0.0000850    3.4240247  
N   -1.2632773    0.0000084    2.1528658  
C   -1.8985362    0.0000517    4.5177257  
C   -1.3925775   -0.0004564    5.7720543  
O   -2.1456383   -0.0005410    6.8851312  
C    0.0786232   -0.0009323    6.0245000  
O    0.4683759   -0.0012588    7.1921102  
C    1.0143166   -0.0008442    4.8859032  
H    2.1107198   -0.0000632    2.0421868  
H   -2.9622183    0.0003270    4.3293377  
H   -1.5042274   -0.0009692    7.6184419  
H    2.0724152   -0.0013148    5.1109744  
