64

C   -6.9750158    1.9480796   -0.1210997  
C   -7.3243147    2.7793404    0.9178727  
C   -8.7454959    2.7312797    1.0298155  
C   -9.2125029    1.8464187    0.0244041  
N   -8.1118316    1.3901173   -0.6574542  
C  -10.5682322    1.5581187   -0.1590847  
C  -11.4689069    2.1740706    0.6880071  
O  -12.8046251    1.9277724    0.5530719  
C  -11.0224064    3.0603283    1.6969679  
O  -12.0413250    3.5938944    2.4588448  
C   -9.6851194    3.3454167    1.8783846  
H   -6.6391701    3.3509849    1.5201955  
H   -8.1311284    0.7384149   -1.4209283  
H  -10.9306080    0.8847472   -0.9235832  
H  -13.2487639    2.4506676    1.2332096  
H  -11.6545664    4.1806334    3.1159283  
H   -9.3730946    4.0285638    2.6596847  
C   -4.4516594    2.1220212   -0.2154633  
C   -5.6505107    1.6231922   -0.6697670  
C   -5.3526002    0.7489276   -1.7567399  
C   -3.9437154    0.7540403   -1.9208883  
N   -3.4276993    1.5994576   -0.9703018  
C   -3.2941076    0.0012878   -2.9038237  
C   -4.0810733   -0.7709246   -3.7360199  
O   -3.4983895   -1.5256626   -4.7126798  
C   -5.4884225   -0.7889631   -3.5881683  
O   -6.1319969   -1.6071811   -4.4935277  
C   -6.1299739   -0.0463962   -2.6188734  
H   -2.4522686    1.7958519   -0.8363405  
H   -4.2167872   -1.9799191   -5.1718316  
H   -7.0781694   -1.5620003   -4.3252416  
H   -7.2095096   -0.0802609   -2.5298041  
H   -4.2460849    2.8103295    0.5863662  
C    0.0000000    0.0000000    0.0000000  
C    1.0541688   -0.0001723   -0.8560392  
C    0.5103136   -0.0000455   -2.1935956  
C   -0.9576373    0.0002461   -2.0455730  
N   -1.2018460   -0.0001389   -0.6915968  
C   -1.8348314    0.0008319   -3.0810607  
C   -1.2972851    0.0009739   -4.4314603  
O   -2.0050676    0.0014268   -5.4301316  
C    0.2542619    0.0004184   -4.6117572  
O    0.7184666    0.0002257   -5.7439122  
C    1.0974551    0.0000873   -3.4189129  
H    2.0940752   -0.0005484   -0.5817983  
H    2.1707276   -0.0000912   -3.5523673  
H   -2.1128194    0.0014915   -0.2706789  
C    3.3041272   -0.0001177    3.0120429  
C    2.5845372    0.0004780    1.8395852  
C    1.2040006    0.0000008    2.1983588  
C    1.1422373   -0.0006037    3.6154372  
N    2.4348639   -0.0026109    4.0777464  
C   -0.0655181   -0.0008797    4.3197917  
C   -1.2321768   -0.0002324    3.5801400  
O   -2.4392816   -0.0001146    4.2172520  
C   -1.1911209    0.0000007    2.1655264  
O   -2.4371527    0.0002320    1.5732860  
C    0.0000000    0.0000000    1.4700000  
H    3.0031534    0.0000661    0.8477417  
H    2.7054629    0.0071099    5.0445261  
H   -0.1193549   -0.0014844    5.3997470  
H   -3.1132988    0.0000648    3.5251786  
H   -2.3200282    0.0004071    0.6183591  
H    4.3686625   -0.0004071    3.1724291  
