66

C    3.3003554    0.0005279   -1.4738974  
C    2.5232827    0.0003500   -2.6090737  
C    1.1623213   -0.0001318   -2.1820100  
C    1.1711891    0.0000584   -0.7636139  
N    2.4852307   -0.0014918   -0.3662351  
C    0.0000000    0.0000000    0.0000000  
C   -1.2020377    0.0000521   -0.6806487  
O   -2.3759251    0.0003494    0.0157735  
C   -1.2314643   -0.0005113   -2.0955516  
O   -2.5054380   -0.0008037   -2.6250188  
C   -0.0764500   -0.0007272   -2.8495198  
H    2.8036267    0.0088182    0.5858675  
H   -3.0835632    0.0000344   -0.6418834  
H   -2.4360031   -0.0011528   -3.5845932  
H   -0.1304077   -0.0013419   -3.9319084  
H    4.3715557    0.0004898   -1.3667115  
C    4.1182206   -0.7098242   -4.4345219  
C    4.3063937   -0.4605390   -5.7742663  
C    3.2826558    0.4475822   -6.1766057  
C    2.4931738    0.7193452   -5.0299633  
N    3.0267454   -0.0008948   -3.9901688  
C    1.3904701    1.5784648   -5.0572790  
C    1.0792537    2.1743287   -6.2640385  
O    0.0128535    3.0222365   -6.3468383  
C    1.8547108    1.9154240   -7.4192234  
O    1.4171373    2.5841568   -8.5437985  
C    2.9425281    1.0677821   -7.3930712  
H    0.7846364    1.7896272   -4.1868892  
H   -0.0265946    3.3225741   -7.2641747  
H    1.9945715    2.3544012   -9.2782274  
H    3.5175178    0.8886452   -8.2940571  
H    4.6753598   -1.3383447   -3.7610852  
C    6.0563635   -4.5191617   -5.9294007  
C    6.9666001   -4.2798411   -6.9327261  
C    6.8139067   -2.9145477   -7.3164685  
C    5.7871825   -2.3666250   -6.5055776  
N    5.3476224   -3.3681682   -5.6759299  
C    5.3695493   -1.0364347   -6.6102949  
C    6.0000803   -0.2448690   -7.5505247  
O    5.6315951    1.0614682   -7.6944553  
C    7.0263888   -0.7734243   -8.3691448  
O    7.5556177    0.1406043   -9.2567321  
C    7.4387185   -2.0856700   -8.2665715  
H    7.6550997   -5.0009336   -7.3389122  
H    4.6294353   -3.2727081   -4.9808925  
H    6.1883956    1.4267018   -8.3943431  
H    8.2413930   -0.2965430   -9.7707529  
H    8.2273264   -2.4623758   -8.9074052  
H    5.8556358   -5.4202044   -5.3755149  
C    2.5311839    2.1237619    3.0120429  
C    1.9795631    1.6616747    1.8395852  
C    0.9223175    0.7739173    2.1983588  
C    0.8753926    0.7337535    3.6154372  
N    1.8668922    1.5631002    4.0777464  
C   -0.0496243   -0.0427881    4.3197917  
C   -0.9437528   -0.7922060    3.5801400  
O   -1.8685244   -1.5680278    4.2172520  
C   -0.9124520   -0.7656372    2.1655264  
O   -1.8671164   -1.5663939    1.5732860  
C    0.0000000    0.0000000    1.4700000  
H    2.3005065    1.9304404    0.8477417  
H    2.0679347    1.7444845    5.0445261  
H   -0.0904770   -0.0778569    5.3997470  
H   -2.3849669   -2.0011402    3.5251786  
H   -1.7775064   -1.4909735    0.6183591  
H    3.3468514    2.8078103    3.1724291  
