64

C    1.2556435   -1.0438181   -7.6900123  
C    2.3083639   -1.9284464   -7.7310079  
C    2.6023854   -2.1622615   -9.1070465  
C    1.6887605   -1.3864283   -9.8655307  
N    0.8840623   -0.7211339   -8.9742052  
C    1.6878752   -1.3715984  -11.2635891  
C    2.6265829   -2.1539894  -11.9076936  
O    2.6701635   -2.1764130  -13.2717363  
C    3.5463119   -2.9352459  -11.1683997  
O    4.4178404   -3.6601825  -11.9546883  
C    3.5475869   -2.9505710   -9.7891650  
H    2.8027529   -2.3538472   -6.8744994  
H    0.1468644   -0.0855579   -9.2203010  
H    0.9941147   -0.7825781  -11.8475012  
H    3.3874235   -2.7772453  -13.5121610  
H    5.0042840   -4.1593851  -11.3780733  
H    4.2641854   -3.5591359   -9.2500807  
C    0.8347517   -0.7156069   -5.2158226  
C    0.5508858   -0.4632070   -6.5380106  
C   -0.5417122    0.4534559   -6.5616509  
C   -0.8847809    0.7269782   -5.2127937  
N   -0.0307352   -0.0004646   -4.4215603  
C   -1.9224331    1.5939529   -4.8572348  
C   -2.6263892    2.1960069   -5.8820051  
O   -3.6492070    3.0516981   -5.5910584  
C   -2.2993314    1.9354703   -7.2340296  
O   -3.0929438    2.6110106   -8.1380030  
C   -1.2759636    1.0800823   -7.5855346  
H   -2.1889633    1.8064963   -3.8310824  
H   -4.0005089    3.3553532   -6.4381984  
H   -2.8062851    2.3796233   -9.0267615  
H   -1.0486913    0.8998823   -8.6297347  
H    1.5851820   -1.3502822   -4.7765045  
C    3.2573670   -0.0002920   -1.5109380  
C    2.5379468   -0.0001709   -0.3591961  
C    1.1435043    0.0000332   -0.7338500  
C    1.1092609   -0.0000082   -2.2088477  
N    2.4227562    0.0001909   -2.6182613  
C   -0.0265532   -0.0002522   -2.9515663  
C   -1.3003035   -0.0002639   -2.2514981  
O   -2.3786784   -0.0004131   -2.8306429  
C   -1.2877725    0.0000312   -0.6895608  
O   -2.3539958    0.0003307   -0.0892036  
C    0.0000000    0.0000000    0.0000000  
H    2.9384091   -0.0000369    0.6389239  
H    4.3270394   -0.0004765   -1.6439446  
H    2.7280494   -0.0013406   -3.5742113  
C    0.8676693    0.7151171    2.2619005  
C    0.5875920    0.4624972    3.5848544  
C   -0.5048400   -0.4542819    3.6114698  
C   -0.8517165   -0.7276451    2.2635546  
N    0.0000000    0.0000000    1.4700000  
C   -1.8902865   -1.5946756    1.9108239  
C   -2.5912627   -2.1969500    2.9375057  
O   -3.6148162   -3.0527051    2.6493466  
C   -2.2603868   -1.9365747    4.2886322  
O   -3.0513550   -2.6123276    5.1947621  
C   -1.2361111   -1.0811317    4.6373480  
H    1.1060808    0.8876438    4.4271209  
H   -2.1597133   -1.8070987    0.8854031  
H   -3.9636755   -3.3565188    3.4974381  
H   -2.7621927   -2.3810384    6.0827341  
H   -1.0058879   -0.9010589    5.6809233  
H    1.6167816    1.3499334    1.8205408  
