60

C    7.5541064    0.0021293   -5.2292169  
C    6.9116470    0.0028888   -6.4456514  
C    7.9235589    0.0036491   -7.4509539  
C    9.1745050    0.0030217   -6.7823288  
N    8.9139658    0.0040547   -5.4344668  
C   10.3958065    0.0031985   -7.4629252  
C   10.3535147    0.0037169   -8.8436455  
O   11.5166202    0.0035593   -9.5579308  
C    9.1152375    0.0047223   -9.5288336  
O    9.2402314    0.0055604  -10.9027774  
C    7.9100058    0.0048217   -8.8580574  
H    5.8448834    0.0039994   -6.5905909  
H    9.6081097   -0.0066429   -4.7091871  
H   11.3526006    0.0028672   -6.9591905  
H   11.2643502    0.0042884  -10.4904665  
H    8.3587987    0.0061826  -11.2883676  
H    6.9773828    0.0057845   -9.4100456  
C    7.0021973    0.0016962   -3.8667574  
C    5.7010034    0.0007395   -3.4946387  
C    5.7268785    0.0007366   -2.0400491  
C    7.1642509    0.0016709   -1.6928548  
N    7.9166766    0.0023172   -2.7595521  
C    7.6175803    0.0019949   -0.3291911  
C    6.6777004    0.0018009    0.6434139  
O    6.9577664    0.0020527    1.9577974  
C    5.2193472    0.0012353    0.3250318  
O    4.4197302    0.0009616    1.2608916  
C    4.7795901    0.0008674   -1.0815733  
H    4.8310648    0.0002032   -4.1288958  
H    8.6741765    0.0024744   -0.1044396  
H    6.0879590    0.0018432    2.3966452  
C    3.3321168    0.0004716   -1.3379341  
C    2.6974177    0.0000118   -2.5332316  
C    1.2800432   -0.0002116   -2.2052842  
C    1.2395033    0.0000644   -0.7271298  
N    2.4394059    0.0005460   -0.2131041  
C    0.0000000    0.0000000    0.0000000  
C   -1.1468704    0.0000635   -0.7169542  
O   -2.3742206    0.0000074   -0.1695488  
C   -1.1388774    0.0001608   -2.2096352  
O   -2.2206238    0.0000906   -2.7970409  
C    0.1454514    0.0001818   -2.9324241  
H    3.1367978   -0.0000649   -3.5160956  
H   -2.9844350    0.0001027   -0.9290164  
H    0.1083567    0.0003684   -4.0135594  
C    0.8400945    0.7047457    2.2710304  
C    0.0000000    0.0000000    1.4700000  
C   -0.8844236   -0.7423113    2.3369512  
C   -0.4878984   -0.4098547    3.7186280  
N    0.5629682    0.4714286    3.6095011  
C   -1.0836927   -0.9095027    4.8308716  
C   -2.1891196   -1.8367527    4.6554461  
O   -2.7906899   -2.3413415    5.5944904  
C   -2.6257283   -2.2031529    3.2011665  
O   -3.5549479   -2.9829990    3.0410059  
C   -1.9068976   -1.5999348    2.0816745  
H   -0.7774656   -0.6525820    5.8354244  
H   -2.2155208   -1.8586617    1.0779135  
H    1.6384792    1.3747609    1.9961646  
H    1.0518368    0.8833920    4.3830260  
