60

C    6.6001509    0.0019432   -4.3713018  
C    7.6333548    0.0021445   -3.4630299  
C    7.0453158    0.0020498   -2.1634874  
C    5.6383368    0.0015002   -2.3433059  
N    5.4022898    0.0034000   -3.6956727  
C    4.7390844    0.0009612   -1.2727295  
C    5.2698384    0.0006705    0.0026047  
O    4.4369622   -0.0002078    1.0839608  
C    6.6708714    0.0015853    0.2024109  
O    7.0428739    0.0015757    1.5309279  
C    7.5585980    0.0023904   -0.8532718  
H    8.6818874    0.0034412   -3.7071041  
H    4.4955250   -0.0070442   -4.1265439  
H    5.0045013    0.0000319    1.8657301  
H    8.0038201    0.0021938    1.5776952  
H    8.6265856    0.0032634   -0.6692047  
H    6.6229014    0.0023217   -5.4476104  
C    3.2798077    0.0005856   -1.4499659  
C    2.5571132    0.0005565   -2.5996562  
C    1.1637425    0.0001548   -2.2210364  
C    1.1336957   -0.0000200   -0.7459472  
N    2.4483508   -0.0001429   -0.3402728  
C    0.0000000    0.0000000    0.0000000  
C   -1.2757370   -0.0000187   -0.6964410  
O   -2.3524597   -0.0000640   -0.1142306  
C   -1.2676501   -0.0000873   -2.2584079  
O   -2.3355772   -0.0004101   -2.8557287  
C    0.0181552    0.0001759   -2.9516296  
H    2.9547343    0.0006074   -3.5989115  
H    2.7563624    0.0012823    0.6148054  
C    2.5049780   -2.0931560   -5.9399574  
C    1.9571799   -1.6308516   -4.7865859  
C    0.8879525   -0.7344211   -5.1580690  
C    0.8574946   -0.7122315   -6.6329826  
N    1.8627360   -1.5562147   -7.0453807  
C   -0.0149312    0.0176861   -7.3731166  
C   -0.9887759    0.8362266   -6.6701572  
O   -1.8166707    1.5292768   -7.2468483  
C   -0.9745417    0.8281737   -5.1082552  
O   -1.7894822    1.5135875   -4.5054775  
C    0.0139724    0.0003878   -4.4216237  
H    2.2669035   -1.8882734   -3.7893802  
H   -0.0204644    0.0196992   -8.4542627  
H    3.3239648   -2.7807661   -6.0753941  
H    2.0929187   -1.7534649   -8.0020178  
C    0.8400945    0.7047457    2.2710304  
C    0.0000000    0.0000000    1.4700000  
C   -0.8844236   -0.7423113    2.3369512  
C   -0.4878984   -0.4098547    3.7186280  
N    0.5629682    0.4714286    3.6095011  
C   -1.0836927   -0.9095027    4.8308716  
C   -2.1891196   -1.8367527    4.6554461  
O   -2.7906899   -2.3413415    5.5944904  
C   -2.6257283   -2.2031529    3.2011665  
O   -3.5549479   -2.9829990    3.0410059  
C   -1.9068976   -1.5999348    2.0816745  
H   -0.7774656   -0.6525820    5.8354244  
H   -2.2155208   -1.8586617    1.0779135  
H    1.6384792    1.3747609    1.9961646  
H    1.0518368    0.8833920    4.3830260  
