64

C   -5.8482339    0.7250166    0.8360117  
C   -6.6832335    0.0062306    0.0122456  
C   -7.5753109   -0.7204756    0.8552731  
C   -7.2340798   -0.4023747    2.1947877  
N   -6.1802904    0.4761917    2.1471843  
C   -7.9084762   -0.9401771    3.2951275  
C   -8.9464445   -1.8148023    3.0385552  
O   -9.6389014   -2.3687673    4.0761680  
C   -9.3016156   -2.1448133    1.7089829  
O  -10.3561674   -3.0297494    1.6186907  
C   -8.6365699   -1.6148464    0.6229923  
H   -5.7297531    0.8858835    2.9454012  
H   -7.6531834   -0.7018634    4.3184721  
H  -10.3103995   -2.9405558    3.6819431  
H  -10.5318248   -3.1996445    0.6881621  
H   -8.9311041   -1.8864007   -0.3839765  
H   -5.0411523    1.3943874    0.5920437  
C   -3.2941076    0.0012874   -2.9038237  
C   -4.0470170    0.0024362   -1.7524795  
C   -5.4166997    0.0030165   -2.1506875  
C   -5.4378086    0.0018828   -3.5689539  
N   -4.1324579    0.0028008   -3.9940138  
C   -6.6248728    0.0017633   -4.3076465  
C   -7.8122586    0.0025002   -3.6017482  
O   -9.0006004    0.0020702   -4.2732066  
C   -7.8117774    0.0040101   -2.1865396  
O   -9.0742766    0.0050115   -1.6302683  
C   -6.6410879    0.0044022   -1.4571488  
H   -3.6570098    0.0039153   -0.7490428  
H   -3.8342563   -0.0082301   -4.9526250  
H   -6.6477244    0.0010461   -5.3887014  
H   -9.6941832    0.0030193   -3.6007429  
H   -8.9845787    0.0059773   -0.6723762  
C    0.0000000    0.0000000    0.0000000  
C    1.0541688   -0.0001722   -0.8560393  
C    0.5103135   -0.0000454   -2.1935957  
C   -0.9576374    0.0002459   -2.0455730  
N   -1.2018460   -0.0001391   -0.6915968  
C   -1.8348314    0.0008317   -3.0810607  
C   -1.2972851    0.0009737   -4.4314604  
O   -2.0050676    0.0014265   -5.4301315  
C    0.2542619    0.0004184   -4.6117571  
O    0.7184666    0.0002257   -5.7439121  
C    1.0974550    0.0000874   -3.4189130  
H    2.0940752   -0.0005483   -0.5817984  
H    2.1707276   -0.0000911   -3.5523671  
H   -2.1128194    0.0014912   -0.2706789  
C    1.1243417   -0.0099156    2.2619005  
C    0.7474090   -0.0234034    3.5848544  
C   -0.6787367   -0.0234952    3.6114698  
C   -1.1201739   -0.0099357    2.2635546  
N    0.0000000    0.0000000    1.4700000  
C   -2.4730812   -0.0065396    1.9108239  
C   -3.3971947   -0.0173298    2.9375057  
O   -4.7313508   -0.0149487    2.6493466  
C   -2.9763630   -0.0305536    4.2886322  
O   -4.0166453   -0.0397858    5.1947621  
C   -1.6418541   -0.0336380    4.6373480  
H    1.4178735   -0.0310004    4.4271209  
H   -2.8160170    0.0039190    0.8854031  
H   -5.1938803   -0.0234410    3.4974381  
H   -3.6464643   -0.0484781    6.0827341  
H   -1.3497443   -0.0436789    5.6809233  
H    2.1062470   -0.0051382    1.8205408  
