62

C    2.4448536   -0.0052842   -8.1446096  
C    3.4805288   -0.0074666   -7.2391600  
C    4.6919343   -0.0094668   -7.9922153  
C    4.3295289   -0.0080946   -9.3635598  
N    2.9579013   -0.0075107   -9.4205901  
C    5.2732103   -0.0091330  -10.3951868  
C    6.6070351   -0.0112948  -10.0359044  
O    7.5700900   -0.0120367  -11.0031370  
C    6.9884765   -0.0130655   -8.6730703  
O    8.3542507   -0.0155459   -8.4781335  
C    6.0580528   -0.0123156   -7.6548190  
H    3.3757758   -0.0087056   -6.1677038  
H    2.4120855    0.0040223  -10.2631653  
H    5.0034827   -0.0082413  -11.4423011  
H    8.4194105   -0.0138666  -10.5427902  
H    8.5263761   -0.0165909   -7.5315734  
H    6.3803043   -0.0138973   -6.6201069  
C   -0.0307354   -0.0004645   -4.4215603  
C    1.0189061   -0.0016747   -5.3107842  
C    0.4547318   -0.0019271   -6.6208633  
C   -0.9553005   -0.0005398   -6.4668070  
N   -1.2160411   -0.0016283   -5.1189823  
C   -1.8348233   -0.0000669   -7.5536496  
C   -1.2808347   -0.0007047   -8.8190637  
O   -2.0937946    0.0000671   -9.9154722  
C    0.1236177   -0.0024642   -8.9932143  
O    0.5198543   -0.0033260  -10.3147050  
C    0.9918892   -0.0032049   -7.9214727  
H    2.0627983   -0.0034040   -5.0475745  
H   -2.1305285    0.0095154   -4.7047719  
H   -2.9104358    0.0008453   -7.4429318  
H   -1.5120536   -0.0008705  -10.6867311  
H    1.4814939   -0.0044776  -10.3438900  
C    3.2573669   -0.0002919   -1.5109381  
C    2.5379467   -0.0001709   -0.3591962  
C    1.1435042    0.0000332   -0.7338501  
C    1.1092607   -0.0000081   -2.2088477  
N    2.4227561    0.0001910   -2.6182614  
C   -0.0265534   -0.0002522   -2.9515663  
C   -1.3003036   -0.0002639   -2.2514981  
O   -2.3786785   -0.0004131   -2.8306428  
C   -1.2877726    0.0000312   -0.6895608  
O   -2.3539957    0.0003306   -0.0892035  
C    0.0000000    0.0000000    0.0000000  
H    2.9384091   -0.0000368    0.6389238  
H    4.3270391   -0.0004764   -1.6439447  
H    2.7280492   -0.0013405   -3.5742114  
C    0.8175213    0.6860729    2.3021913  
C    0.0000000    0.0000000    1.4700000  
C   -0.8887526   -0.7456559    2.3478473  
C   -0.4549825   -0.3816753    3.7138435  
N    0.5448156    0.4573574    3.6934124  
C   -1.0945674   -0.9182058    4.8835240  
C   -2.1210866   -1.7789155    4.6970523  
O   -2.8083856   -2.3554314    5.6976972  
C   -2.5824069   -2.1655116    3.3310774  
O   -3.5227682   -2.9541547    3.2362962  
C   -1.9100805   -1.6015804    2.1470656  
H   -0.7567140   -0.6349833    5.8697035  
H   -3.4728268   -2.9124471    5.2533954  
H   -2.2742832   -1.9066565    1.1752040  
H    1.6189533    1.3585343    2.0405121  
