64

C    5.5418868   -3.0082248   -2.3678969  
C    5.5635968   -3.6695727   -1.1618228  
C    6.7490591   -4.4626232   -1.1431225  
C    7.4166666   -4.2423244   -2.3750704  
N    6.6557783   -3.3556594   -3.0958278  
C    8.6252041   -4.8646011   -2.7021777  
C    9.1698688   -5.7247066   -1.7685094  
O   10.3486080   -6.3585751   -2.0364575  
C    8.5185795   -5.9577112   -0.5338644  
O    9.1868479   -6.8405221    0.2891822  
C    7.3261674   -5.3443732   -0.2106058  
H    4.8163098   -3.5910170   -0.3908597  
H    6.8834051   -3.0032139   -4.0079403  
H    9.1389549   -4.7010274   -3.6394645  
H   10.5469905   -6.9040533   -1.2642120  
H    8.6806137   -6.9422100    1.1009644  
H    6.8505532   -5.5425694    0.7428027  
C    4.5551378   -2.0647519   -2.9129532  
C    3.4069296   -1.6070135   -2.3506646  
C    2.8049832   -0.7012744   -3.3004708  
C    3.7030475   -0.6686463   -4.4706023  
N    4.7450051   -1.5160897   -4.1721835  
C    3.4850372    0.0719025   -5.5867395  
C    2.2859703    0.8916869   -5.6389642  
O    2.0005473    1.5939527   -6.6000353  
C    1.3208820    0.8726932   -4.4109377  
O    0.3083943    1.5590471   -4.4433024  
C    1.6628945    0.0339172   -3.2649299  
H    3.0252950   -1.8733122   -1.3811009  
H    4.1564388    0.0814618   -6.4341106  
H    5.5224748   -1.7081418   -4.7769179  
C    1.1243410    0.0100105   -0.7919003  
C    0.7474072    0.0234665   -2.1148542  
C   -0.6787384    0.0234379   -2.1414698  
C   -1.1201748    0.0098411   -0.7935547  
N    0.0000000    0.0000000    0.0000000  
C   -2.4730818    0.0063307   -0.4408240  
C   -3.3971962    0.0170429   -1.4675058  
O   -4.7313520    0.0145490   -1.1793468  
C   -2.9763654    0.0303020   -2.8186325  
O   -4.0166484    0.0394464   -3.7247625  
C   -1.6418567    0.0334992   -3.1673480  
H   -2.8160166   -0.0041569    0.5845966  
H   -5.1938823    0.0230023   -2.0274386  
H   -3.6464680    0.0481700   -4.6127343  
H   -1.3497475    0.0435647   -4.2109234  
H    2.1062466    0.0053162   -0.3505405  
C    2.5311839    2.1237619    3.0120429  
C    1.9795631    1.6616747    1.8395852  
C    0.9223175    0.7739173    2.1983588  
C    0.8753926    0.7337535    3.6154372  
N    1.8668922    1.5631002    4.0777464  
C   -0.0496243   -0.0427881    4.3197917  
C   -0.9437528   -0.7922060    3.5801400  
O   -1.8685244   -1.5680278    4.2172520  
C   -0.9124520   -0.7656372    2.1655264  
O   -1.8671164   -1.5663939    1.5732860  
C    0.0000000    0.0000000    1.4700000  
H    2.3005065    1.9304404    0.8477417  
H    2.0679347    1.7444845    5.0445261  
H   -0.0904770   -0.0778569    5.3997470  
H   -2.3849669   -2.0011402    3.5251786  
H   -1.7775064   -1.4909735    0.6183591  
H    3.3468514    2.8078103    3.1724291  
