62

C    3.2235827   -3.3752402   -7.6992485  
C    2.7273107   -2.1121034   -7.4741534  
C    3.2436409   -1.2721098   -8.5048875  
C    4.0553169   -2.0851206   -9.3368274  
N    4.0228439   -3.3558036   -8.8182446  
C    4.7265698   -1.5873902  -10.4577519  
C    4.5754480   -0.2445310  -10.7442294  
O    5.2084149    0.2934479  -11.8272563  
C    3.7701661    0.5829268   -9.9259077  
O    3.7203586    1.8971780  -10.3425673  
C    3.1078843    0.0926393   -8.8197761  
H    4.4973818   -4.1522121   -9.2036393  
H    5.3468016   -2.2017704  -11.0957573  
H    4.9723318    1.2300619  -11.8440929  
H    3.1563984    2.3872407   -9.7364389  
H    2.4982578    0.7506896   -8.2116617  
H    3.0718056   -4.2881948   -7.1493067  
C    1.8836766   -2.1362882   -5.0810766  
C    1.8358578   -1.7275857   -6.3703609  
C    0.7030360   -0.8169587   -6.4333932  
C    0.1677630   -0.7920097   -5.0551896  
N    0.8558147   -1.5634005   -4.2579876  
C   -0.9736297    0.0040464   -4.6965763  
C   -1.5536730    0.7419468   -5.6704281  
O   -2.6247575    1.5303572   -5.4774855  
C   -1.0366301    0.7382178   -7.0707185  
O   -1.6142408    1.4340381   -7.9058356  
C    0.1355197   -0.0866893   -7.4135266  
H   -2.8038828    1.9233567   -6.3507658  
H    0.4792071   -0.0617348   -8.4389469  
H    2.5838918   -2.8188169   -4.6262944  
C    1.1188642    0.0008222   -0.8003808  
C    0.0000000    0.0000000    0.0000000  
C   -1.1323862    0.0008899   -0.8673528  
C   -0.6382663    0.0019679   -2.1969280  
N    0.7324016    0.0038481   -2.1202242  
C   -1.4770914    0.0027318   -3.3154808  
C   -2.8395473    0.0020945   -3.0876857  
O   -3.7039201    0.0024425   -4.1440349  
C   -3.3517868    0.0013931   -1.7684331  
O   -4.7300497    0.0012366   -1.7073121  
C   -2.5248543    0.0009123   -0.6644817  
H    1.3576314   -0.0056167   -2.9057046  
H   -4.5940032    0.0021826   -3.7685128  
H   -4.9934602    0.0007259   -0.7819913  
H   -2.9462577    0.0005603    0.3339659  
H    2.1619895    0.0009355   -0.5342068  
C    0.0000000    0.0000000    1.4700000  
C    1.0662921    0.0000102    2.3034270  
C    0.4961870   -0.0000064    3.6418889  
C   -0.9663858    0.0000850    3.4240247  
N   -1.2632773    0.0000084    2.1528658  
C   -1.8985362    0.0000517    4.5177257  
C   -1.3925775   -0.0004564    5.7720543  
O   -2.1456383   -0.0005410    6.8851312  
C    0.0786232   -0.0009323    6.0245000  
O    0.4683759   -0.0012588    7.1921102  
C    1.0143166   -0.0008442    4.8859032  
H    2.1107198   -0.0000632    2.0421868  
H   -2.9622183    0.0003270    4.3293377  
H   -1.5042274   -0.0009692    7.6184419  
H    2.0724152   -0.0013148    5.1109744  
