62

C    5.5849860   -1.0812498   -8.5750252  
C    5.0800927    0.0189842   -7.9215452  
C    5.2517426    1.1355764   -8.7923832  
C    5.8716986    0.6514152   -9.9727090  
N    6.0617332   -0.6980174   -9.8067688  
C    6.1922409    1.4793427  -11.0527909  
C    5.8809999    2.8204052  -10.9393954  
O    6.1718206    3.6733129  -11.9645725  
C    5.2626732    3.3224902   -9.7696110  
O    5.0170108    4.6794744   -9.8094352  
C    4.9464098    2.5063466   -8.7035834  
H    6.4722739   -1.3140114  -10.4849936  
H    6.6649102    1.1165316  -11.9550958  
H    5.8765788    4.5490736  -11.6832543  
H    4.5986534    4.9372310   -8.9823069  
H    4.4732031    2.9195785   -7.8205255  
H    5.6440479   -2.1087862   -8.2593672  
C    6.1923726   -2.0934465   -4.2359235  
C    5.2191579   -1.6310079   -3.4094375  
C    4.3967570   -0.7348791   -4.1875409  
C    4.9747510   -0.7130130   -5.5448310  
N    6.0607565   -1.5568761   -5.5077370  
C    4.4832131    0.0165646   -6.5781804  
C    3.3064982    0.8350540   -6.3374475  
O    2.7884378    1.5278083   -7.2034761  
C    2.6779835    0.8273398   -4.9075121  
O    1.6873118    1.5127140   -4.6928207  
C    3.2973506   -0.0000934   -3.8752374  
H    5.0920135   -1.8881513   -2.3729410  
H    6.9947907   -2.7809153   -4.0228480  
H    6.6635527   -1.7542842   -6.2853701  
C    3.3321174    0.0004714   -1.3379332  
C    2.6974186    0.0000115   -2.5332308  
C    1.2800441   -0.0002119   -2.2052838  
C    1.2395035    0.0000643   -0.7271293  
N    2.4394063    0.0005458   -0.2131034  
C    0.0000000    0.0000000    0.0000000  
C   -1.1468701    0.0000634   -0.7169542  
O   -2.3742201    0.0000072   -0.1695492  
C   -1.1388767    0.0001606   -2.2096354  
O   -2.2206229    0.0000903   -2.7970413  
C    0.1454526    0.0001815   -2.9324239  
H   -2.9844344    0.0001023   -0.9290168  
H    0.1083580    0.0003680   -4.0135594  
H    4.3940040    0.0007617   -1.1498630  
C    2.5311839    2.1237619    3.0120429  
C    1.9795631    1.6616747    1.8395852  
C    0.9223175    0.7739173    2.1983588  
C    0.8753926    0.7337535    3.6154372  
N    1.8668922    1.5631002    4.0777464  
C   -0.0496243   -0.0427881    4.3197917  
C   -0.9437528   -0.7922060    3.5801400  
O   -1.8685244   -1.5680278    4.2172520  
C   -0.9124520   -0.7656372    2.1655264  
O   -1.8671164   -1.5663939    1.5732860  
C    0.0000000    0.0000000    1.4700000  
H    2.3005065    1.9304404    0.8477417  
H    2.0679347    1.7444845    5.0445261  
H   -0.0904770   -0.0778569    5.3997470  
H   -2.3849669   -2.0011402    3.5251786  
H   -1.7775064   -1.4909735    0.6183591  
H    3.3468514    2.8078103    3.1724291  
