60

C    9.7991849   -0.7014317   -2.3157076  
C   11.1511467   -0.4493225   -2.3489895  
C   11.3788863    0.4593227   -3.4246745  
C   10.1180788    0.7284802   -4.0161519  
N    9.1809616    0.0062522   -3.3198651  
C    9.9630344    1.5873257   -5.1084592  
C   11.1014685    2.1855889   -5.6126701  
O   11.0071174    3.0333478   -6.6782283  
C   12.3683839    1.9293031   -5.0364240  
O   13.4049356    2.6002277   -5.6518602  
C   12.5221195    1.0819337   -3.9589938  
H   11.8833047   -0.8695858   -1.6809193  
H    9.0049027    1.7965079   -5.5639033  
H   11.9050473    3.3355687   -6.8670406  
H   14.2243319    2.3721624   -5.2022160  
H   13.5053270    0.9048304   -3.5389765  
H    9.2271598   -1.3311765   -1.6560349  
C    5.6506104    0.0006745   -0.6678804  
C    6.9152386    0.0024402   -1.1626405  
C    6.8040786    0.0027734   -2.6022511  
C    5.3606764    0.0010739   -2.9078305  
N    4.7161325   -0.0005435   -1.6923264  
C    4.8400804    0.0012319   -4.1610997  
C    5.7629697    0.0029815   -5.2839567  
O    5.3925547    0.0032000   -6.4506160  
C    7.2958240    0.0045468   -4.9836900  
O    8.0824530    0.0057192   -5.9209592  
C    7.7361583    0.0044930   -3.5908664  
H    7.8224232    0.0032175   -0.5850341  
H    3.7780219    0.0000965   -4.3634394  
H    5.3226857   -0.0000561    0.3589372  
C    3.2573665   -0.0002920   -1.5109385  
C    2.5379463   -0.0001709   -0.3591964  
C    1.1435038    0.0000331   -0.7338500  
C    1.1092599   -0.0000083   -2.2088477  
N    2.4227553    0.0001909   -2.6182613  
C   -0.0265539   -0.0002524   -2.9515660  
C   -1.3003040   -0.0002640   -2.2514977  
O   -2.3786790   -0.0004133   -2.8306421  
C   -1.2877727    0.0000311   -0.6895603  
O   -2.3539959    0.0003306   -0.0892030  
C    0.0000000    0.0000000    0.0000000  
H    2.9384091   -0.0000367    0.6389234  
H   -0.0296303   -0.0004086   -4.0327229  
H    2.7280482   -0.0013407   -3.5742119  
C    0.0000000    0.0000000    1.4700000  
C    1.0662921    0.0000102    2.3034270  
C    0.4961870   -0.0000064    3.6418889  
C   -0.9663858    0.0000850    3.4240247  
N   -1.2632773    0.0000084    2.1528658  
C   -1.8985362    0.0000517    4.5177257  
C   -1.3925775   -0.0004564    5.7720543  
O   -2.1456383   -0.0005410    6.8851312  
C    0.0786232   -0.0009323    6.0245000  
O    0.4683759   -0.0012588    7.1921102  
C    1.0143166   -0.0008442    4.8859032  
H    2.1107198   -0.0000632    2.0421868  
H   -2.9622183    0.0003270    4.3293377  
H   -1.5042274   -0.0009692    7.6184419  
H    2.0724152   -0.0013148    5.1109744  
