60

C    5.1604424   -0.0611450   -7.8637113  
C    6.2509290   -0.7173847   -8.3858764  
C    6.3546384   -0.3289130   -9.7544278  
C    5.2913311    0.5736666  -10.0126021  
N    4.5845163    0.7126507   -8.8439653  
C    5.0845904    1.1604678  -11.2646859  
C    5.9675122    0.8303371  -12.2744585  
O    5.8120636    1.3748568  -13.5163706  
C    7.0343831   -0.0685382  -12.0364960  
O    7.8264281   -0.2964864  -13.1428632  
C    7.2387820   -0.6480183  -10.8016076  
H    6.8920552   -1.3938205   -7.8470024  
H    3.7795514    1.2994751   -8.7188676  
H    4.2760092    1.8490078  -11.4679388  
H    6.5237880    1.0166198  -14.0626128  
H    8.5221835   -0.9137481  -12.8968632  
H    8.0646038   -1.3330907  -10.6493810  
C    6.1745029   -2.1408800   -4.0544034  
C    6.2180775   -1.7334918   -5.3442539  
C    5.0926412   -0.8229053   -5.4882168  
C    4.4611849   -0.7965391   -4.1513731  
N    5.0910257   -1.5671311   -3.3066964  
C    3.2973506   -0.0000934   -3.8752374  
C    2.7877448    0.7368256   -4.8884437  
O    1.7057652    1.5254555   -4.7725803  
C    3.4025818    0.7316575   -6.2486310  
O    2.8855809    1.4266382   -7.1232352  
C    4.5959746   -0.0936238   -6.5067949  
H    6.9265058   -2.0159443   -6.1041391  
H    1.5889232    1.9175678   -5.6567462  
H    6.8407164   -2.8229592   -3.5505179  
C    3.3321174    0.0004714   -1.3379332  
C    2.6974186    0.0000115   -2.5332308  
C    1.2800441   -0.0002119   -2.2052838  
C    1.2395035    0.0000643   -0.7271293  
N    2.4394063    0.0005458   -0.2131034  
C    0.0000000    0.0000000    0.0000000  
C   -1.1468701    0.0000634   -0.7169542  
O   -2.3742201    0.0000072   -0.1695492  
C   -1.1388767    0.0001606   -2.2096354  
O   -2.2206229    0.0000903   -2.7970413  
C    0.1454526    0.0001815   -2.9324239  
H   -2.9844344    0.0001023   -0.9290168  
H    0.1083580    0.0003680   -4.0135594  
H    4.3940040    0.0007617   -1.1498630  
C    2.4951002    2.0940188    2.9809380  
C    1.9440701    1.6314916    1.8291961  
C    0.8759964    0.7350050    2.2038498  
C    0.8497377    0.7130254    3.6788474  
N    1.8560616    1.5571714    4.0882609  
C   -0.0205033   -0.0168748    4.4215661  
C   -0.9962600   -0.8356168    3.7214979  
O   -1.8224391   -1.5286685    4.3006425  
C   -0.9864710   -0.8277881    2.1595606  
O   -1.8030528   -1.5133726    1.5592035  
C    0.0000000    0.0000000    1.4700000  
H    2.2509283    1.8888011    0.8310761  
H   -0.0229599   -0.0187323    5.5027230  
H    3.3143982    2.7817323    3.1139444  
H    2.0889452    1.7545833    5.0442112  
