60

C    3.5181215   -3.5879241   -3.9969458  
C    3.1854957   -2.9361432   -5.1618532  
C    4.1395961   -3.3299732   -6.1463281  
C    5.0374261   -4.2310756   -5.5187612  
N    4.6325466   -4.3640638   -4.2137694  
C    6.1102778   -4.8220866   -6.1929181  
C    6.2796820   -4.4977616   -7.5249431  
O    7.3109293   -5.0465708   -8.2308843  
C    5.3945973   -3.6004472   -8.1685801  
O    5.6964400   -3.3784577   -9.4963427  
C    4.3361506   -3.0168169   -7.5040552  
H    5.0726481   -4.9485713   -3.5262783  
H    6.7982002   -5.5095291   -5.7202796  
H    7.2473824   -4.6920125   -9.1272747  
H    5.0513607   -2.7618741   -9.8559269  
H    3.6749365   -2.3330723   -8.0234473  
H    3.0494463   -3.5594708   -3.0281876  
C    2.0552331   -2.0117600   -5.3319182  
C    1.1441930   -1.6301402   -4.4067419  
C    0.2595430   -0.7123102   -5.1078000  
C    0.7977765   -0.6538175   -6.4838332  
N    1.8503505   -1.4135520   -6.6212381  
C    0.1930648    0.1584612   -7.5034472  
C   -0.8998972    0.8792300   -7.1639455  
O   -1.5649246    1.6797247   -8.0142327  
C   -1.4671321    0.8410357   -5.7837477  
O   -2.4638599    1.5229391   -5.5455002  
C   -0.8287665    0.0000939   -4.7555305  
H    1.0803195   -1.9340247   -3.3758927  
H    0.6076492    0.1823324   -8.5006729  
H   -2.2915643    2.0548234   -7.4846588  
C    1.0672569   -0.0000698   -0.8321910  
C    0.0000000    0.0000000    0.0000000  
C   -1.1601223   -0.0000736   -0.8778472  
C   -0.5938729   -0.0000768   -2.2438435  
N    0.7113367   -0.0001553   -2.2234123  
C   -1.4286985   -0.0001877   -3.4135239  
C   -2.7683113   -0.0006798   -3.2270524  
O   -3.6653902   -0.0008302   -4.2276970  
C   -3.3702024   -0.0010610   -1.8610774  
O   -4.5974910   -0.0013779   -1.7662963  
C   -2.4926825   -0.0008943   -0.6770658  
H   -4.5324245   -0.0012258   -3.7833954  
H   -2.9677772   -0.0012974    0.2947961  
H    2.1134391   -0.0000547   -0.5705119  
C    2.4951002    2.0940188    2.9809380  
C    1.9440701    1.6314916    1.8291961  
C    0.8759964    0.7350050    2.2038498  
C    0.8497377    0.7130254    3.6788474  
N    1.8560616    1.5571714    4.0882609  
C   -0.0205033   -0.0168748    4.4215661  
C   -0.9962600   -0.8356168    3.7214979  
O   -1.8224391   -1.5286685    4.3006425  
C   -0.9864710   -0.8277881    2.1595606  
O   -1.8030528   -1.5133726    1.5592035  
C    0.0000000    0.0000000    1.4700000  
H    2.2509283    1.8888011    0.8310761  
H   -0.0229599   -0.0187323    5.5027230  
H    3.3143982    2.7817323    3.1139444  
H    2.0889452    1.7545833    5.0442112  
