62

C   -8.4570332    0.6181419   -2.6561348  
C   -8.0462497   -0.6259733   -3.0755419  
C   -9.1410836   -1.5169785   -2.8704883  
C  -10.2016209   -0.7532585   -2.3192000  
N   -9.7521290    0.5384279   -2.2003714  
C  -11.4414666   -1.3087217   -1.9889960  
C  -11.6139471   -2.6597062   -2.2197966  
O  -12.8049712   -3.2531470   -1.9159797  
C  -10.5676050   -3.4385360   -2.7688012  
O  -10.8944607   -4.7680967   -2.9384455  
C   -9.3441155   -2.8912796   -3.0945433  
H  -10.2896937    1.3099287   -1.8485308  
H  -12.2537494   -0.7320950   -1.5684037  
H  -12.7133644   -4.1855689   -2.1514837  
H  -10.1340012   -5.2228095   -3.3133339  
H   -8.5614975   -3.5129624   -3.5134687  
H   -7.9281897    1.5557734   -2.6447064  
C   -3.9849990    0.7198449   -1.9557669  
C   -3.2941076    0.0012878   -2.9038237  
C   -4.2599029   -0.7267530   -3.6599958  
C   -5.5339488   -0.4096642   -3.1231645  
N   -5.3307597    0.4696098   -2.0886554  
C   -6.7219427   -0.9488993   -3.6258414  
C   -6.6219977   -1.8239432   -4.6900247  
O   -7.7506394   -2.3792953   -5.2198991  
C   -5.3598477   -2.1529602   -5.2391533  
O   -5.4267873   -3.0384780   -6.2949573  
C   -4.1874277   -1.6215791   -4.7435812  
H   -6.0533559    0.8788541   -1.5244256  
H   -7.4602826   -2.9511454   -5.9423566  
H   -4.5326434   -3.2076311   -6.6072038  
H   -3.2353057   -1.8923967   -5.1847158  
H   -3.6241834    1.3899477   -1.1943648  
C    0.0000000    0.0000000    0.0000000  
C    1.0541688   -0.0001723   -0.8560392  
C    0.5103136   -0.0000455   -2.1935956  
C   -0.9576373    0.0002461   -2.0455730  
N   -1.2018460   -0.0001389   -0.6915968  
C   -1.8348314    0.0008319   -3.0810607  
C   -1.2972851    0.0009739   -4.4314603  
O   -2.0050676    0.0014268   -5.4301316  
C    0.2542619    0.0004184   -4.6117572  
O    0.7184666    0.0002257   -5.7439122  
C    1.0974551    0.0000873   -3.4189129  
H    2.0940752   -0.0005484   -0.5817983  
H    2.1707276   -0.0000912   -3.5523673  
H   -2.1128194    0.0014915   -0.2706789  
C    1.1319247   -0.0015655    2.2709268  
C    0.7969915   -0.0034943    3.5869401  
C   -0.6453339   -0.0035710    3.6542670  
C   -1.1266833   -0.0015433    2.2596025  
N    0.0000000    0.0000000    1.4700000  
C   -2.4346130   -0.0013964    1.8976294  
C   -3.4350110   -0.0031408    2.9520183  
O   -4.6384611   -0.0030974    2.7283916  
C   -2.9478959   -0.0050506    4.4361073  
O   -3.7809380   -0.0062218    5.3323774  
C   -1.5113823   -0.0053090    4.7012123  
H    1.4821238   -0.0045407    4.4159191  
H   -2.7664565   -0.0000232    0.8686553  
H   -1.1823530   -0.0068408    5.7314848  
H    2.1104316   -0.0009391    1.8188057  
