60

C    4.0045167   -3.6317102   -5.2229795  
C    3.2554991   -3.0332430   -6.2095279  
C    3.7654992   -3.4966450   -7.4584308  
C    4.8340077   -4.3832887   -7.1684683  
N    4.9536305   -4.4411239   -5.8020999  
C    5.5714302   -5.0302662   -8.1646696  
C    5.2236712   -4.7778146   -9.4774946  
O    5.9105564   -5.3833988  -10.4896547  
C    4.1608702   -3.8960392   -9.7869181  
O    3.9372773   -3.7483324  -11.1402591  
C    3.4331279   -3.2572231   -8.8046597  
H    5.6212718   -4.9989850   -5.3010743  
H    6.3870191   -5.7070528   -7.9502480  
H    5.5122366   -5.0736850  -11.3134770  
H    3.2041543   -3.1374411  -11.2625127  
H    2.6245463   -2.5870710   -9.0721834  
H    3.9377537   -3.5441285   -4.1520775  
C    2.1451924   -2.0951770   -5.9900948  
C    1.6340467   -1.6323750   -4.8202142  
C    0.5538821   -0.7357921   -5.1581773  
C    0.4770628   -0.7140554   -6.6314112  
N    1.4686352   -1.5584198   -7.0749457  
C   -0.4180301    0.0158497   -7.3439768  
C   -1.3690899    0.8348541   -6.6110023  
O   -2.2145433    1.5279317   -7.1615950  
C   -1.3057475    0.8272853   -5.0503179  
O   -2.1011642    1.5130918   -4.4224305  
C   -0.2963293   -0.0005341   -4.3948471  
H    1.9749144   -1.8895632   -3.8331597  
H   -0.4575591    0.0175268   -8.4244137  
H    1.6685731   -1.7560263   -8.0382859  
C    3.1301146   -0.0010313   -1.7028256  
C    2.5367765   -0.0002766   -0.4864669  
C    1.1089901    0.0001027   -0.7656184  
C    1.0177865   -0.0004150   -2.2415133  
N    2.1993571   -0.0011612   -2.7963824  
C   -0.2459219   -0.0002879   -2.9257116  
C   -1.3675326   -0.0000606   -2.1698520  
O   -2.6129318    0.0000865   -2.6748483  
C   -1.3083588    0.0000910   -0.6783229  
O   -2.3693264    0.0004206   -0.0541685  
C    0.0000000    0.0000000    0.0000000  
H    3.0096016   -0.0001007    0.4807518  
H   -3.1967444    0.0002093   -1.8949026  
H    4.1849275   -0.0015114   -1.9271979  
C    0.8681109    0.7263879    2.2709268  
C    0.6127770    0.5096195    3.5869401  
C   -0.4920590   -0.4175482    3.6542670  
C   -0.8620974   -0.7254003    2.2596025  
N    0.0000000    0.0000000    1.4700000  
C   -1.8641242   -1.5660088    1.8976294  
C   -2.6293522   -2.2103885    2.9520183  
O   -3.5512764   -2.9839180    2.7283916  
C   -2.2549728   -1.8987399    4.4361073  
O   -2.8923672   -2.4351063    5.3323774  
C   -1.1543735   -0.9755647    4.7012123  
H    1.1382914    0.9492124    4.4159191  
H   -2.1192137   -1.7782617    0.8686553  
H   -0.9013378   -0.7652422    5.7314848  
H    1.6172880    1.3558399    1.8188057  
