60

C    8.5414623    0.7043757   -3.3718761  
C    9.8313344    0.4526542   -3.7784860  
C   10.3955564   -0.4559947   -2.8347634  
C    9.3944831   -0.7255542   -1.8667155  
N    8.2821317   -0.0035515   -2.2216869  
C    9.6019439   -1.5845149   -0.7832326  
C   10.8424830   -2.1824823   -0.6751856  
O   11.0986943   -3.0303373    0.3633278  
C   11.8542746   -1.9257939   -1.6308047  
O   13.0344876   -2.5964595   -1.3845331  
C   11.6503987   -1.0783105   -2.6997915  
H   10.3074238    0.8731719   -4.6476801  
H    8.8431259   -1.7940029   -0.0419418  
H   12.0094373   -3.3323114    0.2509641  
H   13.6639287   -2.3681288   -2.0753815  
H   12.4444278   -0.9008965   -3.4156962  
H    7.7863938    1.3339980   -3.8105182  
C    5.7656457   -0.0007237   -2.0564738  
C    7.0030818   -0.0022266   -1.4971664  
C    6.8178420   -0.0019778   -0.0652022  
C    5.3606050   -0.0002231    0.1655478  
N    4.7795901    0.0008674   -1.0815733  
C    4.7760820    0.0001054    1.3903079  
C    5.6398486   -0.0011418    2.5592563  
O    5.2097730   -0.0009020    3.7052649  
C    7.1861463   -0.0027556    2.3384243  
O    7.9234036   -0.0035081    3.3150064  
C    7.6977096   -0.0032489    0.9701573  
H    3.7050038    0.0012721    1.5376178  
H    8.7695754   -0.0045735    0.8258452  
H    5.4911001   -0.0004278   -3.0988333  
C    3.3321168    0.0004716   -1.3379341  
C    2.6974177    0.0000118   -2.5332316  
C    1.2800432   -0.0002116   -2.2052842  
C    1.2395033    0.0000644   -0.7271298  
N    2.4394059    0.0005460   -0.2131041  
C    0.0000000    0.0000000    0.0000000  
C   -1.1468704    0.0000635   -0.7169542  
O   -2.3742206    0.0000074   -0.1695488  
C   -1.1388774    0.0001608   -2.2096352  
O   -2.2206238    0.0000906   -2.7970409  
C    0.1454514    0.0001818   -2.9324241  
H    3.1367978   -0.0000649   -3.5160956  
H   -2.9844350    0.0001027   -0.9290164  
H    0.1083567    0.0003684   -4.0135594  
C    2.5528530    2.1414826    2.8079335  
C    2.0663498    1.7338582    4.0032312  
C    0.9804344    0.8229586    3.6752840  
C    0.9495562    0.7966882    2.1971295  
N    1.8690446    1.5676019    1.6831036  
C    0.0000000    0.0000000    1.4700000  
C   -0.8785127   -0.7372425    2.1869543  
O   -1.8187535   -1.5261249    1.6395491  
C   -0.8723269   -0.7321790    3.6796354  
O   -1.7010379   -1.4274584    4.2670412  
C    0.1115397    0.0933559    4.4024240  
H    2.4028853    2.0163452    4.9860947  
H   -2.2861435   -1.9184361    2.3990168  
H    0.0832434    0.0693689    5.4835595  
H    3.3664920    2.8238276    2.6198634  
