66

C    4.5752184   -2.1495109   -2.8853793  
C    3.4163831   -1.6761088   -2.3148898  
C    2.8181925   -0.7912314   -3.2602788  
C    3.6642154   -0.7644045   -4.3984574  
N    4.7226623   -1.5985804   -4.1368127  
C    3.3839931    0.0059366   -5.5310828  
C    2.2285124    0.7627520   -5.5145395  
O    1.9066023    1.5330068   -6.5943986  
C    1.3718856    0.7495042   -4.3881154  
O    0.2611649    1.5562973   -4.5249651  
C    1.6478437   -0.0100096   -3.2702997  
H    3.0481322   -1.9356768   -1.3371325  
H    4.0247914    0.0308438   -6.4016905  
H    1.0742674    1.9728891   -6.3776317  
H   -0.2638781    1.4898367   -3.7215243  
H    5.3089836   -2.8354586   -2.4980508  
C    6.9448196   -5.3495108   -5.1278702  
C    6.0704424   -4.4346786   -4.5884142  
C    6.3637021   -3.1743727   -5.1886043  
C    7.4352757   -3.3838415   -6.0940211  
N    7.7651351   -4.7149486   -6.0310648  
C    7.9866375   -2.3554254   -6.8641830  
C    7.4462090   -1.0926057   -6.7178866  
O    7.9465198   -0.0521275   -7.4459717  
C    6.3770701   -0.8636083   -5.8193766  
O    5.9495065    0.4476791   -5.7868478  
C    5.8328225   -1.8776411   -5.0590757  
H    5.3149910   -4.6490922   -3.8519952  
H    8.4845764   -5.1607428   -6.5711146  
H    8.8034848   -2.5085221   -7.5559356  
H    7.4344808    0.7277428   -7.1952072  
H    5.2263541    0.5162310   -5.1560110  
H    7.0491725   -6.4041739   -4.9387747  
C    1.1188642    0.0008224   -0.8003808  
C    0.0000000    0.0000000    0.0000000  
C   -1.1323861    0.0008899   -0.8673529  
C   -0.6382661    0.0019681   -2.1969282  
N    0.7324017    0.0038483   -2.1202240  
C   -1.4770912    0.0027320   -3.3154810  
C   -2.8395474    0.0020946   -3.0876860  
O   -3.7039199    0.0024426   -4.1440353  
C   -3.3517867    0.0013927   -1.7684331  
O   -4.7300496    0.0012363   -1.7073125  
C   -2.5248543    0.0009121   -0.6644818  
H   -1.1067568    0.0036992   -4.3313814  
H   -4.5940031    0.0021828   -3.7685133  
H   -4.9934602    0.0007260   -0.7819919  
H   -2.9462579    0.0005600    0.3339656  
H    2.1619896    0.0009357   -0.5342065  
C    2.5311839    2.1237619    3.0120429  
C    1.9795631    1.6616747    1.8395852  
C    0.9223175    0.7739173    2.1983588  
C    0.8753926    0.7337535    3.6154372  
N    1.8668922    1.5631002    4.0777464  
C   -0.0496243   -0.0427881    4.3197917  
C   -0.9437528   -0.7922060    3.5801400  
O   -1.8685244   -1.5680278    4.2172520  
C   -0.9124520   -0.7656372    2.1655264  
O   -1.8671164   -1.5663939    1.5732860  
C    0.0000000    0.0000000    1.4700000  
H    2.3005065    1.9304404    0.8477417  
H    2.0679347    1.7444845    5.0445261  
H   -0.0904770   -0.0778569    5.3997470  
H   -2.3849669   -2.0011402    3.5251786  
H   -1.7775064   -1.4909735    0.6183591  
H    3.3468514    2.8078103    3.1724291  
