62

C    1.1188650    0.0008222   -0.8003808  
C    0.0000000    0.0000000    0.0000000  
C   -1.1323856    0.0008897   -0.8673534  
C   -0.6382649    0.0019678   -2.1969285  
N    0.7324026    0.0038480   -2.1202240  
C   -1.4770900    0.0027314   -3.3154818  
C   -2.8395465    0.0020940   -3.0876867  
O   -3.7039184    0.0024421   -4.1440361  
C   -3.3517859    0.0013925   -1.7684342  
O   -4.7300486    0.0012362   -1.7073139  
C   -2.5248539    0.0009122   -0.6644828  
H   -1.1067552    0.0036986   -4.3313817  
H   -4.5940017    0.0021823   -3.7685147  
H   -4.9934592    0.0007256   -0.7819932  
H   -2.9462578    0.0005601    0.3339647  
H    2.1619901    0.0009355   -0.5342063  
C    4.5841865   -2.0202110   -3.0853082  
C    3.4713878   -1.6303065   -2.4210555  
C    2.7894971   -0.7233874   -3.3315622  
C    3.6536755   -0.6796189   -4.5306716  
N    4.7071677   -1.4378856   -4.3921933  
C    3.3222621    0.1187973   -5.6786193  
C    2.1792868    0.8403743   -5.6309815  
O    1.7472617    1.6288353   -6.6298431  
C    1.2859871    0.8168684   -4.4353128  
O    0.2614373    1.4986633   -4.4612745  
C    1.6478449   -0.0100100   -3.2702997  
H    3.1525877   -1.9221623   -1.4350213  
H    0.9116310    2.0080726   -6.3026525  
H    5.3560074   -2.6944334   -2.7496145  
C    5.7062532   -2.9205115   -7.9020468  
C    4.8847604   -2.3518405   -6.9891705  
C    4.8361046   -0.9442794   -7.3537307  
C    5.7099507   -0.8365512   -8.5417425  
N    6.2227760   -1.9918068   -8.8679075  
C    5.9297599    0.4145891   -9.2136190  
C    5.3046931    1.5083177   -8.7212945  
O    5.4194663    2.7392549   -9.2482302  
C    4.4162854    1.4318288   -7.5241968  
O    3.8797653    2.4675584   -7.1309657  
C    4.2068241    0.1368585   -6.8525548  
H    4.3747206   -2.8286612   -6.1696728  
H    6.5736323    0.4642477  -10.0795714  
H    4.8615337    3.3038064   -8.6832998  
H    6.0011542   -3.9551280   -7.9767144  
C    2.5285572    2.1210227    2.9438989  
C    1.9331703    1.6216660    4.0790748  
C    0.8903039    0.7472258    3.6520102  
C    0.8972198    0.7527806    2.2336141  
N    1.9028376    1.5986179    1.8362361  
C    0.0000000    0.0000000    1.4700000  
C   -0.9207814   -0.7726952    2.1506477  
O   -1.8198395   -1.5274828    1.4542253  
C   -0.9436862   -0.7911793    3.5655508  
O   -1.9197945   -1.6098497    4.0950179  
C   -0.0590329   -0.0485852    4.3195194  
H    2.2150357    1.8593692    5.0905303  
H    2.1533708    1.7953814    0.8841339  
H   -2.3621246   -1.9821033    2.1118817  
H   -1.8668290   -1.5649508    5.0545920  
H   -0.1007624   -0.0827977    5.4019087  
H    3.3491200    2.8096064    2.8367138  
