60

C   -4.3568013    2.1196432   -0.0439428  
C   -5.5783088    1.6201330   -0.4323710  
C   -5.3394751    0.7460400   -1.5339700  
C   -3.9416102    0.7519549   -1.7745203  
N   -3.3751252    1.5976639   -0.8533857  
C   -3.3460098   -0.0004261   -2.7913644  
C   -4.1766441   -0.7730844   -3.5795417  
O   -3.6475263   -1.5274888   -4.5864783  
C   -5.5738556   -0.7919239   -3.3553479  
O   -6.2652643   -1.6105060   -4.2243818  
C   -6.1621474   -0.0497243   -2.3525626  
H   -6.5251584    1.8575141    0.0216323  
H   -2.3939630    1.7946128   -0.7726811  
H   -4.3895800   -1.9821531   -5.0058840  
H   -7.2009062   -1.5658640   -4.0048706  
H   -7.2352194   -0.0842032   -2.2048984  
H   -4.1083016    2.8080659    0.7455375  
C    0.0000000    0.0000000    0.0000000  
C    1.0662918   -0.0000103   -0.8334272  
C    0.4961866    0.0000066   -2.1718888  
C   -0.9663862   -0.0000848   -1.9540246  
N   -1.2632777   -0.0000084   -0.6828658  
C   -1.8985367   -0.0000514   -3.0477256  
C   -1.3925783    0.0004569   -4.3020543  
O   -2.1456389    0.0005417   -5.4151310  
C    0.0786225    0.0009329   -4.5544999  
O    0.4683752    0.0012595   -5.7221105  
C    1.0143159    0.0008446   -3.4159033  
H    2.1107193    0.0000632   -0.5721869  
H   -1.5042282    0.0009699   -6.1484418  
C    3.4164185   -0.7248698   -3.0395978  
C    4.6504323   -0.5074362   -3.5630547  
C    4.4860915    0.4201612   -4.6573081  
C    3.0448498    0.7275406   -4.7289403  
N    2.4521470    0.0014842   -3.7217487  
C    2.4820235    1.5683548   -5.6333537  
C    3.3539011    2.2134704   -6.6009228  
O    2.9430835    2.9872368   -7.4558002  
C    4.8835147    1.9023321   -6.5436513  
O    5.6273682    2.4393194   -7.3533351  
C    5.3721303    0.9788733   -5.5227058  
H    5.5707622   -0.9468589   -3.2217120  
H    1.4224194    1.7802524   -5.6686799  
H    6.4325766    0.7689074   -5.4896573  
H    3.1302844   -1.3547900   -2.2130282  
C    3.2798086   -0.0005857    2.9199648  
C    2.5571146   -0.0005566    4.0696553  
C    1.1637436   -0.0001548    3.6910360  
C    1.1336965    0.0000200    2.2159470  
N    2.4483514    0.0001428    1.8102719  
C    0.0000000    0.0000000    1.4700000  
C   -1.2757367    0.0000186    2.1664417  
O   -2.3524596    0.0000640    1.5842315  
C   -1.2676493    0.0000873    3.7284083  
O   -2.3355761    0.0004100    4.3257297  
C    0.0181563   -0.0001760    4.4216297  
H    2.9547357   -0.0006076    5.0689105  
H    0.0150794   -0.0003319    5.5031631  
H    4.3498549   -0.0008612    2.7900019  
H    2.7563627   -0.0012824    0.8551938  
