60

C    6.6682528    0.0022276   -4.3668306  
C    5.4175879    0.0023082   -3.7938518  
C    5.6072947    0.0015089   -2.3801294  
C    7.0065883    0.0012480   -2.1479613  
N    7.6213768   -0.0002536   -3.3754184  
C    7.5601877    0.0007902   -0.8640932  
C    6.6852685    0.0008989    0.2048754  
O    7.1721933    0.0008179    1.4799905  
C    5.2859246    0.0007829   -0.0064390  
O    4.5477721    0.0004894    1.1590968  
C    4.7390844    0.0009612   -1.2727295  
H    4.4834523    0.0017681   -4.3289999  
H    8.6137254    0.0097951   -3.5274770  
H    8.6257738    0.0004455   -0.6804402  
H    6.4039029    0.0006185    2.0656479  
H    3.6139324    0.0004556    0.9276926  
H    6.9558189    0.0022981   -5.4042622  
C    3.2798077    0.0005856   -1.4499659  
C    2.5571132    0.0005565   -2.5996562  
C    1.1637425    0.0001548   -2.2210364  
C    1.1336957   -0.0000200   -0.7459472  
N    2.4483508   -0.0001429   -0.3402728  
C    0.0000000    0.0000000    0.0000000  
C   -1.2757370   -0.0000187   -0.6964410  
O   -2.3524597   -0.0000640   -0.1142306  
C   -1.2676501   -0.0000873   -2.2584079  
O   -2.3355772   -0.0004101   -2.8557287  
C    0.0181552    0.0001759   -2.9516296  
H    2.9547343    0.0006074   -3.5989115  
H    2.7563624    0.0012823    0.6148054  
C    0.0139724    0.0003878   -4.4216237  
C    1.0657011    0.0004477   -5.2806588  
C    0.5180423    0.0007113   -6.6166627  
C   -0.9494814    0.0008300   -6.4644636  
N   -1.1898365    0.0002246   -5.1097981  
C   -1.8296185    0.0014748   -7.4974505  
C   -1.2959168    0.0018667   -8.8493745  
O   -2.0065381    0.0023907   -9.8460280  
C    0.2551110    0.0014974   -9.0340857  
O    0.7160923    0.0015156  -10.1675564  
C    1.1016946    0.0010811   -7.8436454  
H    2.1063836    0.0001392   -5.0093781  
H   -2.9025173    0.0016805   -7.3640431  
H    2.1745831    0.0010325   -7.9801532  
H   -2.0996089    0.0017004   -4.6862894  
C    2.5528530    2.1414826    2.8079335  
C    2.0663498    1.7338582    4.0032312  
C    0.9804344    0.8229586    3.6752840  
C    0.9495562    0.7966882    2.1971295  
N    1.8690446    1.5676019    1.6831036  
C    0.0000000    0.0000000    1.4700000  
C   -0.8785127   -0.7372425    2.1869543  
O   -1.8187535   -1.5261249    1.6395491  
C   -0.8723269   -0.7321790    3.6796354  
O   -1.7010379   -1.4274584    4.2670412  
C    0.1115397    0.0933559    4.4024240  
H    2.4028853    2.0163452    4.9860947  
H   -2.2861435   -1.9184361    2.3990168  
H    0.0832434    0.0693689    5.4835595  
H    3.3664920    2.8238276    2.6198634  
