62

C    1.1188640    0.0008225   -0.8003806  
C    0.0000000    0.0000000    0.0000000  
C   -1.1323864    0.0008894   -0.8673523  
C   -0.6382662    0.0019674   -2.1969278  
N    0.7324012    0.0038482   -2.1202238  
C   -1.4770921    0.0027310   -3.3154804  
C   -2.8395484    0.0020931   -3.0876848  
O   -3.7039203    0.0024407   -4.1440338  
C   -3.3517872    0.0013915   -1.7684323  
O   -4.7300495    0.0012347   -1.7073113  
C   -2.5248544    0.0009114   -0.6644813  
H   -1.1067576    0.0036981   -4.3313808  
H   -4.5940038    0.0021809   -3.7685116  
H   -4.9934601    0.0007245   -0.7819905  
H   -2.9462578    0.0005591    0.3339665  
H    2.1619890    0.0009362   -0.5342066  
C    4.5412311   -2.0990423   -2.8732840  
C    3.3927951   -1.6299043   -2.3209431  
C    2.7903275   -0.7451813   -3.2900321  
C    3.6883334   -0.7373091   -4.4606360  
N    4.7307585   -1.5775589   -4.1440610  
C    3.4698847   -0.0211176   -5.5924726  
C    2.2703741    0.7967039   -5.6623077  
O    1.9845385    1.4779286   -6.6382851  
C    1.3053385    0.8036751   -4.4341122  
O    0.2924793    1.4886258   -4.4812227  
C    1.6478429   -0.0100097   -3.2702997  
H    3.0113377   -1.8754395   -1.3458453  
H    4.1412524   -0.0294712   -6.4398842  
H    5.2651730   -2.7816953   -2.4588174  
C    6.9368370   -5.3057317   -4.9986818  
C    6.0673600   -4.3817135   -4.5146617  
C    6.4020662   -3.1223174   -5.1365366  
C    7.5459958   -3.3902925   -6.0289517  
N    7.8216323   -4.7319476   -5.8990430  
C    8.1573921   -2.4537825   -6.7976183  
C    7.6554051   -1.0908940   -6.7421243  
O    8.1382961   -0.1760318   -7.3964526  
C    6.4449620   -0.7843409   -5.8036906  
O    6.0138397    0.3594857   -5.7484210  
C    5.8697547   -1.8773089   -5.0236850  
H    5.2813563   -4.5617655   -3.8030489  
H    8.9951008   -2.6713279   -7.4455592  
H    7.0058059   -6.3575410   -4.7732261  
H    8.5516654   -5.2196298   -6.3851128  
C    0.8576279    0.7185626    2.2703808  
C    0.0000000    0.0000000    1.4700000  
C   -0.8668858   -0.7285659    2.3373528  
C   -0.4876752   -0.4117774    3.6669281  
N    0.5635254    0.4678311    3.5902241  
C   -1.1297612   -0.9515493    4.7854808  
C   -2.1738724   -1.8268314    4.5576857  
O   -2.8357962   -2.3827064    5.6140350  
C   -2.5667212   -2.1555554    3.2384331  
O   -3.6226318   -3.0413663    3.1773122  
C   -1.9335634   -1.6236449    2.1344818  
H    1.0363952    0.8769718    4.3757045  
H   -0.8454472   -0.7142436    5.8013813  
H   -3.5178062   -2.9546422    5.2385129  
H   -3.8247440   -3.2102924    2.2519915  
H   -2.2566033   -1.8942483    1.1360343  
H    1.6567807    1.3889844    2.0042067  
