64

C    5.6495499   -2.9108931   -2.6856534  
C    5.7732883   -3.6208641   -1.5138609  
C    6.9829922   -4.3708654   -1.6072158  
C    7.5595583   -4.0754054   -2.8690408  
N    6.7234829   -3.1873233   -3.4990432  
C    8.7636267   -4.6396090   -3.3011089  
C    9.3973501   -5.5178457   -2.4436295  
O   10.5760210   -6.0971687   -2.8152955  
C    8.8376579   -5.8255182   -1.1807365  
O    9.5880415   -6.7173580   -0.4425705  
C    7.6497106   -5.2694995   -0.7539464  
H    5.0767159   -3.6015212   -0.6932478  
H    6.8781682   -2.7891061   -4.4076007  
H    9.2082302   -4.4186372   -4.2616822  
H   10.8432641   -6.6669610   -2.0823677  
H    9.1405418   -6.8710239    0.3951257  
H    7.2453565   -5.5243433    0.2186943  
C    4.5980359   -1.9815538   -3.1233146  
C    3.4854371   -1.6054321   -2.4508302  
C    2.8041271   -0.6786476   -3.3415528  
C    3.6683875   -0.6094941   -4.5394075  
N    4.7214229   -1.3712007   -4.4173085  
C    3.3375007    0.2137348   -5.6698471  
C    2.1949513    0.9347924   -5.6066691  
O    1.7634392    1.7449076   -6.5882759  
C    1.3015815    0.8859885   -4.4118175  
O    0.2774371    1.5687932   -4.4230769  
C    1.6628945    0.0339172   -3.2649299  
H    3.1664182   -1.9183346   -1.4713430  
H    3.9875725    0.2452574   -6.5320083  
H    0.9280184    2.1174829   -6.2529968  
C    1.1243410    0.0100105   -0.7919003  
C    0.7474072    0.0234665   -2.1148542  
C   -0.6787384    0.0234379   -2.1414698  
C   -1.1201748    0.0098411   -0.7935547  
N    0.0000000    0.0000000    0.0000000  
C   -2.4730818    0.0063307   -0.4408240  
C   -3.3971962    0.0170429   -1.4675058  
O   -4.7313520    0.0145490   -1.1793468  
C   -2.9763654    0.0303020   -2.8186325  
O   -4.0166484    0.0394464   -3.7247625  
C   -1.6418567    0.0334992   -3.1673480  
H   -2.8160166   -0.0041569    0.5845966  
H   -5.1938823    0.0230023   -2.0274386  
H   -3.6464680    0.0481700   -4.6127343  
H   -1.3497475    0.0435647   -4.2109234  
H    2.1062466    0.0053162   -0.3505405  
C    0.8676693    0.7151171    2.2619005  
C    0.5875920    0.4624972    3.5848544  
C   -0.5048400   -0.4542819    3.6114698  
C   -0.8517165   -0.7276451    2.2635546  
N    0.0000000    0.0000000    1.4700000  
C   -1.8902865   -1.5946756    1.9108239  
C   -2.5912627   -2.1969500    2.9375057  
O   -3.6148162   -3.0527051    2.6493466  
C   -2.2603868   -1.9365747    4.2886322  
O   -3.0513550   -2.6123276    5.1947621  
C   -1.2361111   -1.0811317    4.6373480  
H    1.1060808    0.8876438    4.4271209  
H   -2.1597133   -1.8070987    0.8854031  
H   -3.9636755   -3.3565188    3.4974381  
H   -2.7621927   -2.3810384    6.0827341  
H   -1.0058879   -0.9010589    5.6809233  
H    1.6167816    1.3499334    1.8205408  
