62

C   -4.4234274    2.1222536   -0.0293805  
C   -3.3650429    1.6606157   -0.7771636  
C   -3.9025167    0.7730545   -1.7559166  
C   -5.3060547    0.7325422   -1.5550032  
N   -5.5885352    1.5615014   -0.4978137  
C   -6.1607758   -0.0439273   -2.3432513  
C   -5.5882383   -0.7929132   -3.3529036  
O   -6.3767050   -1.5686456   -4.1526367  
C   -4.1898497   -0.7659922   -3.5687764  
O   -3.7730107   -1.5663378   -4.6123448  
C   -3.3460098   -0.0004261   -2.7913644  
H   -2.3324827    1.9295467   -0.6340274  
H   -6.5054757    1.7425841   -0.1311936  
H   -7.2312993   -0.0792603   -2.1951496  
H   -5.7852143   -2.0014411   -4.7819951  
H   -2.8171053   -1.4906985   -4.6906199  
H   -4.4392468    2.8060390    0.8019717  
C    0.0000000    0.0000000    0.0000000  
C    1.0662918   -0.0000103   -0.8334272  
C    0.4961866    0.0000066   -2.1718888  
C   -0.9663862   -0.0000848   -1.9540246  
N   -1.2632777   -0.0000084   -0.6828658  
C   -1.8985367   -0.0000514   -3.0477256  
C   -1.3925783    0.0004569   -4.3020543  
O   -2.1456389    0.0005417   -5.4151310  
C    0.0786225    0.0009329   -4.5544999  
O    0.4683752    0.0012595   -5.7221105  
C    1.0143159    0.0008446   -3.4159033  
H    2.1107193    0.0000632   -0.5721869  
H   -1.5042282    0.0009699   -6.1484418  
C    4.4206217   -2.1198138   -1.5561262  
C    5.4069057   -1.6197472   -2.3744440  
C    4.7719034   -0.7451148   -3.3052452  
C    3.3859881   -0.7512893   -3.0033746  
N    3.2068292   -1.5976640   -1.9374620  
C    2.4521470    0.0014842   -3.7217487  
C    2.9260530    0.7748093   -4.7636500  
O    2.0575501    1.5296197   -5.4978014  
C    4.3052209    0.7939174   -5.0804274  
O    4.6197273    1.6131720   -6.1449705  
C    5.2270094    0.0513307   -4.3723335  
H    6.4549545   -1.8571124   -2.3092942  
H    2.3277568   -1.7949326   -1.4944065  
H    2.5878286    1.9847231   -6.1648475  
H    5.5693383    1.5686714   -6.2928311  
H    6.2770181    0.0860293   -4.6383344  
H    4.4867478   -2.8087414   -0.7315262  
C    1.0672568    0.0000697    2.3021913  
C    0.0000000    0.0000000    1.4700000  
C   -1.1601224    0.0000736    2.3478473  
C   -0.5938729    0.0000769    3.7138435  
N    0.7113367    0.0001554    3.6934124  
C   -1.4286986    0.0001879    4.8835240  
C   -2.7683114    0.0006799    4.6970523  
O   -3.6653903    0.0008304    5.6976972  
C   -3.3702025    0.0010610    3.3310774  
O   -4.5974910    0.0013779    3.2362962  
C   -2.4926826    0.0008943    2.1470656  
H   -0.9878360   -0.0000190    5.8697035  
H   -4.5324246    0.0012261    5.2533954  
H   -2.9677772    0.0012974    1.1752040  
H    2.1134392    0.0000545    2.0405121  
