62

C    6.5924460   -3.3368071   -4.8108766  
C    6.0516306   -2.0736819   -4.7437834  
C    6.8690182   -1.2274201   -5.5502060  
C    7.9018522   -2.0367692   -6.0888470  
N    7.7053546   -3.3114110   -5.6184272  
C    8.8944371   -1.5326105   -6.9346540  
C    8.8432764   -0.1869664   -7.2425538  
O    9.7875709    0.3572788   -8.0642110  
C    7.8208388    0.6369141   -6.7146731  
O    7.9070216    1.9546141   -7.1141494  
C    6.8414613    0.1402825   -5.8799856  
H    8.2768494   -4.1064701   -5.8403630  
H    9.6843971   -2.1441749   -7.3483612  
H    9.5699242    1.2948604   -8.1468837  
H    7.1804174    2.4419120   -6.7139105  
H    6.0710813    0.7957141   -5.4908814  
H    6.2732041   -4.2535441   -4.3454337  
C    4.4925592   -2.1138022   -2.7420818  
C    4.8565035   -1.6946788   -3.9763669  
C    3.8030380   -0.7794117   -4.3874587  
C    2.8583245   -0.7634595   -3.2499849  
N    3.2572738   -1.5436999   -2.2824862  
C    1.6628945    0.0339172   -3.2649299  
C    1.4223698    0.7816763   -4.3659923  
O    0.3461535    1.5724674   -4.5158195  
C    2.3568199    0.7871865   -5.5300082  
O    2.0745621    1.4917540   -6.4990986  
C    3.5763790   -0.0392794   -5.4905725  
H    0.4536187    1.9730612   -5.3973686  
H    4.2275605   -0.0074316   -6.3538100  
H    5.0117291   -2.8025036   -2.0946821  
C    1.1243410    0.0100105   -0.7919003  
C    0.7474072    0.0234665   -2.1148542  
C   -0.6787384    0.0234379   -2.1414698  
C   -1.1201748    0.0098411   -0.7935547  
N    0.0000000    0.0000000    0.0000000  
C   -2.4730818    0.0063307   -0.4408240  
C   -3.3971962    0.0170429   -1.4675058  
O   -4.7313520    0.0145490   -1.1793468  
C   -2.9763654    0.0303020   -2.8186325  
O   -4.0166484    0.0394464   -3.7247625  
C   -1.6418567    0.0334992   -3.1673480  
H   -2.8160166   -0.0041569    0.5845966  
H   -5.1938823    0.0230023   -2.0274386  
H   -3.6464680    0.0481700   -4.6127343  
H   -1.3497475    0.0435647   -4.2109234  
H    2.1062466    0.0053162   -0.3505405  
C    2.5528530    2.1414826    2.8079335  
C    2.0663498    1.7338582    4.0032312  
C    0.9804344    0.8229586    3.6752840  
C    0.9495562    0.7966882    2.1971295  
N    1.8690446    1.5676019    1.6831036  
C    0.0000000    0.0000000    1.4700000  
C   -0.8785127   -0.7372425    2.1869543  
O   -1.8187535   -1.5261249    1.6395491  
C   -0.8723269   -0.7321790    3.6796354  
O   -1.7010379   -1.4274584    4.2670412  
C    0.1115397    0.0933559    4.4024240  
H    2.4028853    2.0163452    4.9860947  
H   -2.2861435   -1.9184361    2.3990168  
H    0.0832434    0.0693689    5.4835595  
H    3.3664920    2.8238276    2.6198634  
