62

C   -6.3456172    1.0733388   -0.9608646  
C   -6.1749101    1.9590220    0.0778323  
C   -7.4683828    2.2194556    0.6197766  
C   -8.3969658    1.4580247   -0.1351295  
N   -7.6821875    0.7753336   -1.0878323  
C   -9.7711980    1.4701639    0.1220220  
C  -10.2161028    2.2652157    1.1603523  
O  -11.5479992    2.3139632    1.4547813  
C   -9.3051496    3.0324417    1.9247774  
O   -9.9032524    3.7727647    2.9235451  
C   -7.9493322    3.0211607    1.6714803  
H   -5.2339957    2.3680245    0.4040057  
H   -8.0720680    0.1443223   -1.7644408  
H  -10.4841346    0.8922333   -0.4497478  
H  -11.6405302    2.9196136    2.2017023  
H   -9.2189892    4.2609910    3.3915431  
H   -7.2758612    3.6195065    2.2738898  
C   -3.9884053    0.7039232   -1.8242583  
C   -3.3460097   -0.0004262   -2.7913647  
C   -4.3537576   -0.7427567   -3.5112429  
C   -5.6451796   -0.4107432   -2.8797467  
N   -5.3546447    0.4703280   -1.8637778  
C   -6.8441771   -0.9105386   -3.2725756  
C   -6.8640249   -1.8374915   -4.3919058  
O   -7.8934838   -2.3421825   -4.8206287  
C   -5.5080965   -2.2034208   -5.0755418  
O   -5.5122767   -2.9830138   -6.0186632  
C   -4.2805263   -1.6000814   -4.5627984  
H   -7.7799856   -0.6539442   -2.7957828  
H   -3.3459149   -1.8584818   -5.0418129  
H   -3.5786587    1.3738259   -1.0858632  
C    0.0000000    0.0000000    0.0000000  
C    1.0662919   -0.0000103   -0.8334272  
C    0.4961868    0.0000066   -2.1718889  
C   -0.9663860   -0.0000849   -1.9540248  
N   -1.2632775   -0.0000084   -0.6828659  
C   -1.8985364   -0.0000515   -3.0477258  
C   -1.3925778    0.0004567   -4.3020543  
O   -2.1456385    0.0005412   -5.4151314  
C    0.0786229    0.0009326   -4.5544999  
O    0.4683756    0.0012594   -5.7221104  
C    1.0143162    0.0008443   -3.4159034  
H    2.1107195    0.0000631   -0.5721869  
H   -1.5042277    0.0009692   -6.1484420  
H    2.0724151    0.0013151   -3.6409746  
C    1.1243417   -0.0099156    2.2619005  
C    0.7474090   -0.0234034    3.5848544  
C   -0.6787367   -0.0234952    3.6114698  
C   -1.1201739   -0.0099357    2.2635546  
N    0.0000000    0.0000000    1.4700000  
C   -2.4730812   -0.0065396    1.9108239  
C   -3.3971947   -0.0173298    2.9375057  
O   -4.7313508   -0.0149487    2.6493466  
C   -2.9763630   -0.0305536    4.2886322  
O   -4.0166453   -0.0397858    5.1947621  
C   -1.6418541   -0.0336380    4.6373480  
H    1.4178735   -0.0310004    4.4271209  
H   -2.8160170    0.0039190    0.8854031  
H   -5.1938803   -0.0234410    3.4974381  
H   -3.6464643   -0.0484781    6.0827341  
H   -1.3497443   -0.0436789    5.6809233  
H    2.1062470   -0.0051382    1.8205408  
