60

C   10.2517435    2.1158979   -2.4338827  
C    9.2027743    1.6551962   -1.6723807  
C    9.7521807    0.7673086   -0.7005743  
C   11.1529618    0.7256413   -0.9196684  
N   11.4223759    1.5542564   -1.9805321  
C   12.0172087   -0.0514315   -0.1424785  
C   11.4572097   -0.7998443    0.8746041  
O   12.2553571   -1.5761256    1.6641377  
C   10.0617611   -0.7717710    1.1085913  
O    9.6578460   -1.5716654    2.1575741  
C    9.2085264   -0.0056090    0.3420965  
H    8.1686614    1.9249451   -1.8021460  
H   12.3346296    1.7345589   -2.3590342  
H   13.0856920   -0.0876447   -0.3044469  
H   11.6717291   -2.0083744    2.3011657  
H    8.7030979   -1.4952462    2.2482303  
H   10.2573303    2.7995794   -3.2654520  
C    5.6706431   -0.0000128   -2.2998307  
C    6.9366747   -0.0017195   -1.8086715  
C    6.8296106   -0.0022717   -0.3687505  
C    5.3870842   -0.0007650   -0.0590649  
N    4.7390840    0.0009613   -1.2727298  
C    4.8700564   -0.0011572    1.1956807  
C    5.7961368   -0.0029737    2.3159068  
O    5.4290435   -0.0033984    3.4836152  
C    7.3281312   -0.0043376    2.0112791  
O    8.1174245   -0.0055641    2.9463061  
C    7.7645008   -0.0040378    0.6172084  
H    7.8422116   -0.0023200   -2.3888570  
H    3.8085782   -0.0001604    1.4010419  
H    5.3397979    0.0008321   -3.3257109  
C    3.2798077    0.0005856   -1.4499661  
C    2.5571132    0.0005565   -2.5996564  
C    1.1637425    0.0001547   -2.2210366  
C    1.1336959   -0.0000200   -0.7459475  
N    2.4483509   -0.0001429   -0.3402730  
C    0.0000000    0.0000000    0.0000000  
C   -1.2757370   -0.0000187   -0.6964411  
O   -2.3524597   -0.0000640   -0.1142306  
C   -1.2676502   -0.0000874   -2.2584078  
O   -2.3355774   -0.0004102   -2.8557287  
C    0.0181551    0.0001758   -2.9516297  
H    2.9547342    0.0006074   -3.5989118  
H    0.0150776    0.0003317   -4.0331632  
H    2.7563626    0.0012823    0.6148051  
C    2.4951002    2.0940188    2.9809380  
C    1.9440701    1.6314916    1.8291961  
C    0.8759964    0.7350050    2.2038498  
C    0.8497377    0.7130254    3.6788474  
N    1.8560616    1.5571714    4.0882609  
C   -0.0205033   -0.0168748    4.4215661  
C   -0.9962600   -0.8356168    3.7214979  
O   -1.8224391   -1.5286685    4.3006425  
C   -0.9864710   -0.8277881    2.1595606  
O   -1.8030528   -1.5133726    1.5592035  
C    0.0000000    0.0000000    1.4700000  
H    2.2509283    1.8888011    0.8310761  
H   -0.0229599   -0.0187323    5.5027230  
H    3.3143982    2.7817323    3.1139444  
H    2.0889452    1.7545833    5.0442112  
