62

C    0.8398284   -0.7093995   -5.2158384  
C    0.5541676   -0.4590037   -6.5380216  
C   -0.5449406    0.4498433   -6.5616409  
C   -0.8899496    0.7208841   -5.2127778  
N   -0.0307359   -0.0004648   -4.4215606  
C   -1.9337585    1.5804288   -4.8572000  
C   -2.6419924    2.1774670   -5.8819570  
O   -3.6708869    3.0258355   -5.5909922  
C   -2.3130868    1.9192974   -7.2339879  
O   -3.1114985    2.5891789   -8.1379466  
C   -1.2836442    1.0712374   -7.5855111  
H    1.0733205   -0.8805096   -7.3817075  
H   -2.2017960    1.7910445   -3.8310431  
H   -4.0243475    3.3269946   -6.4381244  
H   -2.8231978    2.3598597   -9.0267095  
H   -1.0550942    0.8926846   -8.6297159  
H    1.5947670   -1.3387152   -4.7765343  
C    3.2573667   -0.0002920   -1.5109386  
C    2.5379466   -0.0001709   -0.3591965  
C    1.1435040    0.0000332   -0.7338503  
C    1.1092604   -0.0000083   -2.2088478  
N    2.4227557    0.0001908   -2.6182616  
C   -0.0265538   -0.0002523   -2.9515663  
C   -1.3003040   -0.0002641   -2.2514979  
O   -2.3786787   -0.0004133   -2.8306426  
C   -1.2877728    0.0000312   -0.6895607  
O   -2.3539959    0.0003306   -0.0892033  
C    0.0000000    0.0000000    0.0000000  
H    2.9384091   -0.0000368    0.6389234  
H    2.7280486   -0.0013408   -3.5742120  
C    4.7161330   -0.0005435   -1.6923266  
C    5.7254244   -0.0020828   -0.7575561  
C    6.9579242   -0.0022077   -1.4755702  
C    6.6349842   -0.0004069   -2.8567410  
N    5.2655554   -0.0013826   -2.9530735  
C    7.6078555    0.0002913   -3.8608877  
C    8.9308323   -0.0005422   -3.4635108  
O    9.9212234    0.0004353   -4.4027333  
C    9.2730463   -0.0027139   -2.0903021  
O   10.6326706   -0.0037270   -1.8562877  
C    8.3138101   -0.0036769   -1.0991455  
H    5.5899962   -0.0041076    0.3104553  
H    4.7441077    0.0100379   -3.8109452  
H    7.3682589    0.0015185   -4.9153043  
H   10.7569960   -0.0006923   -3.9182266  
H   10.7775869   -0.0051585   -0.9051826  
H    8.6062648   -0.0055253   -0.0556201  
C    0.8400945    0.7047457    2.2710304  
C    0.0000000    0.0000000    1.4700000  
C   -0.8844236   -0.7423113    2.3369512  
C   -0.4878984   -0.4098547    3.7186280  
N    0.5629682    0.4714286    3.6095011  
C   -1.0836927   -0.9095027    4.8308716  
C   -2.1891196   -1.8367527    4.6554461  
O   -2.7906899   -2.3413415    5.5944904  
C   -2.6257283   -2.2031529    3.2011665  
O   -3.5549479   -2.9829990    3.0410059  
C   -1.9068976   -1.5999348    2.0816745  
H   -0.7774656   -0.6525820    5.8354244  
H   -2.2155208   -1.8586617    1.0779135  
H    1.6384792    1.3747609    1.9961646  
H    1.0518368    0.8833920    4.3830260  
