60

C    0.2970120    0.5329592   -9.3800055  
C    1.3782136   -0.3173374   -9.3584147  
C    1.9224235   -0.3324357  -10.6768262  
C    1.1250212    0.5352906  -11.4662100  
N    0.1460049    1.0425764  -10.6484049  
C    1.3722704    0.7643485  -12.8231136  
C    2.4442003    0.1056735  -13.3934582  
O    2.7307526    0.2934442  -14.7146860  
C    3.2512570   -0.7643663  -12.6224153  
O    4.2799120   -1.3455816  -13.3347380  
C    3.0077623   -0.9910201  -11.2838108  
H    1.7305826   -0.8608116   -8.4984934  
H   -0.5629483    1.6960648  -10.9282602  
H    0.7681845    1.4243697  -13.4302833  
H    3.5051456   -0.2514290  -14.9062415  
H    4.7758358   -1.9175203  -12.7409784  
H    3.6431385   -1.6630981  -10.7189337  
C    0.1961174   -0.6857267   -5.1976474  
C   -0.8712826    0.0001710   -4.7267111  
C   -1.3726389    0.7456799   -5.8709830  
C   -0.4644986    0.3818146   -6.9797965  
N    0.4570578   -0.4570291   -6.5911260  
C   -0.6264069    0.9182525   -8.3030901  
C   -1.6492912    1.7787630   -8.5093991  
O   -1.9180366    2.3551729   -9.6932771  
C   -2.5830260    2.1652385   -7.4107925  
O   -3.4919442    2.9537008   -7.6704362  
C   -2.3959898    1.6014058   -6.0620761  
H   -2.6997683    2.9120521   -9.5261426  
H   -3.0937612    1.9063894   -5.2937465  
H    0.8441378   -1.3580426   -4.6581711  
C    1.0965514    0.0001359   -0.8010305  
C    0.0000000    0.0000000    0.0000000  
C   -1.1546563    0.0001470   -0.8669513  
C   -0.6372014    0.0003519   -2.2486282  
N    0.7342871    0.0007337   -2.1395014  
C   -1.4147739    0.0001352   -3.3608717  
C   -2.8576049   -0.0001048   -3.1854462  
O   -3.6427779   -0.0002494   -4.1244907  
C   -3.4275840   -0.0000725   -1.7311666  
O   -4.6406831    0.0000333   -1.5710060  
C   -2.4891867   -0.0001091   -0.6116744  
H   -2.8919122   -0.0002918    0.3920866  
H    2.1388272    0.0000663   -0.5261648  
H    1.3735872   -0.0006099   -2.9130262  
C    0.8681109    0.7263879    2.2709268  
C    0.6127770    0.5096195    3.5869401  
C   -0.4920590   -0.4175482    3.6542670  
C   -0.8620974   -0.7254003    2.2596025  
N    0.0000000    0.0000000    1.4700000  
C   -1.8641242   -1.5660088    1.8976294  
C   -2.6293522   -2.2103885    2.9520183  
O   -3.5512764   -2.9839180    2.7283916  
C   -2.2549728   -1.8987399    4.4361073  
O   -2.8923672   -2.4351063    5.3323774  
C   -1.1543735   -0.9755647    4.7012123  
H    1.1382914    0.9492124    4.4159191  
H   -2.1192137   -1.7782617    0.8686553  
H   -0.9013378   -0.7652422    5.7314848  
H    1.6172880    1.3558399    1.8188057  
