62

C    6.6797205   -3.0885942   -7.5275645  
C    7.3394000   -2.9864365   -8.7304171  
C    7.2487193   -1.6232920   -9.1405561  
C    6.5163482   -0.9352828   -8.1394561  
N    6.1844892   -1.8548050   -7.1756277  
C    6.2342855    0.4320780   -8.2139847  
C    6.7002933    1.1174434   -9.3191040  
O    6.4534527    2.4542165   -9.4420684  
C    7.4325093    0.4485016  -10.3286555  
O    7.8271098    1.2689136  -11.3652647  
C    7.7109083   -0.9004723  -10.2559211  
H    7.8251589   -3.7951725   -9.2490476  
H    5.6764941    0.9622756   -7.4544053  
H    6.8600508    2.7316243  -10.2733249  
H    8.3151788    0.7394630  -12.0032879  
H    8.2738955   -1.3855838  -11.0447121  
H    6.5220486   -3.9442197   -6.8935271  
C    5.7052418   -2.0986834   -4.6958678  
C    4.8302131   -1.6343311   -3.7670103  
C    3.9272651   -0.7382854   -4.4501079  
C    4.3509919   -0.7185537   -5.8632097  
N    5.4336785   -1.5634478   -5.9458740  
C    3.7483766    0.0103194   -6.8365048  
C    2.6063696    0.8302496   -6.4676277  
O    1.9959435    1.5225183   -7.2716453  
C    2.1405131    0.8248035   -4.9767381  
O    1.1803932    1.5114043   -4.6542322  
C    2.8699641   -0.0020530   -4.0185824  
H    4.8187253   -1.8901546   -2.7224834  
H    4.0749502    0.0105271   -7.8671644  
H    6.5257691   -2.7867004   -4.5723460  
C    3.2573670   -0.0002921   -1.5109382  
C    2.5379468   -0.0001711   -0.3591962  
C    1.1435043    0.0000330   -0.7338498  
C    1.1092608   -0.0000085   -2.2088474  
N    2.4227562    0.0001906   -2.6182610  
C   -0.0265533   -0.0002525   -2.9515663  
C   -1.3003033   -0.0002641   -2.2514979  
O   -2.3786785   -0.0004132   -2.8306425  
C   -1.2877724    0.0000310   -0.6895608  
O   -2.3539956    0.0003306   -0.0892035  
C    0.0000000    0.0000000    0.0000000  
H    2.9384091   -0.0000370    0.6389240  
H   -0.0296290   -0.0004088   -4.0327231  
H    4.3270394   -0.0004767   -1.6439445  
C    2.5311839    2.1237619    3.0120429  
C    1.9795631    1.6616747    1.8395852  
C    0.9223175    0.7739173    2.1983588  
C    0.8753926    0.7337535    3.6154372  
N    1.8668922    1.5631002    4.0777464  
C   -0.0496243   -0.0427881    4.3197917  
C   -0.9437528   -0.7922060    3.5801400  
O   -1.8685244   -1.5680278    4.2172520  
C   -0.9124520   -0.7656372    2.1655264  
O   -1.8671164   -1.5663939    1.5732860  
C    0.0000000    0.0000000    1.4700000  
H    2.3005065    1.9304404    0.8477417  
H    2.0679347    1.7444845    5.0445261  
H   -0.0904770   -0.0778569    5.3997470  
H   -2.3849669   -2.0011402    3.5251786  
H   -1.7775064   -1.4909735    0.6183591  
H    3.3468514    2.8078103    3.1724291  
