62

C    9.5916971   -0.7186587    1.9280171  
C    9.0339157   -0.0011769    0.8952693  
C   10.0922797    0.7259930    0.2742301  
C   11.2830367    0.4095058    0.9769820  
N   10.9431807   -0.4685864    1.9760164  
C   12.5276720    0.9481579    0.6370897  
C   12.5710840    1.8219890   -0.4318876  
O   13.7605398    2.3767267   -0.8066881  
C   11.3937625    2.1503899   -1.1452489  
O   11.6014420    3.0347024   -2.1836148  
C   10.1655133    1.6195841   -0.8103232  
H   11.5837623   -0.8771932    2.6322765  
H   13.4388750    0.7110746    1.1687843  
H   13.5695026    2.9477555   -1.5621319  
H   10.7571160    3.2035071   -2.6128260  
H    9.2809835    1.8899063   -1.3751335  
H    9.1321878   -1.3878899    2.6350812  
C    6.5597224   -0.0008210    1.3835014  
C    7.6114515   -0.0009111    0.5244666  
C    7.0637934   -0.0009868   -0.8115372  
C    5.5962696   -0.0009035   -0.6593386  
N    5.3559137   -0.0012035    0.6953271  
C    4.7161325   -0.0005435   -1.6923264  
C    5.2498348   -0.0004420   -3.0442500  
O    4.5392134   -0.0001857   -4.0409037  
C    6.8008623   -0.0007794   -3.2289604  
O    7.2618442   -0.0010041   -4.3624314  
C    7.6474457   -0.0008759   -2.0385199  
H    8.7203338   -0.0009043   -2.1750270  
H    6.5627896   -0.0007238    2.4614069  
H    4.4461411    0.0003272    1.1188348  
C    3.2573665   -0.0002920   -1.5109385  
C    2.5379463   -0.0001709   -0.3591964  
C    1.1435038    0.0000331   -0.7338500  
C    1.1092599   -0.0000083   -2.2088477  
N    2.4227553    0.0001909   -2.6182613  
C   -0.0265539   -0.0002524   -2.9515660  
C   -1.3003040   -0.0002640   -2.2514977  
O   -2.3786790   -0.0004133   -2.8306421  
C   -1.2877727    0.0000311   -0.6895603  
O   -2.3539959    0.0003306   -0.0892030  
C    0.0000000    0.0000000    0.0000000  
H    2.9384091   -0.0000367    0.6389234  
H   -0.0296303   -0.0004086   -4.0327229  
H    2.7280482   -0.0013407   -3.5742119  
C    2.5311839    2.1237619    3.0120429  
C    1.9795631    1.6616747    1.8395852  
C    0.9223175    0.7739173    2.1983588  
C    0.8753926    0.7337535    3.6154372  
N    1.8668922    1.5631002    4.0777464  
C   -0.0496243   -0.0427881    4.3197917  
C   -0.9437528   -0.7922060    3.5801400  
O   -1.8685244   -1.5680278    4.2172520  
C   -0.9124520   -0.7656372    2.1655264  
O   -1.8671164   -1.5663939    1.5732860  
C    0.0000000    0.0000000    1.4700000  
H    2.3005065    1.9304404    0.8477417  
H    2.0679347    1.7444845    5.0445261  
H   -0.0904770   -0.0778569    5.3997470  
H   -2.3849669   -2.0011402    3.5251786  
H   -1.7775064   -1.4909735    0.6183591  
H    3.3468514    2.8078103    3.1724291  
