64

C    0.6176052    0.0952461   -8.7812237  
C    1.6800181   -0.5528435   -9.3675055  
C    1.7085754   -0.1517818  -10.7360562  
C    0.6304720    0.7497248  -10.9281617  
N   -0.0125155    0.8759894   -9.7218277  
C    0.3548009    1.3470841  -12.1618376  
C    1.1827319    1.0288104  -13.2208045  
O    0.9589408    1.5839607  -14.4474826  
C    2.2632918    0.1312007  -13.0490398  
O    2.9949869   -0.0843144  -14.1986147  
C    2.5356754   -0.4586911  -11.8323398  
H    2.3511284   -1.2320651   -8.8702505  
H   -0.8111009    1.4591293   -9.5480742  
H   -0.4654122    2.0348703  -12.3148189  
H    1.6410524    1.2328832  -15.0346227  
H    3.7046604   -0.7015645  -13.9962053  
H    3.3703368   -1.1424973  -11.7312089  
C    2.0234326   -2.1203365   -5.1612091  
C    1.8898404   -1.6210650   -6.4361003  
C    0.7628122   -0.7468329   -6.4249093  
C    0.2448267   -0.7524210   -5.1044597  
N    1.0324261   -1.5980773   -4.3633998  
C   -0.8712826    0.0001710   -4.7267111  
C   -1.4753121    0.7727082   -5.6995997  
O   -2.5682877    1.5273086   -5.3849614  
C   -0.9734764    0.7912226   -7.0227155  
O   -1.6848159    1.6097208   -7.8755934  
C    0.1273886    0.0488144   -7.3961488  
H    2.5257351   -1.8586902   -7.2716639  
H    0.9132304   -1.7948166   -3.3861243  
H   -2.8290818    1.9818423   -6.1965339  
H   -1.2808197    1.5648554   -8.7475895  
H    2.7463506   -2.8087670   -4.7582064  
C    1.0965514    0.0001359   -0.8010305  
C    0.0000000    0.0000000    0.0000000  
C   -1.1546563    0.0001470   -0.8669513  
C   -0.6372014    0.0003519   -2.2486282  
N    0.7342871    0.0007337   -2.1395014  
C   -1.4147739    0.0001352   -3.3608717  
C   -2.8576049   -0.0001048   -3.1854462  
O   -3.6427779   -0.0002494   -4.1244907  
C   -3.4275840   -0.0000725   -1.7311666  
O   -4.6406831    0.0000333   -1.5710060  
C   -2.4891867   -0.0001091   -0.6116744  
H   -2.8919122   -0.0002918    0.3920866  
H    2.1388272    0.0000663   -0.5261648  
H    1.3735872   -0.0006099   -2.9130262  
C    0.8576279    0.7185626    2.2703808  
C    0.0000000    0.0000000    1.4700000  
C   -0.8668858   -0.7285659    2.3373528  
C   -0.4876752   -0.4117774    3.6669281  
N    0.5635254    0.4678311    3.5902241  
C   -1.1297612   -0.9515493    4.7854808  
C   -2.1738724   -1.8268314    4.5576857  
O   -2.8357962   -2.3827064    5.6140350  
C   -2.5667212   -2.1555554    3.2384331  
O   -3.6226318   -3.0413663    3.1773122  
C   -1.9335634   -1.6236449    2.1344818  
H    1.0363952    0.8769718    4.3757045  
H   -0.8454472   -0.7142436    5.8013813  
H   -3.5178062   -2.9546422    5.2385129  
H   -3.8247440   -3.2102924    2.2519915  
H   -2.2566033   -1.8942483    1.1360343  
H    1.6567807    1.3889844    2.0042067  
