62

C   -3.3003548    0.0018919   -1.4738969  
C   -2.5232825    0.0015001   -2.6090733  
C   -1.1623208    0.0009839   -2.1820094  
C   -1.1711891    0.0008003   -0.7636130  
N   -2.4852286    0.0033138   -0.3662345  
C    0.0000000    0.0000000    0.0000000  
C    1.2020379   -0.0009333   -0.6806481  
O    2.3759235   -0.0020914    0.0157739  
C    1.2314644   -0.0003917   -2.0955509  
O    2.5054372   -0.0010333   -2.6250184  
C    0.0764506    0.0006710   -2.8495194  
H   -2.8919961    0.0026821   -3.6205285  
H   -2.8036323   -0.0067627    0.5858680  
H    3.0835622   -0.0022955   -0.6418826  
H    2.4360033   -0.0006334   -3.5845928  
H    0.1304089    0.0012463   -3.9319084  
C   -6.7690617    0.0040220   -4.2725592  
C   -5.4996714    0.0037069   -3.8032749  
C   -5.6352797    0.0039648   -2.3547894  
C   -7.0947601    0.0045546   -2.1170927  
N   -7.7645144    0.0045100   -3.2375478  
C   -7.6497391    0.0049085   -0.7915422  
C   -6.7859632    0.0042944    0.2492387  
O   -7.1644538    0.0045358    1.5387290  
C   -5.3077369    0.0033192    0.0418565  
O   -4.5810503    0.0029224    1.0354093  
C   -4.7630504    0.0030164   -1.3275378  
H   -4.5843350    0.0032540   -4.3700507  
H   -8.7202876    0.0055446   -0.6471949  
H   -6.3302569    0.0039249    2.0419868  
C   -6.4158738    0.0036467   -6.7696095  
C   -7.2165433    0.0039390   -5.6727948  
C   -8.5803094    0.0044401   -6.1471142  
C   -8.5080070    0.0043864   -7.6207356  
N   -7.1683884    0.0042955   -7.9342824  
C   -9.5872544    0.0043785   -8.4434933  
C  -10.9082097    0.0046521   -7.8371829  
O  -11.9419727    0.0047287   -8.4926473  
C  -11.0084416    0.0049655   -6.2784144  
O  -12.1152135    0.0055040   -5.7565760  
C   -9.7737954    0.0046645   -5.4977084  
H   -9.5122910    0.0042084   -9.5220526  
H   -9.8518547    0.0046790   -4.4189916  
H   -5.3393918    0.0032287   -6.8250675  
H   -6.7948973    0.0026850   -8.8657048  
C    2.5311839    2.1237619    3.0120429  
C    1.9795631    1.6616747    1.8395852  
C    0.9223175    0.7739173    2.1983588  
C    0.8753926    0.7337535    3.6154372  
N    1.8668922    1.5631002    4.0777464  
C   -0.0496243   -0.0427881    4.3197917  
C   -0.9437528   -0.7922060    3.5801400  
O   -1.8685244   -1.5680278    4.2172520  
C   -0.9124520   -0.7656372    2.1655264  
O   -1.8671164   -1.5663939    1.5732860  
C    0.0000000    0.0000000    1.4700000  
H    2.3005065    1.9304404    0.8477417  
H    2.0679347    1.7444845    5.0445261  
H   -0.0904770   -0.0778569    5.3997470  
H   -2.3849669   -2.0011402    3.5251786  
H   -1.7775064   -1.4909735    0.6183591  
H    3.3468514    2.8078103    3.1724291  
