60

C    4.2303300    0.5703294   -7.3178292  
C    5.2772657   -0.2699245   -7.0172197  
C    6.1645155   -0.2455741   -8.1338194  
C    5.6020170    0.6347581   -9.0932656  
N    4.4271135    1.1112854   -8.5668257  
C    6.2105358    0.9013486  -10.3234781  
C    7.4088723    0.2679411  -10.5898644  
O    8.0459838    0.4927067  -11.7758591  
C    7.9857517   -0.6141355   -9.6454238  
O    9.1804388   -1.1668339  -10.0584495  
C    7.3858542   -0.8778114   -8.4317009  
H    5.3873248   -0.8321928   -6.1057734  
H    3.8124246    1.7650585   -9.0170696  
H    5.7868902    1.5711569  -11.0590629  
H    8.8519481   -0.0396172  -11.7580184  
H    9.5024070   -1.7492727   -9.3636795  
H    7.8514425   -1.5582749   -7.7283694  
C    2.8912669   -0.6998116   -3.3332350  
C    1.7334695    0.0049281   -3.2500363  
C    1.6041102    0.7488995   -4.4807305  
C    2.7899386    0.4174235   -5.2935811  
N    3.5303614   -0.4649349   -4.5411801  
C    3.0393028    0.9187046   -6.5298011  
C    2.0755512    1.8468028   -7.0975618  
O    2.2101254    2.3528610   -8.2039499  
C    0.8125769    2.2121884   -6.2542379  
O   -0.0056403    2.9927350   -6.7217079  
C    0.6534236    1.6072169   -4.9341881  
H   -0.2239001    1.8652502   -4.3567402  
H    3.3315067   -1.3708305   -2.6136436  
H    4.3999326   -0.8765953   -4.8265370  
C    1.1319246    0.0015678   -0.8009268  
C    0.7969914    0.0034958   -2.1169401  
C   -0.6453340    0.0035696   -2.1842669  
C   -1.1266832    0.0015410   -0.7896025  
N    0.0000000    0.0000000    0.0000000  
C   -2.4346129    0.0013913   -0.4276292  
C   -3.4350111    0.0031335   -1.4820181  
O   -4.6384614    0.0030875   -1.2583914  
C   -2.9478961    0.0050442   -2.9661074  
O   -3.7809382    0.0062135   -3.8623773  
C   -1.5113825    0.0053055   -3.2312122  
H   -2.7664565    0.0000174    0.6013448  
H   -1.1823533    0.0068381   -4.2614848  
H    2.1104316    0.0009435   -0.3488059  
C    0.8175213    0.6860729    2.3021913  
C    0.0000000    0.0000000    1.4700000  
C   -0.8887526   -0.7456559    2.3478473  
C   -0.4549825   -0.3816753    3.7138435  
N    0.5448156    0.4573574    3.6934124  
C   -1.0945674   -0.9182058    4.8835240  
C   -2.1210866   -1.7789155    4.6970523  
O   -2.8083856   -2.3554314    5.6976972  
C   -2.5824069   -2.1655116    3.3310774  
O   -3.5227682   -2.9541547    3.2362962  
C   -1.9100805   -1.6015804    2.1470656  
H   -0.7567140   -0.6349833    5.8697035  
H   -3.4728268   -2.9124471    5.2533954  
H   -2.2742832   -1.9066565    1.1752040  
H    1.6189533    1.3585343    2.0405121  
