62

C    0.0000000    0.0000000    0.0000000  
C    1.0521670   -0.0011903   -0.8862341  
C    0.4917223   -0.0011957   -2.1979133  
C   -0.9187419    0.0003148   -2.0478687  
N   -1.1833165   -0.0009412   -0.7007917  
C   -1.7951689    0.0010351   -3.1372100  
C   -1.2375821    0.0005225   -4.4010430  
O   -2.0474197    0.0015361   -5.4997589  
C    0.1673595   -0.0013567   -4.5711966  
O    0.5673540   -0.0020687   -5.8915551  
C    1.0325779   -0.0023413   -3.4969890  
H    2.0953065   -0.0030650   -0.6200556  
H   -2.0989773    0.0102372   -0.2891831  
H   -1.4634867    0.0006498   -6.2693597  
H    1.5290733   -0.0033154   -5.9180042  
H    2.1042160   -0.0039610   -3.6584451  
C   -3.2578643    0.0024039   -2.9908521  
C   -4.0046933    0.0033126   -1.8566910  
C   -5.3897511    0.0044627   -2.2646723  
C   -5.3886182    0.0041181   -3.7400671  
N   -4.0656842    0.0032564   -4.1178685  
C   -6.5062972    0.0045472   -4.5098061  
C   -7.7964663    0.0056318   -3.8404804  
O   -8.8606446    0.0061497   -4.4453152  
C   -7.8213898    0.0062655   -2.2786917  
O   -8.9017009    0.0074859   -1.7040725  
C   -6.5505216    0.0054372   -1.5584518  
H   -3.6282780    0.0033734   -0.8492560  
H   -6.4834491    0.0041525   -5.5907257  
H   -3.7375590    0.0012866   -5.0662233  
C   -4.1068357    2.1120033    1.4204938  
C   -4.6882226    1.6481518    2.5566742  
C   -5.7471453    0.7535221    2.1527476  
C   -5.7349134    0.7340307    0.6775320  
N   -4.7178427    1.5783345    0.2959460  
C   -6.5857685    0.0057646   -0.0888745  
C   -7.5800788   -0.8133721    0.5841020  
O   -8.3912423   -1.5049620   -0.0175768  
C   -7.6113775   -0.8077777    2.1457660  
O   -8.4442613   -1.4932433    2.7234358  
C   -6.6425152    0.0179473    2.8622406  
H   -4.4074515    1.9036961    3.5628940  
H   -6.6707050    0.0160926    3.9434094  
H   -3.2835641    2.7989704    1.3100861  
H   -4.4579981    1.7748411   -0.6532184  
C    3.3041272   -0.0001177    3.0120429  
C    2.5845372    0.0004780    1.8395852  
C    1.2040006    0.0000008    2.1983588  
C    1.1422373   -0.0006037    3.6154372  
N    2.4348639   -0.0026109    4.0777464  
C   -0.0655181   -0.0008797    4.3197917  
C   -1.2321768   -0.0002324    3.5801400  
O   -2.4392816   -0.0001146    4.2172520  
C   -1.1911209    0.0000007    2.1655264  
O   -2.4371527    0.0002320    1.5732860  
C    0.0000000    0.0000000    1.4700000  
H    3.0031534    0.0000661    0.8477417  
H    2.7054629    0.0071099    5.0445261  
H   -0.1193549   -0.0014844    5.3997470  
H   -3.1132988    0.0000648    3.5251786  
H   -2.3200282    0.0004071    0.6183591  
H    4.3686625   -0.0004071    3.1724291  
