60

C    0.6058630   -3.2776198  -10.4537346  
C    0.5138533   -2.5955802   -9.2625910  
C    0.2632840   -1.2286001   -9.5838078  
C    0.2120141   -1.1360771  -10.9982824  
N    0.4258920   -2.3977683  -11.4952820  
C   -0.0186597    0.0685074  -11.6695153  
C   -0.2011987    1.2002547  -10.8987978  
O   -0.4301965    2.4026295  -11.5028424  
C   -0.1532443    1.1282345   -9.4862363  
O   -0.3534841    2.3414722   -8.8606962  
C    0.0745464   -0.0597310   -8.8233823  
H    0.6159918   -3.0296939   -8.2827403  
H    0.4354515   -2.6442514  -12.4684903  
H   -0.0587704    0.1457053  -12.7473058  
H   -0.5277852    3.0506031  -10.7930035  
H   -0.3055457    2.2048447   -7.9095711  
H    0.7870494   -4.3218338  -10.6428035  
C    2.5632303   -2.1406389   -5.7671238  
C    2.0732866   -1.7328926   -6.9609732  
C    0.9882151   -0.8221521   -6.6298070  
C    0.9615396   -0.7960980   -5.1515671  
N    1.8825657   -1.5669911   -4.6402698  
C    0.0139741    0.0003876   -4.4216236  
C   -0.8666503    0.7376429   -5.1359697  
O   -1.8054109    1.5263496   -4.5857773  
C   -0.8647107    0.7327951   -6.6286630  
O   -1.6951607    1.4280737   -7.2136082  
C    0.1171805   -0.0925343   -7.3543666  
H    2.4070538   -2.0152032   -7.9448313  
H   -2.2750000    1.9187219   -5.3438559  
H    3.3774711   -2.8229274   -5.5814675  
C    3.2798085    0.0005853   -1.4499648  
C    2.5571144    0.0005562   -2.5996554  
C    1.1637436    0.0001546   -2.2210360  
C    1.1336965   -0.0000201   -0.7459470  
N    2.4483513   -0.0001430   -0.3402717  
C    0.0000000    0.0000000    0.0000000  
C   -1.2757367   -0.0000188   -0.6964414  
O   -2.3524597   -0.0000640   -0.1142313  
C   -1.2676494   -0.0000875   -2.2584081  
O   -2.3355762   -0.0004102   -2.8557294  
C    0.0181562    0.0001757   -2.9516296  
H    2.9547357    0.0006072   -3.5989105  
H    4.3498550    0.0008609   -1.3200021  
H    2.7563627    0.0012824    0.6148063  
C    2.5528530    2.1414826    2.8079335  
C    2.0663498    1.7338582    4.0032312  
C    0.9804344    0.8229586    3.6752840  
C    0.9495562    0.7966882    2.1971295  
N    1.8690446    1.5676019    1.6831036  
C    0.0000000    0.0000000    1.4700000  
C   -0.8785127   -0.7372425    2.1869543  
O   -1.8187535   -1.5261249    1.6395491  
C   -0.8723269   -0.7321790    3.6796354  
O   -1.7010379   -1.4274584    4.2670412  
C    0.1115397    0.0933559    4.4024240  
H    2.4028853    2.0163452    4.9860947  
H   -2.2861435   -1.9184361    2.3990168  
H    0.0832434    0.0693689    5.4835595  
H    3.3664920    2.8238276    2.6198634  
