64

C    1.3958981   -2.3814667   -7.7397053  
C    0.9651107   -1.0781175   -7.6493175  
C    1.2825432   -0.4477724   -8.8888744  
C    1.9109633   -1.4242393   -9.7034456  
N    1.9655877   -2.5862853   -8.9745546  
C    2.3595870   -1.1528798  -10.9995508  
C    2.1701034    0.1274604  -11.4822551  
O    2.5888459    0.4465221  -12.7415670  
C    1.5454914    1.1155717  -10.6845636  
O    1.4301408    2.3413268  -11.3071077  
C    1.1029079    0.8486495   -9.4057366  
H    2.3490731   -3.4562442   -9.2971873  
H    2.8394181   -1.8926563  -11.6254069  
H    2.3635779    1.3761504  -12.8768804  
H    0.9981315    2.9508608  -10.7009391  
H    0.6281947    1.6259089   -8.8183761  
H    1.3431491   -3.1807963   -7.0205053  
C    0.6496545   -0.7066350   -5.1591666  
C   -0.1496415   -0.0015615   -4.3176961  
C   -1.0762655    0.7401247   -5.1399522  
C   -0.7489652    0.4069440   -6.5394717  
N    0.3061889   -0.4741189   -6.4823094  
C   -1.3994874    0.9058710   -7.6209511  
C   -2.4949748    1.8330541   -7.3912234  
O   -3.1426433    2.3370192   -8.2994331  
C   -2.8587001    2.2002135   -5.9172144  
O   -3.7789323    2.9800102   -5.7114232  
C   -2.0849148    1.5977389   -4.8345636  
H   -1.1436101    0.6484266   -8.6393609  
H   -2.3432252    1.8569887   -3.8168260  
H    1.4608539   -1.3763737   -4.9240181  
C    3.3003543    0.0005276   -1.4738987  
C    2.5232814    0.0003497   -2.6090747  
C    1.1623200   -0.0001320   -2.1820103  
C    1.1711883    0.0000582   -0.7636140  
N    2.4852300   -0.0014919   -0.3662360  
C    0.0000000    0.0000000    0.0000000  
C   -1.2020384    0.0000519   -0.6806477  
O   -2.3759249    0.0003493    0.0157743  
C   -1.2314656   -0.0005115   -2.0955510  
O   -2.5054392   -0.0008039   -2.6250180  
C   -0.0764516   -0.0007274   -2.8495195  
H    2.8919955   -0.0005620   -3.6205304  
H    2.8036267    0.0088183    0.5858662  
H   -3.0835638    0.0000347   -0.6418818  
H   -2.4360047   -0.0011529   -3.5845921  
H    4.3715549    0.0004895   -1.3667136  
C    2.5285572    2.1210227    2.9438989  
C    1.9331703    1.6216660    4.0790748  
C    0.8903039    0.7472258    3.6520102  
C    0.8972198    0.7527806    2.2336141  
N    1.9028376    1.5986179    1.8362361  
C    0.0000000    0.0000000    1.4700000  
C   -0.9207814   -0.7726952    2.1506477  
O   -1.8198395   -1.5274828    1.4542253  
C   -0.9436862   -0.7911793    3.5655508  
O   -1.9197945   -1.6098497    4.0950179  
C   -0.0590329   -0.0485852    4.3195194  
H    2.2150357    1.8593692    5.0905303  
H    2.1533708    1.7953814    0.8841339  
H   -2.3621246   -1.9821033    2.1118817  
H   -1.8668290   -1.5649508    5.0545920  
H   -0.1007624   -0.0827977    5.4019087  
H    3.3491200    2.8096064    2.8367138  
