64

C    1.3003522   -1.0420233   -7.6903766  
C    2.3530722   -1.9266401   -7.7316276  
C    2.6470934   -2.1600582   -9.1077327  
C    1.7334688   -1.3840058   -9.8659938  
N    0.9287710   -0.7189683   -8.9744763  
C    1.7325834   -1.3687725  -11.2640489  
C    2.6712907   -2.1509780  -11.9083773  
O    2.7148713   -2.1730079  -13.2724273  
C    3.5910195   -2.9324481  -11.1693108  
O    4.4625477   -3.6571582  -11.9558087  
C    3.5922946   -2.9481712   -9.7900806  
H    2.8474610   -2.3522882   -6.8752419  
H    0.1915733   -0.0833210   -9.2203897  
H    1.0388231   -0.7795834  -11.8477909  
H    3.4321310   -2.7737711  -13.5130255  
H    5.0489910   -4.1565273  -11.3793378  
H    4.3088929   -3.5568919   -9.2511702  
C    0.8794607   -0.7145259   -5.2160923  
C    0.5955947   -0.4617442   -6.5382074  
C   -0.4970029    0.4549259   -6.5615831  
C   -0.8400714    0.7280590   -5.2126470  
N    0.0139741    0.0003876   -4.4216236  
C   -1.8777232    1.5949315   -4.8568378  
C   -2.5816791    2.1972814   -5.8814343  
O   -3.6044966    3.0528891   -5.5902406  
C   -2.2546215    1.9371349   -7.2335340  
O   -3.0482338    2.6129365   -8.1373123  
C   -1.2312541    1.0818480   -7.5852859  
H   -2.1442532    1.8071788   -3.8306241  
H   -3.9557984    3.3567888   -6.4372929  
H   -2.7615752    2.3818054   -9.0261366  
H   -1.0039820    0.9019492   -8.6295379  
H    1.6298907   -1.3493282   -4.7769575  
C    3.2798085    0.0005853   -1.4499648  
C    2.5571144    0.0005562   -2.5996554  
C    1.1637436    0.0001546   -2.2210360  
C    1.1336965   -0.0000201   -0.7459470  
N    2.4483513   -0.0001430   -0.3402717  
C    0.0000000    0.0000000    0.0000000  
C   -1.2757367   -0.0000188   -0.6964414  
O   -2.3524597   -0.0000640   -0.1142313  
C   -1.2676494   -0.0000875   -2.2584081  
O   -2.3355762   -0.0004102   -2.8557294  
C    0.0181562    0.0001757   -2.9516296  
H    2.9547357    0.0006072   -3.5989105  
H    4.3498550    0.0008609   -1.3200021  
H    2.7563627    0.0012824    0.6148063  
C    0.0000000    0.0000000    1.4700000  
C    1.0521667    0.0011902    2.3562342  
C    0.4917218    0.0011957    3.6679131  
C   -0.9187428   -0.0003148    3.5178682  
N   -1.1833171    0.0009411    2.1707914  
C   -1.7951701   -0.0010350    4.6072090  
C   -1.2375837   -0.0005224    5.8710424  
O   -2.0474215   -0.0015360    6.9697579  
C    0.1673580    0.0013566    6.0411963  
O    0.5673524    0.0020687    7.3615553  
C    1.0325770    0.0023412    4.9669890  
H    2.0953057    0.0030649    2.0900562  
H   -2.0989778   -0.0102372    1.7591824  
H   -2.8710934   -0.0020419    4.4995513  
H   -1.4634884   -0.0006497    7.7393593  
H    1.5290710    0.0033153    7.3880045  
H    2.1042148    0.0039609    5.1284455  
