62

C   10.0626930   -0.7069739   -1.6099522  
C   11.3117310   -0.4555640   -2.1287655  
C   11.1366535    0.4539730   -3.2135190  
C    9.7475797    0.7243698   -3.3098966  
N    9.1243201    0.0019915   -2.3228140  
C    9.2094794    1.5843298   -4.2720328  
C   10.0897062    2.1824532   -5.1527297  
O    9.6178520    3.0312683   -6.1118333  
C   11.4789886    1.9249392   -5.0727524  
O   12.2241200    2.5958840   -6.0203578  
C   12.0105098    1.0764702   -4.1240107  
H   12.2353012   -0.8768533   -1.7702618  
H    8.1517281    1.7944594   -4.3508289  
H   10.3873691    3.3331821   -6.6117910  
H   13.1503784    2.3669517   -5.8969116  
H   13.0788903    0.8984393   -4.0872828  
H    9.7667798   -1.3370318   -0.7887207  
C    6.5771493   -0.0035570    1.3345532  
C    7.6645487   -0.0027622    0.5288600  
C    7.1290977   -0.0009889   -0.8238370  
C    5.6614000   -0.0010505   -0.6437064  
N    5.3318744   -0.0024720    0.6193853  
C    4.7577216    0.0005129   -1.7610467  
C    5.2958120    0.0024560   -3.0019295  
O    4.5716623    0.0040580   -4.1340274  
C    6.7730254    0.0029427   -3.2164074  
O    7.1927149    0.0046215   -4.3735931  
C    7.6790894    0.0012688   -2.0540951  
H    8.7019030   -0.0032207    0.8169075  
H    5.2317436    0.0052550   -4.8505779  
H    6.5493799   -0.0048792    2.4126073  
C    3.3041270    0.0001177   -1.5420435  
C    2.5845370   -0.0004780   -0.3695856  
C    1.2040004   -0.0000007   -0.7283590  
C    1.1422370    0.0006038   -2.1454373  
N    2.4348634    0.0026110   -2.6077469  
C   -0.0655187    0.0008799   -2.8497918  
C   -1.2321769    0.0002326   -2.1101398  
O   -2.4392822    0.0001149   -2.7472517  
C   -1.1911211   -0.0000007   -0.6955263  
O   -2.4371526   -0.0002319   -0.1032858  
C    0.0000000    0.0000000    0.0000000  
H    3.0031534   -0.0000661    0.6222578  
H    2.7054623   -0.0071098   -3.5745266  
H   -0.1193555    0.0014846   -3.9297472  
H   -3.1132992   -0.0000646   -2.0551783  
H   -2.3200279   -0.0004070    0.8516411  
C    2.5128556    2.1077716    2.9199648  
C    1.9592212    1.6432552    4.0696553  
C    0.8915788    0.7479214    3.6910360  
C    0.8684491    0.7287414    2.2159470  
N    1.8754542    1.5738793    1.8102719  
C    0.0000000    0.0000000    1.4700000  
C   -0.9772830   -0.8200135    2.1664417  
O   -1.8021297   -1.5120829    1.5842315  
C   -0.9711318   -0.8147624    3.7284083  
O   -1.7894187   -1.5009653    4.3257297  
C    0.0140216    0.0115358    4.4216297  
H    2.2638494    1.8988021    5.0689105  
H    0.0117648    0.0094386    5.5031631  
H    3.3327358    2.7953732    2.7900019  
H    2.1123206    1.7707734    0.8551938  
