62

C   -3.3003543   -0.0034477   -1.4738961  
C   -2.5232826   -0.0025823   -2.6090725  
C   -1.1623223   -0.0008964   -2.1820090  
C   -1.1711890   -0.0010946   -0.7636130  
N   -2.4852309   -0.0007071   -0.3662339  
C    0.0000000    0.0000000    0.0000000  
C    1.2020365    0.0010116   -0.6806484  
O    2.3759235    0.0017528    0.0157729  
C    1.2314626    0.0016008   -2.0955517  
O    2.5054352    0.0030205   -2.6250196  
C    0.0764477    0.0007949   -2.8495194  
H   -2.8919983   -0.0019969   -3.6205280  
H   -2.8036178   -0.0112989    0.5858685  
H    3.0835617    0.0026936   -0.6418839  
H    2.4359999    0.0033082   -3.5845938  
H    0.1304051    0.0014575   -3.9319086  
C   -4.7630493   -0.0046899   -1.3275368  
C   -5.6984986   -0.0064924   -2.3055502  
C   -6.9735480   -0.0070250   -1.6050154  
C   -6.6111473   -0.0054400   -0.1714021  
N   -5.3167459   -0.0039863   -0.0025480  
C   -7.6066054   -0.0053798    0.8650098  
C   -8.9050767   -0.0064479    0.4864514  
O   -9.9376455   -0.0065354    1.3465926  
C   -9.3027456   -0.0076865   -0.9523047  
O  -10.5033597   -0.0087443   -1.2238686  
C   -8.2629681   -0.0077672   -1.9967117  
H   -5.5425435   -0.0072639   -3.3707989  
H  -10.7311736   -0.0073814    0.7813801  
H   -8.5922693   -0.0085664   -3.0271435  
C   -6.1950576    0.6831065    2.8581583  
C   -7.2074027   -0.0040608    2.2797662  
C   -7.8238748   -0.7493071    3.3665368  
C   -7.0356850   -0.3839164    4.5631283  
N   -6.0795564    0.4555233    4.2713250  
C   -7.3332371   -0.9196695    5.8629422  
C   -8.3712567   -1.7809831    5.9628910  
O   -8.7606082   -2.3568935    7.1130095  
C   -9.1859403   -2.1690011    4.7738188  
O  -10.1161862   -2.9581293    4.9385601  
C   -8.8607870   -1.6058462    3.4512997  
H   -6.7404523   -0.6354184    6.7200986  
H   -9.5203727   -2.9145907    6.8662619  
H   -9.4750282   -1.9119493    2.6150949  
H   -5.4952464    1.3556741    2.3881679  
C    2.5311839    2.1237619    3.0120429  
C    1.9795631    1.6616747    1.8395852  
C    0.9223175    0.7739173    2.1983588  
C    0.8753926    0.7337535    3.6154372  
N    1.8668922    1.5631002    4.0777464  
C   -0.0496243   -0.0427881    4.3197917  
C   -0.9437528   -0.7922060    3.5801400  
O   -1.8685244   -1.5680278    4.2172520  
C   -0.9124520   -0.7656372    2.1655264  
O   -1.8671164   -1.5663939    1.5732860  
C    0.0000000    0.0000000    1.4700000  
H    2.3005065    1.9304404    0.8477417  
H    2.0679347    1.7444845    5.0445261  
H   -0.0904770   -0.0778569    5.3997470  
H   -2.3849669   -2.0011402    3.5251786  
H   -1.7775064   -1.4909735    0.6183591  
H    3.3468514    2.8078103    3.1724291  
