62

C    5.9903381   -1.9450969   -4.9067699  
C    7.0428436   -2.7871984   -4.6318796  
C    7.9091854   -2.7543139   -5.7645626  
C    7.3287825   -1.8671120   -6.7068638  
N    6.1637717   -1.3948732   -6.1551784  
C    7.9142824   -1.5912477   -7.9461690  
C    9.1075859   -2.2222741   -8.2394470  
O    9.7225030   -1.9885505   -9.4353824  
C    9.7020874   -3.1111045   -7.3124271  
O   10.8890007   -3.6603430   -7.7516508  
C    9.1249003   -3.3839297   -6.0897470  
H    7.1699314   -3.3561413   -3.7268123  
H    5.5406943   -0.7379995   -6.5890822  
H    7.4769100   -0.9161704   -8.6687882  
H   10.5287635   -2.5207238   -9.4364524  
H   11.2239383   -4.2477864   -7.0673034  
H    9.6036116   -4.0694106   -5.4002324  
C    4.5310508   -2.0790480   -2.8543218  
C    4.8140929   -1.6029425   -4.0941952  
C    3.7433600   -0.7037140   -4.4544102  
C    2.8066151   -0.6948784   -3.3145762  
N    3.3414841   -1.5491127   -2.3780461  
C    1.6628945    0.0339172   -3.2649299  
C    1.3323529    0.8649109   -4.4106728  
O    0.3247029    1.5579297   -4.4623207  
C    2.3099256    0.8707266   -5.6289190  
O    2.0419949    1.5662240   -6.5993606  
C    3.5120772    0.0432794   -5.5655568  
H    4.1838702    0.0530794   -6.4130956  
H    5.0912894   -2.7726311   -2.2485463  
H    2.9319190   -1.7542581   -1.4851746  
C    1.1243410    0.0100105   -0.7919003  
C    0.7474072    0.0234665   -2.1148542  
C   -0.6787384    0.0234379   -2.1414698  
C   -1.1201748    0.0098411   -0.7935547  
N    0.0000000    0.0000000    0.0000000  
C   -2.4730818    0.0063307   -0.4408240  
C   -3.3971962    0.0170429   -1.4675058  
O   -4.7313520    0.0145490   -1.1793468  
C   -2.9763654    0.0303020   -2.8186325  
O   -4.0166484    0.0394464   -3.7247625  
C   -1.6418567    0.0334992   -3.1673480  
H   -2.8160166   -0.0041569    0.5845966  
H   -5.1938823    0.0230023   -2.0274386  
H   -3.6464680    0.0481700   -4.6127343  
H   -1.3497475    0.0435647   -4.2109234  
H    2.1062466    0.0053162   -0.3505405  
C    0.8400945    0.7047457    2.2710304  
C    0.0000000    0.0000000    1.4700000  
C   -0.8844236   -0.7423113    2.3369512  
C   -0.4878984   -0.4098547    3.7186280  
N    0.5629682    0.4714286    3.6095011  
C   -1.0836927   -0.9095027    4.8308716  
C   -2.1891196   -1.8367527    4.6554461  
O   -2.7906899   -2.3413415    5.5944904  
C   -2.6257283   -2.2031529    3.2011665  
O   -3.5549479   -2.9829990    3.0410059  
C   -1.9068976   -1.5999348    2.0816745  
H   -0.7774656   -0.6525820    5.8354244  
H   -2.2155208   -1.8586617    1.0779135  
H    1.6384792    1.3747609    1.9961646  
H    1.0518368    0.8833920    4.3830260  
