62

C    0.3404993   -0.9881350   -9.5654316  
C    0.6412014   -0.6002851  -10.8505854  
C    0.3995483    0.8032888  -10.9292232  
C   -0.0506964    1.2203913   -9.6504611  
N   -0.0768047    0.1076851   -8.8468324  
C   -0.3842933    2.5471053   -9.3617879  
C   -0.2608369    3.4696151  -10.3825288  
O   -0.5729364    4.7787697  -10.1551072  
C    0.1863531    3.0727629  -11.6652407  
O    0.2558319    4.1079732  -12.5745556  
C    0.5153704    1.7640526  -11.9508112  
H    0.9905740   -1.2493686  -11.6352008  
H   -0.7281922    2.8713889   -8.3892786  
H   -0.4188602    5.2447265  -10.9872179  
H    0.5660643    3.7550537  -13.4140845  
H    0.8548581    1.4899049  -12.9428137  
H    0.3893118   -1.9599953   -9.1049284  
C    1.5640652   -2.0395934   -5.3856075  
C    0.7230585   -1.5862625   -4.4205823  
C   -0.2043663   -0.6833979   -5.0605464  
C    0.1679207   -0.6476541   -6.4877522  
N    1.2472261   -1.4907315   -6.6189377  
C   -0.4698103    0.0915038   -7.4304339  
C   -1.5980270    0.9063960   -7.0113715  
O   -2.2374220    1.6070672   -7.7850216  
C   -2.0096055    0.8840405   -5.5047499  
O   -2.9576824    1.5662687   -5.1400911  
C   -1.2456329    0.0471727   -4.5828766  
H    0.7494879   -1.8536712   -3.3792333  
H    2.3887876   -2.7282964   -5.2995223  
H    1.7291275   -1.6799011   -7.4786076  
C    1.1243410    0.0099923   -0.7919003  
C    0.7474076    0.0234544   -2.1148543  
C   -0.6787381    0.0234490   -2.1414700  
C   -1.1201745    0.0098592   -0.7935546  
N    0.0000000    0.0000000    0.0000000  
C   -2.4730816    0.0063709   -0.4408240  
C   -3.3971958    0.0170982   -1.4675058  
O   -4.7313517    0.0146259   -1.1793471  
C   -2.9763648    0.0303504   -2.8186324  
O   -4.0166480    0.0395118   -3.7247624  
C   -1.6418562    0.0335260   -3.1673481  
H    1.4178717    0.0310972   -2.9571209  
H   -2.8160166   -0.0041111    0.5845966  
H   -5.1938818    0.0230867   -2.0274384  
H   -3.6464675    0.0482293   -4.6127343  
H    2.1062467    0.0052819   -0.3505407  
C    2.4951002    2.0940188    2.9809380  
C    1.9440701    1.6314916    1.8291961  
C    0.8759964    0.7350050    2.2038498  
C    0.8497377    0.7130254    3.6788474  
N    1.8560616    1.5571714    4.0882609  
C   -0.0205033   -0.0168748    4.4215661  
C   -0.9962600   -0.8356168    3.7214979  
O   -1.8224391   -1.5286685    4.3006425  
C   -0.9864710   -0.8277881    2.1595606  
O   -1.8030528   -1.5133726    1.5592035  
C    0.0000000    0.0000000    1.4700000  
H    2.2509283    1.8888011    0.8310761  
H   -0.0229599   -0.0187323    5.5027230  
H    3.3143982    2.7817323    3.1139444  
H    2.0889452    1.7545833    5.0442112  
