62

C   10.0475396   -0.7068089   -1.6638258  
C   11.3122857   -0.4555445   -2.1431477  
C   11.1714522    0.4538061   -3.2330317  
C    9.7861097    0.7242449   -3.3730922  
N    9.1320814    0.0020691   -2.4059696  
C    9.2785725    1.5840558   -4.3518264  
C   10.1860888    2.1819846   -5.2045129  
O    9.7446710    3.0306486   -6.1781307  
C   11.5721577    1.9244261   -5.0808408  
O   12.3467520    2.5951701   -6.0046635  
C   12.0735396    1.0761038   -4.1157028  
H   12.2241063   -0.8768090   -1.7557032  
H    8.2238321    1.7942162   -4.4638841  
H   10.5295427    3.3324405   -6.6536953  
H   13.2686600    2.3662206   -5.8521100  
H   13.1402272    0.8980341   -4.0453641  
H    9.7259166   -1.3367075   -0.8521946  
C    6.6801374   -0.0033360    1.2661375  
C    7.7093289   -0.0019929    0.3802267  
C    7.1273475   -0.0004469   -0.9411857  
C    5.6642446   -0.0009741   -0.7511362  
N    5.4589565   -0.0031397    0.6092834  
C    4.7577216    0.0005129   -1.7610467  
C    5.2563286    0.0025580   -3.1263019  
O    4.5202037    0.0039400   -4.1042686  
C    6.8020686    0.0028974   -3.3510097  
O    7.2336221    0.0043061   -4.4960075  
C    7.6791157    0.0014557   -2.1828321  
H    8.7566707   -0.0022582    0.6245391  
H    6.7110426   -0.0046692    2.3436037  
H    4.5604253   -0.0024244    1.0561488  
C    3.3041270    0.0001177   -1.5420435  
C    2.5845370   -0.0004780   -0.3695856  
C    1.2040004   -0.0000007   -0.7283590  
C    1.1422370    0.0006038   -2.1454373  
N    2.4348634    0.0026110   -2.6077469  
C   -0.0655187    0.0008799   -2.8497918  
C   -1.2321769    0.0002326   -2.1101398  
O   -2.4392822    0.0001149   -2.7472517  
C   -1.1911211   -0.0000007   -0.6955263  
O   -2.4371526   -0.0002319   -0.1032858  
C    0.0000000    0.0000000    0.0000000  
H    3.0031534   -0.0000661    0.6222578  
H    2.7054623   -0.0071098   -3.5745266  
H   -0.1193555    0.0014846   -3.9297472  
H   -3.1132992   -0.0000646   -2.0551783  
H   -2.3200279   -0.0004070    0.8516411  
C    0.8400945    0.7047457    2.2710304  
C    0.0000000    0.0000000    1.4700000  
C   -0.8844236   -0.7423113    2.3369512  
C   -0.4878984   -0.4098547    3.7186280  
N    0.5629682    0.4714286    3.6095011  
C   -1.0836927   -0.9095027    4.8308716  
C   -2.1891196   -1.8367527    4.6554461  
O   -2.7906899   -2.3413415    5.5944904  
C   -2.6257283   -2.2031529    3.2011665  
O   -3.5549479   -2.9829990    3.0410059  
C   -1.9068976   -1.5999348    2.0816745  
H   -0.7774656   -0.6525820    5.8354244  
H   -2.2155208   -1.8586617    1.0779135  
H    1.6384792    1.3747609    1.9961646  
H    1.0518368    0.8833920    4.3830260  
