66

C    1.1188644    0.0008218   -0.8003806  
C    0.0000000    0.0000000    0.0000000  
C   -1.1323862    0.0008904   -0.8673524  
C   -0.6382659    0.0019684   -2.1969279  
N    0.7324023    0.0038479   -2.1202238  
C   -1.4770905    0.0027325   -3.3154809  
C   -2.8395470    0.0020959   -3.0876862  
O   -3.7039190    0.0024444   -4.1440355  
C   -3.3517864    0.0013947   -1.7684336  
O   -4.7300490    0.0012388   -1.7073134  
C   -2.5248545    0.0009136   -0.6644822  
H   -1.1067562    0.0036994   -4.3313813  
H   -4.5940024    0.0021851   -3.7685137  
H   -4.9934600    0.0007285   -0.7819922  
H   -2.9462579    0.0005615    0.3339652  
H    2.1619896    0.0009344   -0.5342063  
C    4.5426431   -2.1280495   -2.8244665  
C    4.7840755   -1.6433690   -4.0890858  
C    3.7027657   -0.7718641   -4.4144291  
C    2.8248675   -0.7640009   -3.3003562  
N    3.3636316   -1.5993789   -2.3535224  
C    1.6478441   -0.0100105   -3.2702994  
C    1.3518132    0.7501211   -4.3850829  
O    0.2151967    1.5054730   -4.4087629  
C    2.2150350    0.7551134   -5.5065284  
O    1.7815991    1.5622767   -6.5380153  
C    3.3762265    0.0113170   -5.5369816  
H    5.6343323   -1.8887260   -4.7021579  
H    2.9665967   -1.7854951   -1.4503582  
H    0.2007708    1.9502737   -5.2662066  
H    2.4205842    1.5086851   -7.2552535  
H    4.0176576    0.0350468   -6.4101832  
C    8.3968079   -4.2749323   -3.5497030  
C    7.2819518   -3.4796955   -3.6807064  
C    6.5348382   -3.6077798   -2.4723954  
C    7.2491677   -4.5016426   -1.6341409  
N    8.3736726   -4.8893625   -2.3195447  
C    6.8041204   -4.8609955   -0.3583722  
C    5.6164782   -4.3076883    0.0792752  
O    5.1361682   -4.6241802    1.3170751  
C    4.8892024   -3.4141797   -0.7426311  
O    3.7261035   -2.9488654   -0.1646796  
C    5.3275166   -3.0594331   -2.0014244  
H    7.0367302   -2.8817878   -4.5417328  
H    9.0786934   -5.5139433   -1.9719443  
H    7.3438381   -5.5418305    0.2853438  
H    4.3085722   -4.1369212    1.4216096  
H    3.2959460   -2.3521443   -0.7847539  
H    9.2059245   -4.4535767   -4.2369986  
C    2.5285572    2.1210227    2.9438989  
C    1.9331703    1.6216660    4.0790748  
C    0.8903039    0.7472258    3.6520102  
C    0.8972198    0.7527806    2.2336141  
N    1.9028376    1.5986179    1.8362361  
C    0.0000000    0.0000000    1.4700000  
C   -0.9207814   -0.7726952    2.1506477  
O   -1.8198395   -1.5274828    1.4542253  
C   -0.9436862   -0.7911793    3.5655508  
O   -1.9197945   -1.6098497    4.0950179  
C   -0.0590329   -0.0485852    4.3195194  
H    2.2150357    1.8593692    5.0905303  
H    2.1533708    1.7953814    0.8841339  
H   -2.3621246   -1.9821033    2.1118817  
H   -1.8668290   -1.5649508    5.0545920  
H   -0.1007624   -0.0827977    5.4019087  
H    3.3491200    2.8096064    2.8367138  
