60

C    7.0524862    0.6889381   -4.9759404  
C    7.6927284   -0.1284966   -4.0735230  
C    9.0892807   -0.0408111   -4.3502048  
C    9.2421593    0.8528601   -5.4410329  
N    7.9858762    1.2760690   -5.7977728  
C   10.4891462    1.1777875   -5.9834693  
C   11.6020997    0.5900840   -5.4141577  
O   12.8441268    0.8726540   -5.9045999  
C   11.4699514   -0.3044038   -4.3254677  
O   12.6713536   -0.8068068   -3.8698713  
C   10.2400632   -0.6256197   -3.7900051  
H    7.2122067   -0.7165922   -3.3104796  
H    7.7798413    1.9252132   -6.5354327  
H   10.6123744    1.8580583   -6.8148827  
H   13.4700113    0.3647490   -5.3720898  
H   12.4932004   -1.4015512   -3.1349263  
H   10.1701026   -1.3142103   -2.9560822  
C    3.4580104   -0.7268418   -2.8377764  
C    4.7325011   -0.5102408   -3.2535087  
C    4.6631581    0.4171288   -4.3580504  
C    3.2335496    0.7252824   -4.5531166  
N    2.5562217   -0.0001543   -3.6003001  
C    2.7508572    1.5661438   -5.5026767  
C    3.7028855    2.2104975   -6.3920507  
O    3.3673541    2.9842416   -7.2792027  
C    5.2217702    1.8985317   -6.2037115  
O    6.0326412    2.4348735   -6.9467363  
C    5.6204825    0.9751005   -5.1443933  
H    5.6199073   -0.9500720   -2.8343758  
H    1.6983100    1.7786155   -5.6288124  
H    3.1016697   -1.3563640   -2.0386436  
C    0.0000000    0.0000000    0.0000000  
C    1.0541688   -0.0001719   -0.8560391  
C    0.5103141   -0.0000449   -2.1935955  
C   -0.9576367    0.0002461   -2.0455733  
N   -1.2018459   -0.0001392   -0.6915970  
C   -1.8348306    0.0008319   -3.0810611  
C   -1.2972842    0.0009739   -4.4314605  
O   -2.0050664    0.0014267   -5.4301321  
C    0.2542628    0.0004190   -4.6117571  
O    0.7184677    0.0002263   -5.7439119  
C    1.0974556    0.0000880   -3.4189127  
H    2.0940752   -0.0005479   -0.5817978  
H   -2.9081050    0.0011669   -2.9507065  
H   -2.1128195    0.0014911   -0.2706793  
C    0.0000000    0.0000000    1.4700000  
C    1.0541688    0.0001722    2.3260392  
C    0.5103138    0.0000454    3.6635956  
C   -0.9576371   -0.0002459    3.5155732  
N   -1.2018458    0.0001392    2.1615969  
C   -1.8348311   -0.0008317    4.5510609  
C   -1.2972847   -0.0009736    5.9014604  
O   -2.0050672   -0.0014265    6.9001319  
C    0.2542623   -0.0004184    6.0817573  
O    0.7184670   -0.0002256    7.2139121  
C    1.0974552   -0.0000873    4.8889129  
H    2.0940752    0.0005483    2.0517982  
H   -2.9081052   -0.0011668    4.4207061  
H    2.1707277    0.0000911    5.0223670  
H   -2.1128194   -0.0014912    1.7406791  
