60

C    5.1417347   -4.3649409   -6.9331550  
C    5.5658367   -4.9976316   -5.7875949  
C    4.7011879   -4.5757648   -4.7344986  
C    3.7607931   -3.6784607   -5.3023268  
N    4.0579300   -3.5713515   -6.6383115  
C    2.7528554   -3.0647961   -4.5524827  
C    2.6929654   -3.3626109   -3.2049306  
O    1.7283807   -2.7914799   -2.4262145  
C    3.6224919   -4.2551361   -2.6199548  
O    3.4314958   -4.4489462   -1.2674384  
C    4.6172763   -4.8606865   -3.3590348  
H    6.3969276   -5.6785114   -5.7191490  
H    3.5537664   -3.0114952   -7.3019080  
H    1.8643629   -3.1293008   -1.5314238  
H    4.1000138   -5.0641914   -0.9509548  
H    5.3150513   -5.5398313   -2.8832714  
H    5.5274778   -4.4158613   -7.9369312  
C    1.7744462   -2.1336756   -5.1326812  
C    1.6746901   -1.7240756   -6.4187042  
C    0.5405880   -0.8130115   -6.4352721  
C    0.0614873   -0.7888181   -5.0365368  
N    0.7809199   -1.5609927   -4.2683232  
C   -1.0641734    0.0073898   -4.6315339  
C   -1.6828412    0.7461574   -5.5806429  
O   -2.7449529    1.5348090   -5.3440238  
C   -1.2228405    0.7432055   -7.0006961  
O   -1.8334839    1.4397974   -7.8113104  
C   -0.0658199   -0.0818749   -7.3911696  
H    2.2942502   -2.0053647   -7.2530297  
H   -2.9590931    1.9284671   -6.2090843  
H    0.2361347   -0.0563396   -8.4296300  
C    1.1319248    0.0015675   -0.8009270  
C    0.7969916    0.0034959   -2.1169404  
C   -0.6453336    0.0035703   -2.1842672  
C   -1.1266831    0.0015415   -0.7896027  
N    0.0000000    0.0000000    0.0000000  
C   -2.4346129    0.0013924   -0.4276297  
C   -3.4350110    0.0031352   -1.4820184  
O   -4.6384610    0.0030897   -1.2583919  
C   -2.9478958    0.0050460   -2.9661075  
O   -3.7809377    0.0062160   -3.8623775  
C   -1.5113821    0.0053068   -3.2312125  
H    1.4821240    0.0045436   -2.9459192  
H   -2.7664565    0.0000185    0.6013447  
H    2.1104318    0.0009428   -0.3488058  
C    0.8400945    0.7047457    2.2710304  
C    0.0000000    0.0000000    1.4700000  
C   -0.8844236   -0.7423113    2.3369512  
C   -0.4878984   -0.4098547    3.7186280  
N    0.5629682    0.4714286    3.6095011  
C   -1.0836927   -0.9095027    4.8308716  
C   -2.1891196   -1.8367527    4.6554461  
O   -2.7906899   -2.3413415    5.5944904  
C   -2.6257283   -2.2031529    3.2011665  
O   -3.5549479   -2.9829990    3.0410059  
C   -1.9068976   -1.5999348    2.0816745  
H   -0.7774656   -0.6525820    5.8354244  
H   -2.2155208   -1.8586617    1.0779135  
H    1.6384792    1.3747609    1.9961646  
H    1.0518368    0.8833920    4.3830260  
