62

C    3.3745787   -3.0338651   -6.1860871  
C    4.1924510   -3.6831571   -5.2905583  
C    5.0997417   -4.4757533   -6.0542428  
C    4.7850141   -4.2676134   -7.4215581  
N    3.7316917   -3.3883217   -7.4660008  
C    5.4799171   -4.8928858   -8.4612381  
C    6.5115215   -5.7435393   -8.1143106  
O    7.2232414   -6.3798192   -9.0898178  
C    6.8403627   -5.9643544   -6.7556638  
O    7.8917613   -6.8387907   -6.5732754  
C    6.1550769   -5.3480555   -5.7294647  
H    4.1406959   -3.5970667   -4.2186895  
H    3.2972932   -3.0449392   -8.3034782  
H    5.2448643   -4.7385614   -9.5053344  
H    7.8861823   -6.9175364   -8.6374522  
H    8.0490885   -6.9324816   -5.6287788  
H    6.4296365   -5.5368325   -4.6982233  
C    2.2675097   -2.0960610   -5.9498184  
C    1.7744246   -1.6329634   -4.7723279  
C    0.6888618   -0.7368505   -5.0938399  
C    0.5891927   -0.7157115   -6.5657132  
N    1.5740350   -1.5599379   -7.0242506  
C   -0.3170783    0.0136359   -7.2645893  
C   -1.2569154    0.8326279   -6.5172654  
O   -2.1110288    1.5252265   -7.0549439  
C   -1.1693695    0.8256867   -4.9577486  
O   -1.9551699    1.5114887   -4.3178622  
C   -0.1496415   -0.0015615   -4.3176961  
H    2.1306440   -1.8896606   -3.7905807  
H   -0.3733624    0.0148799   -8.3442836  
H    1.7590690   -1.7578570   -7.9905002  
C    3.3003543    0.0005276   -1.4738987  
C    2.5232814    0.0003497   -2.6090747  
C    1.1623200   -0.0001320   -2.1820103  
C    1.1711883    0.0000582   -0.7636140  
N    2.4852300   -0.0014919   -0.3662360  
C    0.0000000    0.0000000    0.0000000  
C   -1.2020384    0.0000519   -0.6806477  
O   -2.3759249    0.0003493    0.0157743  
C   -1.2314656   -0.0005115   -2.0955510  
O   -2.5054392   -0.0008039   -2.6250180  
C   -0.0764516   -0.0007274   -2.8495195  
H    2.8919955   -0.0005620   -3.6205304  
H    2.8036267    0.0088183    0.5858662  
H   -3.0835638    0.0000347   -0.6418818  
H   -2.4360047   -0.0011529   -3.5845921  
H    4.3715549    0.0004895   -1.3667136  
C    0.0000000    0.0000000    1.4700000  
C    1.0662921    0.0000102    2.3034270  
C    0.4961870   -0.0000064    3.6418889  
C   -0.9663858    0.0000850    3.4240247  
N   -1.2632773    0.0000084    2.1528658  
C   -1.8985362    0.0000517    4.5177257  
C   -1.3925775   -0.0004564    5.7720543  
O   -2.1456383   -0.0005410    6.8851312  
C    0.0786232   -0.0009323    6.0245000  
O    0.4683759   -0.0012588    7.1921102  
C    1.0143166   -0.0008442    4.8859032  
H    2.1107198   -0.0000632    2.0421868  
H   -2.9622183    0.0003270    4.3293377  
H   -1.5042274   -0.0009692    7.6184419  
H    2.0724152   -0.0013148    5.1109744  
