62

C   -0.2837630    0.7165952   -7.1867829  
C    0.6764065   -0.0037870   -7.8587883  
C    0.0071833   -0.7321574   -8.8865122  
C   -1.3717336   -0.4133804   -8.7921890  
N   -1.5139908    0.4671746   -7.7486358  
C   -2.3331351   -0.9524300   -9.6523757  
C   -1.8944984   -1.8290208  -10.6257011  
O   -2.7909541   -2.3842686  -11.4923505  
C   -0.5228604   -2.1597345  -10.7355027  
O   -0.2448192   -3.0466637  -11.7550088  
C    0.4261035   -1.6285374   -9.8870783  
H   -2.3800371    0.8777361   -7.4496651  
H   -3.3856134   -0.7136099   -9.5856163  
H   -2.2826640   -2.9573344  -12.0809936  
H    0.7020662   -3.2169124  -11.7602388  
H    1.4695136   -1.9006722   -9.9953219  
H   -0.1885878    1.3874841   -6.3502374  
C    2.8699641   -0.0020527   -4.0185824  
C    4.1418710   -0.0047335   -4.5427132  
C    4.0070334   -0.0066676   -5.9627187  
C    2.6177780   -0.0047433   -6.2488846  
N    1.9559319   -0.0039085   -5.0461476  
C    2.1142957   -0.0055709   -7.5532210  
C    3.0299396   -0.0080856   -8.5875167  
O    2.5927428   -0.0086428   -9.8805252  
C    4.4200515   -0.0104086   -8.3221859  
O    5.2027699   -0.0131881   -9.4582708  
C    4.9174610   -0.0098667   -7.0356759  
H    5.0545874   -0.0063386   -3.9718023  
H    0.9584584    0.0080180   -4.9326303  
H    3.3831278   -0.0107804  -10.4360002  
H    6.1269493   -0.0146009   -9.1908871  
H    5.9874217   -0.0118732   -6.8634591  
C    3.2573673   -0.0002921   -1.5109381  
C    2.5379469   -0.0001710   -0.3591962  
C    1.1435042    0.0000332   -0.7338498  
C    1.1092607   -0.0000083   -2.2088474  
N    2.4227562    0.0001908   -2.6182610  
C   -0.0265532   -0.0002523   -2.9515663  
C   -1.3003033   -0.0002639   -2.2514979  
O   -2.3786784   -0.0004132   -2.8306425  
C   -1.2877726    0.0000312   -0.6895609  
O   -2.3539956    0.0003308   -0.0892035  
C    0.0000000    0.0000000    0.0000000  
H    2.9384091   -0.0000368    0.6389240  
H   -0.0296292   -0.0004086   -4.0327231  
H    4.3270395   -0.0004765   -1.6439444  
C    0.8175213    0.6860729    2.3021913  
C    0.0000000    0.0000000    1.4700000  
C   -0.8887526   -0.7456559    2.3478473  
C   -0.4549825   -0.3816753    3.7138435  
N    0.5448156    0.4573574    3.6934124  
C   -1.0945674   -0.9182058    4.8835240  
C   -2.1210866   -1.7789155    4.6970523  
O   -2.8083856   -2.3554314    5.6976972  
C   -2.5824069   -2.1655116    3.3310774  
O   -3.5227682   -2.9541547    3.2362962  
C   -1.9100805   -1.6015804    2.1470656  
H   -0.7567140   -0.6349833    5.8697035  
H   -3.4728268   -2.9124471    5.2533954  
H   -2.2742832   -1.9066565    1.1752040  
H    1.6189533    1.3585343    2.0405121  
