64

C    0.1492878    0.1040324   -8.7766831  
C    1.1687660   -0.5425920   -9.4362359  
C    1.1031329   -0.1382382  -10.8025400  
C    0.0144706    0.7636740  -10.9178399  
N   -0.5439717    0.8870044   -9.6698212  
C   -0.3453668    1.3639853  -12.1281836  
C    0.4076982    1.0483012  -13.2423713  
O    0.1000949    1.6063893  -14.4494063  
C    1.4974127    0.1503350  -13.1475260  
O    2.1482465   -0.0623777  -14.3452367  
C    1.8528024   -0.4424680  -11.9538717  
H    1.8724230   -1.2229741   -8.9879720  
H   -1.3286407    1.4696847   -9.4401293  
H   -1.1740832    2.0520965  -12.2227096  
H    0.7401481    1.2567591  -15.0829317  
H    2.8700943   -0.6800774  -14.1936230  
H    2.6923653   -1.1264739  -11.9120569  
C    1.8159014   -2.1156535   -5.3336802  
C    0.9337940   -1.6549080   -4.3839079  
C    0.0359167   -0.7660298   -5.0459591  
C    0.4223296   -0.7238310   -6.4100814  
N    1.5073773   -1.5530970   -6.5501063  
C   -0.2444660    0.0542446   -7.3612761  
C   -1.3211418    0.8031324   -6.9275549  
O   -2.0081612    1.5803930   -7.8146200  
C   -1.7216870    0.7745412   -5.5705127  
O   -2.8111769    1.5750117   -5.2955535  
C   -1.0641734    0.0073898   -4.6315339  
H    0.9377498   -1.9252651   -3.3418501  
H    1.9929858   -1.7332278   -7.4101753  
H   -2.7106167    2.0128237   -7.3118043  
H   -3.0163349    1.4981863   -4.3587439  
H    2.6416169   -2.7999474   -5.2393630  
C    1.1319248    0.0015675   -0.8009270  
C    0.7969916    0.0034959   -2.1169404  
C   -0.6453336    0.0035703   -2.1842672  
C   -1.1266831    0.0015415   -0.7896027  
N    0.0000000    0.0000000    0.0000000  
C   -2.4346129    0.0013924   -0.4276297  
C   -3.4350110    0.0031352   -1.4820184  
O   -4.6384610    0.0030897   -1.2583919  
C   -2.9478958    0.0050460   -2.9661075  
O   -3.7809377    0.0062160   -3.8623775  
C   -1.5113821    0.0053068   -3.2312125  
H    1.4821240    0.0045436   -2.9459192  
H   -2.7664565    0.0000185    0.6013447  
H    2.1104318    0.0009428   -0.3488058  
C    0.8576279    0.7185626    2.2703808  
C    0.0000000    0.0000000    1.4700000  
C   -0.8668858   -0.7285659    2.3373528  
C   -0.4876752   -0.4117774    3.6669281  
N    0.5635254    0.4678311    3.5902241  
C   -1.1297612   -0.9515493    4.7854808  
C   -2.1738724   -1.8268314    4.5576857  
O   -2.8357962   -2.3827064    5.6140350  
C   -2.5667212   -2.1555554    3.2384331  
O   -3.6226318   -3.0413663    3.1773122  
C   -1.9335634   -1.6236449    2.1344818  
H    1.0363952    0.8769718    4.3757045  
H   -0.8454472   -0.7142436    5.8013813  
H   -3.5178062   -2.9546422    5.2385129  
H   -3.8247440   -3.2102924    2.2519915  
H   -2.2566033   -1.8942483    1.1360343  
H    1.6567807    1.3889844    2.0042067  
