62

C   10.0369868   -2.1274446    3.4160687  
C   11.2633215   -1.6300640    3.0403263  
C   11.0373335   -0.7548674    1.9368953  
C    9.6419659   -0.7579454    1.6822041  
N    9.0645601   -1.6030992    2.5970463  
C    9.0581380   -0.0038221    0.6598386  
C    9.8981932    0.7676939   -0.1194233  
O    9.3807461    1.5237066   -1.1312076  
C   11.2930968    0.7837073    0.1189133  
O   11.9948405    1.6014628   -0.7425825  
C   11.8697787    0.0397876    1.1271527  
H   12.2050693   -1.8695363    3.5037467  
H    8.0822547   -1.7982024    2.6676963  
H   10.1278812    1.9771843   -1.5428053  
H   12.9281241    1.5548878   -0.5136389  
H   12.9413660    0.0721104    1.2856923  
H    9.7791844   -2.8158488    4.2025768  
C    6.6174608   -0.0017047    1.3537077  
C    5.3857492   -0.0012517    0.7819025  
C    5.5854749   -0.0008504   -0.6481131  
C    7.0449748   -0.0011379   -0.8640996  
N    7.6133361   -0.0012550    0.3888389  
C    7.6418659   -0.0012962   -2.0828801  
C    6.7899755   -0.0009491   -3.2605124  
O    7.2316300   -0.0009954   -4.4021087  
C    5.2415215   -0.0003890   -3.0553446  
O    4.5141875    0.0002132   -4.0393395  
C    4.7161325   -0.0005435   -1.6923264  
H    4.4446710   -0.0010219    1.3024657  
H    8.7143807   -0.0016369   -2.2193398  
H    6.8814411   -0.0021126    2.3987935  
C    3.2573665   -0.0002920   -1.5109385  
C    2.5379463   -0.0001709   -0.3591964  
C    1.1435038    0.0000331   -0.7338500  
C    1.1092599   -0.0000083   -2.2088477  
N    2.4227553    0.0001909   -2.6182613  
C   -0.0265539   -0.0002524   -2.9515660  
C   -1.3003040   -0.0002640   -2.2514977  
O   -2.3786790   -0.0004133   -2.8306421  
C   -1.2877727    0.0000311   -0.6895603  
O   -2.3539959    0.0003306   -0.0892030  
C    0.0000000    0.0000000    0.0000000  
H    2.9384091   -0.0000367    0.6389234  
H   -0.0296303   -0.0004086   -4.0327229  
H    2.7280482   -0.0013407   -3.5742119  
C    2.5285572    2.1210227    2.9438989  
C    1.9331703    1.6216660    4.0790748  
C    0.8903039    0.7472258    3.6520102  
C    0.8972198    0.7527806    2.2336141  
N    1.9028376    1.5986179    1.8362361  
C    0.0000000    0.0000000    1.4700000  
C   -0.9207814   -0.7726952    2.1506477  
O   -1.8198395   -1.5274828    1.4542253  
C   -0.9436862   -0.7911793    3.5655508  
O   -1.9197945   -1.6098497    4.0950179  
C   -0.0590329   -0.0485852    4.3195194  
H    2.2150357    1.8593692    5.0905303  
H    2.1533708    1.7953814    0.8841339  
H   -2.3621246   -1.9821033    2.1118817  
H   -1.8668290   -1.5649508    5.0545920  
H   -0.1007624   -0.0827977    5.4019087  
H    3.3491200    2.8096064    2.8367138  
