62

C    5.7988101   -0.7170757   -0.7263996  
C    6.4278151   -0.4675152    0.4713234  
C    7.4952724    0.4388876    0.2000876  
C    7.4680284    0.7093673   -1.1920422  
N    6.4271175   -0.0099533   -1.7246764  
C    8.3807973    1.5666479   -1.8139035  
C    9.3383274    2.1619583   -1.0158303  
O   10.2539593    3.0080860   -1.5714378  
C    9.3819640    1.9043132    0.3750443  
O   10.3942852    2.5722844    1.0325870  
C    8.4819809    1.0584860    0.9891559  
H    6.1519735   -0.8879965    1.4232162  
H    8.3654492    1.7768252   -2.8744655  
H   10.8215162    3.3083315   -0.8496368  
H   10.3533661    2.3434702    1.9661683  
H    8.5402735    0.8802817    2.0565465  
H    4.9525883   -1.3446482   -0.9478029  
C    2.4861703   -0.0045381   -3.7159920  
C    3.4897067   -0.0059400   -2.8011219  
C    4.7313101   -0.0078373   -3.5381785  
C    4.3662424   -0.0073937   -4.9676944  
N    2.9909948   -0.0057669   -5.0074602  
C    5.2594882   -0.0083964   -5.9893676  
C    6.6749005   -0.0102471   -5.6590048  
O    7.5569792   -0.0113198   -6.5076719  
C    7.0843361   -0.0109990   -4.1516341  
O    8.2730123   -0.0128619   -3.8612797  
C    6.0304252   -0.0095082   -3.1401394  
H    3.3734532   -0.0058576   -1.7319639  
H    4.9706902   -0.0079167   -7.0312440  
H    2.4390589   -0.0035503   -5.8455586  
C    0.0000000    0.0000000    0.0000000  
C    1.0521669   -0.0011901   -0.8862341  
C    0.4917220   -0.0011956   -2.1979132  
C   -0.9187428    0.0003148   -2.0478684  
N   -1.1833170   -0.0009411   -0.7007915  
C   -1.7951699    0.0010351   -3.1372091  
C   -1.2375836    0.0005225   -4.4010425  
O   -2.0474210    0.0015361   -5.4997584  
C    0.1673583   -0.0013566   -4.5711960  
O    0.5673528   -0.0020686   -5.8915549  
C    1.0325772   -0.0023411   -3.4969890  
H    2.0953059   -0.0030648   -0.6200562  
H   -2.0989777    0.0102372   -0.2891825  
H   -2.8710931    0.0020419   -3.0295515  
H   -1.4634882    0.0006497   -6.2693594  
H    1.5290713   -0.0033151   -5.9180046  
C    1.0672568    0.0000697    2.3021913  
C    0.0000000    0.0000000    1.4700000  
C   -1.1601224    0.0000736    2.3478473  
C   -0.5938729    0.0000769    3.7138435  
N    0.7113367    0.0001554    3.6934124  
C   -1.4286986    0.0001879    4.8835240  
C   -2.7683114    0.0006799    4.6970523  
O   -3.6653903    0.0008304    5.6976972  
C   -3.3702025    0.0010610    3.3310774  
O   -4.5974910    0.0013779    3.2362962  
C   -2.4926826    0.0008943    2.1470656  
H   -0.9878360   -0.0000190    5.8697035  
H   -4.5324246    0.0012261    5.2533954  
H   -2.9677772    0.0012974    1.1752040  
H    2.1134392    0.0000545    2.0405121  
