60

C   -3.9666550    3.0439077    1.0067384  
C   -4.7553821    3.6891780    1.9308619  
C   -3.8870505    4.4825763    2.7377820  
C   -2.5689488    4.2794872    2.2547814  
N   -2.6528885    3.3990513    1.2048277  
C   -1.4527844    4.9073248    2.8158402  
C   -1.6712501    5.7558668    3.8837470  
O   -0.6167801    6.3950330    4.4690460  
C   -2.9789485    5.9710734    4.3801627  
O   -3.0316878    6.8433831    5.4476992  
C   -4.0805060    5.3518222    3.8273277  
H   -5.8248794    3.5982668    2.0139494  
H   -1.8772748    3.0746390    0.6560466  
H   -0.4455921    4.7566306    2.4524429  
H   -0.9847008    6.9301158    5.1842983  
H   -3.9494629    6.9333131    5.7219351  
H   -5.0699930    5.5360277    4.2291510  
C   -4.3359710    2.1064013   -0.0635825  
C   -5.5644962    1.6417178   -0.4083578  
C   -5.3776814    0.7467246   -1.5259097  
C   -3.9292266    0.7279262   -1.8059385  
N   -3.3543300    1.5729376   -0.8848850  
C   -3.3460097   -0.0004262   -2.7913647  
C   -4.2020389   -0.8203942   -3.6324365  
O   -3.7724535   -1.5121265   -4.5463638  
C   -5.7389979   -0.8155429   -3.3539791  
O   -6.4697255   -1.5017114   -4.0557416  
C   -6.2499652    0.0103534   -2.2628055  
H   -6.4953667    1.8969402    0.0659363  
H   -7.3153181    0.0079806   -2.0764144  
H   -2.3726212    1.7700215   -0.8181562  
C    0.0000000    0.0000000    0.0000000  
C    1.0662919   -0.0000103   -0.8334272  
C    0.4961868    0.0000066   -2.1718889  
C   -0.9663860   -0.0000849   -1.9540248  
N   -1.2632775   -0.0000084   -0.6828659  
C   -1.8985364   -0.0000515   -3.0477258  
C   -1.3925778    0.0004567   -4.3020543  
O   -2.1456385    0.0005412   -5.4151314  
C    0.0786229    0.0009326   -4.5544999  
O    0.4683756    0.0012594   -5.7221104  
C    1.0143162    0.0008443   -3.4159034  
H    2.1107195    0.0000631   -0.5721869  
H   -1.5042277    0.0009692   -6.1484420  
H    2.0724151    0.0013151   -3.6409746  
C    3.1301144    0.0010313    3.1728260  
C    2.5367765    0.0002768    1.9564670  
C    1.1089900   -0.0001027    2.2356185  
C    1.0177864    0.0004150    3.7115134  
N    2.1993570    0.0011613    4.2663826  
C   -0.2459220    0.0002880    4.3957118  
C   -1.3675327    0.0000606    3.6398520  
O   -2.6129319   -0.0000866    4.1448486  
C   -1.3083589   -0.0000910    2.1483229  
O   -2.3693264   -0.0004206    1.5241687  
C    0.0000000    0.0000000    1.4700000  
H    3.0096015    0.0001008    0.9892483  
H   -0.2829642    0.0004689    5.4753125  
H   -3.1967446   -0.0002093    3.3649027  
H    4.1849273    0.0015113    3.3971983  
