60

C    2.4181296    0.0022102   -8.2052051  
C    3.5322102    0.0018743   -7.3981786  
C    4.6697387    0.0020044   -8.2587769  
C    4.1835402    0.0027134   -9.5912703  
N    2.8124405    0.0008705   -9.5227279  
C    5.0290087    0.0033271  -10.7048097  
C    6.3900850    0.0035302  -10.4689099  
O    7.2607287    0.0044760  -11.5200959  
C    6.8944628    0.0024563   -9.1466323  
O    8.2723370    0.0023946   -9.0773095  
C    6.0609748    0.0015772   -8.0476219  
H    3.5258029    0.0004673   -6.3216333  
H    2.1918976    0.0114244  -10.3119022  
H    4.6647265    0.0037249  -11.7228975  
H    8.1485610    0.0041557  -11.1392828  
H    8.5302363    0.0016694   -8.1504374  
H    6.4764285    0.0005822   -7.0466851  
C    0.0950448    0.0004350   -4.4015596  
C    1.1321312    0.0004161   -5.2710605  
C    0.5164646    0.0007452   -6.5891858  
C   -0.9377773    0.0008254   -6.3212975  
N   -1.1909055    0.0007251   -5.0407053  
C   -1.9068835    0.0011807   -7.3823910  
C   -1.4442339    0.0018329   -8.6533312  
O   -2.2350200    0.0022171   -9.7399297  
C    0.0174453    0.0021418   -8.9560775  
O    0.3669305    0.0026142  -10.1363659  
C    0.9916314    0.0017234   -7.8502354  
H    2.1849027    0.0002952   -5.0457879  
H   -2.9634801    0.0010249   -7.1576389  
H   -1.6191320    0.0026801  -10.4948045  
C    3.3321173    0.0004714   -1.3379336  
C    2.6974184    0.0000115   -2.5332313  
C    1.2800437   -0.0002119   -2.2052840  
C    1.2395034    0.0000643   -0.7271298  
N    2.4394063    0.0005459   -0.2131037  
C    0.0000000    0.0000000    0.0000000  
C   -1.1468702    0.0000634   -0.7169544  
O   -2.3742202    0.0000072   -0.1695489  
C   -1.1388770    0.0001606   -2.2096356  
O   -2.2206231    0.0000903   -2.7970412  
C    0.1454523    0.0001814   -2.9324241  
H    3.1367986   -0.0000653   -3.5160949  
H   -2.9844345    0.0001025   -0.9290168  
H    4.3940040    0.0007618   -1.1498638  
C    0.8400945    0.7047457    2.2710304  
C    0.0000000    0.0000000    1.4700000  
C   -0.8844236   -0.7423113    2.3369512  
C   -0.4878984   -0.4098547    3.7186280  
N    0.5629682    0.4714286    3.6095011  
C   -1.0836927   -0.9095027    4.8308716  
C   -2.1891196   -1.8367527    4.6554461  
O   -2.7906899   -2.3413415    5.5944904  
C   -2.6257283   -2.2031529    3.2011665  
O   -3.5549479   -2.9829990    3.0410059  
C   -1.9068976   -1.5999348    2.0816745  
H   -0.7774656   -0.6525820    5.8354244  
H   -2.2155208   -1.8586617    1.0779135  
H    1.6384792    1.3747609    1.9961646  
H    1.0518368    0.8833920    4.3830260  
