60

C    2.9087513   -2.1188238   -7.3933924  
C    3.9900341   -2.9690159   -7.3717689  
C    4.5339207   -2.9845296   -8.6903080  
C    3.7362468   -2.1171521   -9.4798009  
N    2.7573867   -1.6096663   -8.6619337  
C    3.9831421   -1.8885492  -10.8368464  
C    5.0549903   -2.5473291  -11.4072224  
O    5.3412005   -2.3599972  -12.7285864  
C    5.8623148   -3.4170258  -10.6360730  
O    6.8908462   -3.9983996  -11.3484438  
C    5.6191695   -3.6432306   -9.2973285  
H    4.3426633   -3.5121565   -6.5117430  
H    2.0483060   -0.9563396   -8.9418438  
H    3.3788478   -1.2287956  -11.4440991  
H    6.1155952   -2.9048687  -12.9201412  
H    7.3869673   -4.5700852  -10.7546057  
H    6.2547448   -4.3150530   -8.7323721  
C    1.9957412   -2.1407956   -5.0258932  
C    1.9855629   -1.7332343   -6.3163859  
C    0.8551750   -0.8225486   -6.4132063  
C    0.2799734   -0.7963198   -5.0512078  
N    0.9444051   -1.5670717   -4.2336130  
C   -0.8712826    0.0001710   -4.7267111  
C   -1.4226084    0.7372642   -5.7177040  
O   -2.4987598    1.5259551   -5.5567523  
C   -0.8649829    0.7322382   -7.1023305  
O   -1.4179251    1.4273746   -7.9545397  
C    0.3165529   -0.0930928   -7.4101070  
H   -2.6523123    1.9181962   -6.4352288  
H    0.6899768   -0.0690849   -8.4250990  
H    2.6823199   -2.8229906   -4.5502972  
C    1.0965514    0.0001359   -0.8010305  
C    0.0000000    0.0000000    0.0000000  
C   -1.1546563    0.0001470   -0.8669513  
C   -0.6372014    0.0003519   -2.2486282  
N    0.7342871    0.0007337   -2.1395014  
C   -1.4147739    0.0001352   -3.3608717  
C   -2.8576049   -0.0001048   -3.1854462  
O   -3.6427779   -0.0002494   -4.1244907  
C   -3.4275840   -0.0000725   -1.7311666  
O   -4.6406831    0.0000333   -1.5710060  
C   -2.4891867   -0.0001091   -0.6116744  
H   -2.8919122   -0.0002918    0.3920866  
H    2.1388272    0.0000663   -0.5261648  
H    1.3735872   -0.0006099   -2.9130262  
C    0.8681109    0.7263879    2.2709268  
C    0.6127770    0.5096195    3.5869401  
C   -0.4920590   -0.4175482    3.6542670  
C   -0.8620974   -0.7254003    2.2596025  
N    0.0000000    0.0000000    1.4700000  
C   -1.8641242   -1.5660088    1.8976294  
C   -2.6293522   -2.2103885    2.9520183  
O   -3.5512764   -2.9839180    2.7283916  
C   -2.2549728   -1.8987399    4.4361073  
O   -2.8923672   -2.4351063    5.3323774  
C   -1.1543735   -0.9755647    4.7012123  
H    1.1382914    0.9492124    4.4159191  
H   -2.1192137   -1.7782617    0.8686553  
H   -0.9013378   -0.7652422    5.7314848  
H    1.6172880    1.3558399    1.8188057  
