62

C   10.3150860    2.0688921   -1.7127027  
C   11.4982012    1.5577992   -1.2315694  
C   11.1667103    0.6847367   -0.1533878  
C    9.7545047    0.7031889   -0.0220057  
N    9.2688775    1.5550460   -0.9827990  
C    9.0750148   -0.0448085    0.9442151  
C    9.8349621   -0.8258924    1.7930769  
O    9.2225026   -1.5765114    2.7545751  
C   11.2451300   -0.8572805    1.6779282  
O   11.8595874   -1.6830990    2.5965186  
C   11.9161500   -0.1194122    0.7251385  
H   12.4795333    1.7869931   -1.6103174  
H    8.2987580    1.7610567   -1.1390311  
H    9.9256312   -2.0384044    3.2294736  
H   12.8098070   -1.6467872    2.4503413  
H   12.9970902   -0.1635542    0.6611123  
H   10.1348337    2.7604162   -2.5178500  
C    5.7554373   -0.0091491   -2.0505782  
C    6.9923854   -0.0221756   -1.4487010  
C    6.7698802   -0.0218617   -0.0397681  
C    5.3656330   -0.0085417    0.1598300  
N    4.7795901    0.0008674   -1.0815733  
C    4.7823663   -0.0048626    1.4304892  
C    5.6321564   -0.0151181    2.5194934  
O    5.1157424   -0.0124420    3.7829501  
C    7.0359714   -0.0280959    2.3407450  
O    7.7467972   -0.0367933    3.5231131  
C    7.6120764   -0.0314592    1.0875018  
H    7.9386727   -0.0297332   -1.9620009  
H    3.7128509    0.0054157    1.5893381  
H    5.8701760   -0.0205768    4.3862978  
H    8.6857212   -0.0453503    3.3134661  
H    5.4920799   -0.0047651   -3.0944090  
C    3.3321168    0.0004716   -1.3379341  
C    2.6974177    0.0000118   -2.5332316  
C    1.2800432   -0.0002116   -2.2052842  
C    1.2395033    0.0000644   -0.7271298  
N    2.4394059    0.0005460   -0.2131041  
C    0.0000000    0.0000000    0.0000000  
C   -1.1468704    0.0000635   -0.7169542  
O   -2.3742206    0.0000074   -0.1695488  
C   -1.1388774    0.0001608   -2.2096352  
O   -2.2206238    0.0000906   -2.7970409  
C    0.1454514    0.0001818   -2.9324241  
H    3.1367978   -0.0000649   -3.5160956  
H   -2.9844350    0.0001027   -0.9290164  
H    0.1083567    0.0003684   -4.0135594  
C    0.8175213    0.6860729    2.3021913  
C    0.0000000    0.0000000    1.4700000  
C   -0.8887526   -0.7456559    2.3478473  
C   -0.4549825   -0.3816753    3.7138435  
N    0.5448156    0.4573574    3.6934124  
C   -1.0945674   -0.9182058    4.8835240  
C   -2.1210866   -1.7789155    4.6970523  
O   -2.8083856   -2.3554314    5.6976972  
C   -2.5824069   -2.1655116    3.3310774  
O   -3.5227682   -2.9541547    3.2362962  
C   -1.9100805   -1.6015804    2.1470656  
H   -0.7567140   -0.6349833    5.8697035  
H   -3.4728268   -2.9124471    5.2533954  
H   -2.2742832   -1.9066565    1.1752040  
H    1.6189533    1.3585343    2.0405121  
