62

C    3.4087101   -0.7064436   -3.0324172  
C    4.6439231   -0.4554585   -3.5835292  
C    4.4407869    0.4527126   -4.6645291  
C    3.0496381    0.7227526   -4.7254378  
N    2.4521480    0.0014830   -3.7217483  
C    2.4867659    1.5814353   -5.6744523  
C    3.3439020    2.1786251   -6.5782559  
O    2.8473359    3.0261783   -7.5259307  
C    4.7348360    1.9214476   -6.5337634  
O    5.4551834    2.5913534   -7.5010634  
C    5.2907831    1.0742382   -5.5979831  
H    5.5765049   -0.8761479   -3.2484102  
H    1.4272937    1.7912865   -5.7262423  
H    3.6036617    3.3276082   -8.0459079  
H    6.3843599    2.3627319   -7.4012289  
H    6.3597902    0.8964358   -5.5885603  
H    3.1341695   -1.3355410   -2.2030664  
C    0.0000000    0.0000000    0.0000000  
C    1.0662921   -0.0000106   -0.8334269  
C    0.4961870    0.0000059   -2.1718889  
C   -0.9663856   -0.0000854   -1.9540246  
N   -1.2632773   -0.0000087   -0.6828657  
C   -1.8985362   -0.0000522   -3.0477258  
C   -1.3925773    0.0004558   -4.3020541  
O   -2.1456384    0.0005402   -5.4151311  
C    0.0786236    0.0009315   -4.5544999  
O    0.4683762    0.0012578   -5.7221098  
C    1.0143167    0.0008435   -3.4159031  
H    2.1107198    0.0000631   -0.5721865  
H   -1.5042271    0.0009682   -6.1484419  
C   -3.9746082    0.7142904   -1.7986955  
C   -5.3260794    0.4613973   -1.8438321  
C   -5.5426086   -0.4551392   -2.9151285  
C   -4.2757853   -0.7280797   -3.4918331  
N   -3.3460094   -0.0004268   -2.7913647  
C   -4.1093985   -1.5947832   -4.5762352  
C   -5.2424671   -2.1971592   -5.0875832  
O   -5.1370459   -3.0526072   -6.1459358  
C   -6.5152404   -1.9372038   -4.5260776  
O   -7.5452830   -2.6130071   -5.1470821  
C   -6.6801641   -1.0820836   -3.4564534  
H   -6.0651065    0.8862109   -1.1862869  
H   -3.1466335   -1.8068836   -5.0204195  
H   -6.0329163   -3.3565574   -6.3416272  
H   -8.3692675   -2.3820102   -4.7074303  
H   -7.6676354   -0.9023292   -3.0477152  
H   -3.4095043    1.3490481   -1.1378631  
C    1.1319247   -0.0015655    2.2709268  
C    0.7969915   -0.0034943    3.5869401  
C   -0.6453339   -0.0035710    3.6542670  
C   -1.1266833   -0.0015433    2.2596025  
N    0.0000000    0.0000000    1.4700000  
C   -2.4346130   -0.0013964    1.8976294  
C   -3.4350110   -0.0031408    2.9520183  
O   -4.6384611   -0.0030974    2.7283916  
C   -2.9478959   -0.0050506    4.4361073  
O   -3.7809380   -0.0062218    5.3323774  
C   -1.5113823   -0.0053090    4.7012123  
H    1.4821238   -0.0045407    4.4159191  
H   -2.7664565   -0.0000232    0.8686553  
H   -1.1823530   -0.0068408    5.7314848  
H    2.1104316   -0.0009391    1.8188057  
