60

C    4.4533349   -2.1198749   -5.9993889  
C    3.1906110   -1.6588978   -6.2917833  
C    3.3177966   -0.7719512   -7.4016256  
C    4.6930980   -0.7311153   -7.7463048  
N    5.3546360   -1.5592981   -6.8738943  
C    5.1860520    0.0449143   -8.7996624  
C    4.2739915    0.7931193   -9.5183500  
O    4.7012672    1.5683953  -10.5572899  
C    2.8977960    0.7658651   -9.1894746  
O    2.1170343    1.5654262   -9.9984598  
C    2.4108149    0.0007325   -8.1502690  
H    2.2889167   -1.9278635   -5.7687170  
H    6.3421951   -1.7400048   -6.8810598  
H    6.2330927    0.0804907   -9.0673225  
H    3.9155654    2.0006733  -10.9165573  
H    1.2025192    1.4896077   -9.7094671  
H    4.7825635   -2.8030767   -5.2353188  
C   -0.0307354   -0.0004645   -4.4215603  
C    1.0331815   -0.0004860   -5.2580174  
C    0.4592711   -0.0007213   -6.5948515  
C   -1.0026758   -0.0009313   -6.3728279  
N   -1.2959501   -0.0007014   -5.1008297  
C   -1.9379340   -0.0011519   -7.4638729  
C   -1.4355456   -0.0007729   -8.7196356  
O   -2.1917699   -0.0009264   -9.8305658  
C    0.0349312   -0.0001826   -8.9762653  
O    0.4213604    0.0000150  -10.1449796  
C    0.9738597   -0.0000102   -7.8403354  
H    2.0783481   -0.0002676   -4.9997493  
H   -3.0010760   -0.0015090   -7.2724597  
H   -1.5524475   -0.0005388  -10.5656984  
C    3.2573669   -0.0002919   -1.5109381  
C    2.5379467   -0.0001709   -0.3591962  
C    1.1435042    0.0000332   -0.7338501  
C    1.1092607   -0.0000081   -2.2088477  
N    2.4227561    0.0001910   -2.6182614  
C   -0.0265534   -0.0002522   -2.9515663  
C   -1.3003036   -0.0002639   -2.2514981  
O   -2.3786785   -0.0004131   -2.8306428  
C   -1.2877726    0.0000312   -0.6895608  
O   -2.3539957    0.0003306   -0.0892035  
C    0.0000000    0.0000000    0.0000000  
H    2.9384091   -0.0000368    0.6389238  
H    4.3270391   -0.0004764   -1.6439447  
H    2.7280492   -0.0013405   -3.5742114  
C    0.8681109    0.7263879    2.2709268  
C    0.6127770    0.5096195    3.5869401  
C   -0.4920590   -0.4175482    3.6542670  
C   -0.8620974   -0.7254003    2.2596025  
N    0.0000000    0.0000000    1.4700000  
C   -1.8641242   -1.5660088    1.8976294  
C   -2.6293522   -2.2103885    2.9520183  
O   -3.5512764   -2.9839180    2.7283916  
C   -2.2549728   -1.8987399    4.4361073  
O   -2.8923672   -2.4351063    5.3323774  
C   -1.1543735   -0.9755647    4.7012123  
H    1.1382914    0.9492124    4.4159191  
H   -2.1192137   -1.7782617    0.8686553  
H   -0.9013378   -0.7652422    5.7314848  
H    1.6172880    1.3558399    1.8188057  
