64

C    1.0225818   -2.9750236   -9.4323754  
C    0.3046840   -1.9907100   -8.7934572  
C    0.5107515   -0.7836630   -9.5250129  
C    1.3702824   -1.0957328  -10.6093306  
N    1.6634902   -2.4340423  -10.5222958  
C    1.7873097   -0.1418463  -11.5425917  
C    1.3280398    1.1505534  -11.3784219  
O    1.7039714    2.1213199  -12.2612026  
C    0.4701206    1.4815671  -10.3026809  
O    0.0999131    2.8103080  -10.2755409  
C    0.0585240    0.5411041   -9.3814616  
H   -0.2930092   -2.1257940   -7.9082973  
H    2.2445405   -2.9437269  -11.1630621  
H    2.4424138   -0.3732687  -12.3711351  
H    1.2781948    2.9372222  -11.9674643  
H   -0.4784617    2.9495132   -9.5194273  
H    1.1293075   -4.0198735   -9.1960334  
C    0.0796644   -0.6812980   -5.1990241  
C   -0.9736297    0.0040464   -4.6965763  
C   -1.5081916    0.7505043   -5.8250903  
C   -0.6327092    0.3877371   -6.9602179  
N    0.2998665   -0.4513330   -6.5993111  
C   -0.8331622    0.9253257   -8.2777544  
C   -1.8617114    1.7858882   -8.4534059  
O   -2.1648973    2.3633119   -9.6284377  
C   -2.7630768    2.1712712   -7.3277143  
O   -3.6792550    2.9598475   -7.5600632  
C   -2.5367630    1.6062685   -5.9855229  
H   -2.9414838    2.9199431   -9.4381002  
H   -3.2118810    1.9104827   -5.1969164  
H    0.7431974   -1.3540086   -4.6792574  
C    1.1188642    0.0008222   -0.8003808  
C    0.0000000    0.0000000    0.0000000  
C   -1.1323862    0.0008899   -0.8673528  
C   -0.6382663    0.0019679   -2.1969280  
N    0.7324016    0.0038481   -2.1202242  
C   -1.4770914    0.0027318   -3.3154808  
C   -2.8395473    0.0020945   -3.0876857  
O   -3.7039201    0.0024425   -4.1440349  
C   -3.3517868    0.0013931   -1.7684331  
O   -4.7300497    0.0012366   -1.7073121  
C   -2.5248543    0.0009123   -0.6644817  
H    1.3576314   -0.0056167   -2.9057046  
H   -4.5940032    0.0021826   -3.7685128  
H   -4.9934602    0.0007259   -0.7819913  
H   -2.9462577    0.0005603    0.3339659  
H    2.1619895    0.0009355   -0.5342068  
C    0.8576279    0.7185626    2.2703808  
C    0.0000000    0.0000000    1.4700000  
C   -0.8668858   -0.7285659    2.3373528  
C   -0.4876752   -0.4117774    3.6669281  
N    0.5635254    0.4678311    3.5902241  
C   -1.1297612   -0.9515493    4.7854808  
C   -2.1738724   -1.8268314    4.5576857  
O   -2.8357962   -2.3827064    5.6140350  
C   -2.5667212   -2.1555554    3.2384331  
O   -3.6226318   -3.0413663    3.1773122  
C   -1.9335634   -1.6236449    2.1344818  
H    1.0363952    0.8769718    4.3757045  
H   -0.8454472   -0.7142436    5.8013813  
H   -3.5178062   -2.9546422    5.2385129  
H   -3.8247440   -3.2102924    2.2519915  
H   -2.2566033   -1.8942483    1.1360343  
H    1.6567807    1.3889844    2.0042067  
