60

C   -8.3542001    2.9818622   -1.6461574  
C   -7.6011418    1.9971205   -2.2425262  
C   -8.3581600    0.7905726   -2.1665877  
C   -9.5748806    1.1033738   -1.5080498  
N   -9.5391035    2.4416191   -1.2040149  
C  -10.5669569    0.1501216   -1.2592882  
C  -10.3265085   -1.1423841   -1.6833062  
O  -11.2617546   -2.1125504   -1.4662670  
C   -9.1185259   -1.4741233   -2.3417467  
O   -9.0285001   -2.8028777   -2.7018168  
C   -8.1392607   -0.5342864   -2.5872496  
H   -6.6256635    2.1316062   -2.6776664  
H  -10.2705726    2.9517350   -0.7428038  
H  -11.4963854    0.3821027   -0.7577413  
H  -10.8991873   -2.9286477   -1.8347692  
H   -8.1836465   -2.9425929   -3.1403428  
H   -8.1392409    4.0265484   -1.4999295  
C   -4.0230209    0.6852479   -1.8410563  
C   -3.3460097   -0.0004262   -2.7913647  
C   -4.3652413   -0.7461028   -3.5136062  
C   -5.6347339   -0.3825697   -2.8481619  
N   -5.4404329    0.4562398   -1.8670220  
C   -6.8979172   -0.9192523   -3.2741031  
C   -6.8931417   -1.7796796   -4.3176431  
O   -7.9981918   -2.3562940   -4.8200577  
C   -5.6284700   -2.1658224   -5.0102181  
O   -5.6989691   -2.9542263   -5.9529106  
C   -4.3454709   -1.6017428   -4.5545287  
H   -7.6764566   -2.9130446   -5.5519506  
H   -3.4519528   -1.9064880   -5.0827208  
H   -3.6257277    1.3575928   -1.0973603  
C    0.0000000    0.0000000    0.0000000  
C    1.0662919   -0.0000103   -0.8334272  
C    0.4961868    0.0000066   -2.1718889  
C   -0.9663860   -0.0000849   -1.9540248  
N   -1.2632775   -0.0000084   -0.6828659  
C   -1.8985364   -0.0000515   -3.0477258  
C   -1.3925778    0.0004567   -4.3020543  
O   -2.1456385    0.0005412   -5.4151314  
C    0.0786229    0.0009326   -4.5544999  
O    0.4683756    0.0012594   -5.7221104  
C    1.0143162    0.0008443   -3.4159034  
H    2.1107195    0.0000631   -0.5721869  
H   -1.5042277    0.0009692   -6.1484420  
H    2.0724151    0.0013151   -3.6409746  
C    3.3321173   -0.0004715    2.8079335  
C    2.6974184   -0.0000116    4.0032312  
C    1.2800439    0.0002118    3.6752840  
C    1.2395035   -0.0000644    2.1971295  
N    2.4394063   -0.0005460    1.6831036  
C    0.0000000    0.0000000    1.4700000  
C   -1.1468701   -0.0000635    2.1869543  
O   -2.3742202   -0.0000073    1.6395491  
C   -1.1388768   -0.0001607    3.6796354  
O   -2.2206231   -0.0000905    4.2670412  
C    0.1454524   -0.0001816    4.4024240  
H    3.1367986    0.0000651    4.9860947  
H   -2.9844344   -0.0001026    2.3990168  
H    0.1083576   -0.0003682    5.4835595  
H    4.3940039   -0.0007619    2.6198634  
