64

C   -0.1387077    0.0017021   -4.3179690  
C    0.8680295    0.0011955   -5.2554908  
C    0.2429722    0.0018233   -6.5376383  
C   -1.1582725    0.0029979   -6.3175531  
N   -1.3554488    0.0009415   -4.9589754  
C   -2.0878500    0.0041707   -7.3619062  
C   -1.5938803    0.0044645   -8.6519339  
O   -2.4574176    0.0059478   -9.7089647  
C   -0.1991525    0.0029316   -8.8918279  
O    0.1346063    0.0030294  -10.2304648  
C    0.7184771    0.0015010   -7.8620321  
H    1.9231277   -0.0006417   -5.0415808  
H   -2.2494818    0.0117259   -4.5022808  
H   -1.9125267    0.0055962  -10.5066862  
H    1.0938155    0.0019694  -10.3047653  
H    1.7807474    0.0001630   -8.0766450  
C    3.3041276    0.0001179   -1.5420426  
C    2.5845371   -0.0004779   -0.3695857  
C    1.2040009   -0.0000006   -0.7283589  
C    1.1422378    0.0006039   -2.1454371  
N    2.4348645    0.0026112   -2.6077465  
C   -0.0655179    0.0008800   -2.8497922  
C   -1.2321765    0.0002327   -2.1101402  
O   -2.4392813    0.0001149   -2.7472526  
C   -1.1911209   -0.0000006   -0.6955274  
O   -2.4371527   -0.0002319   -0.1032865  
C    0.0000000    0.0000000    0.0000000  
H    3.0031534   -0.0000661    0.6222584  
H    2.7054636   -0.0071095   -3.5745261  
H   -3.1132983   -0.0000647   -2.0551788  
H   -2.3200284   -0.0004071    0.8516403  
H    4.3686627    0.0004072   -1.7024293  
C   -4.6205329    2.1257390   -4.4219495  
C   -5.8321306    1.6275295   -4.8418132  
C   -5.5658811    0.7534135   -5.9370905  
C   -4.1622806    0.7579745   -6.1415653  
N   -3.6188596    1.6029346   -5.2059617  
C   -3.5414443    0.0051964   -7.1429023  
C   -4.3522772   -0.7664746   -7.9523786  
O   -3.7981582   -1.5212116   -8.9455234  
C   -5.7548162   -0.7839578   -7.7642408  
O   -6.4244343   -1.6016764   -8.6509721  
C   -6.3679948   -0.0413654   -6.7767721  
H   -6.7901199    1.8657703   -4.4122889  
H   -2.6399052    1.7988844   -5.0999754  
H   -4.5296198   -1.9750498   -9.3839989  
H   -7.3653735   -1.5561396   -8.4556167  
H   -7.4445478   -0.0747978   -6.6567956  
H   -4.3917588    2.8137583   -3.6261791  
C    2.3971438    2.0127888    3.1728260  
C    1.9431056    1.6308205    1.9564670  
C    0.8496017    0.7127664    2.2356185  
C    0.7794028    0.6545384    3.7115134  
N    1.6840587    1.4146091    4.2663826  
C   -0.1885723   -0.1578550    4.3957118  
C   -1.0476298   -0.8789867    3.6398520  
O   -2.0015663   -1.6796266    4.1448486  
C   -1.0022026   -0.8410666    2.1483229  
O   -1.8147390   -1.5232959    1.5241687  
C    0.0000000    0.0000000    1.4700000  
H    2.3054237    1.9346118    0.9892483  
H   -0.2170646   -0.1815267    5.4753125  
H   -2.4487139   -2.0549881    3.3649027  
H    3.2048689    2.6911772    3.3971983  
