64

C   -0.1581093    0.0916583   -8.7133673  
C    0.5800723   -0.5557965   -9.6768804  
C    0.0580295   -0.1532469  -10.9418010  
C   -1.0063193    0.7484711  -10.6849118  
N   -1.1119919    0.8734257   -9.3218873  
C   -1.7529676    1.3471723  -11.7041583  
C   -1.4188821    1.0300482  -13.0064626  
O   -2.1152119    1.5865324  -14.0401274  
C   -0.3604316    0.1322490  -13.2829691  
O   -0.1507800   -0.0820180  -14.6296246  
C    0.3764058   -0.4589661  -12.2779512  
H    1.3939028   -1.2355602   -9.4908851  
H   -1.7737829    1.4563786   -8.8421176  
H   -2.5654517    2.0351267  -11.5149729  
H   -1.7256793    1.2360917  -14.8517435  
H    0.5802640   -0.6994898  -14.7291576  
H    1.1813528   -1.1428844  -12.5204270  
C    2.5715460   -2.1234228   -6.0298477  
C    2.0605230   -1.6614590   -4.8390866  
C    0.9917285   -0.7734885   -5.1612467  
C    0.8962445   -0.7330737   -6.5758760  
N    1.8711847   -1.5624824   -7.0720513  
C   -0.0522657    0.0437219   -7.2479663  
C   -0.9203935    0.7931399   -6.4779637  
O   -1.8663530    1.5692041   -7.0828604  
C   -0.8406070    0.7663227   -5.0652602  
O   -1.7742822    1.5671136   -4.4404977  
C    0.0950446    0.0004351   -4.4015596  
H    2.4152486   -1.9304417   -3.8588769  
H    2.0389303   -1.7437287   -8.0451867  
H   -2.3586954    2.0022707   -6.3734118  
H   -1.6519909    1.4915159   -3.4892176  
H    3.3811323   -2.8075604   -6.2182240  
C    3.3321173    0.0004713   -1.3379338  
C    2.6974181    0.0000116   -2.5332314  
C    1.2800438   -0.0002119   -2.2052841  
C    1.2395034    0.0000643   -0.7271299  
N    2.4394062    0.0005460   -0.2131038  
C    0.0000000    0.0000000    0.0000000  
C   -1.1468702    0.0000634   -0.7169543  
O   -2.3742203    0.0000074   -0.1695487  
C   -1.1388770    0.0001607   -2.2096355  
O   -2.2206234    0.0000905   -2.7970411  
C    0.1454522    0.0001815   -2.9324241  
H    3.1367984   -0.0000653   -3.5160950  
H   -2.9844346    0.0001026   -0.9290167  
H    4.3940038    0.0007618   -1.1498640  
C    0.8576279    0.7185626    2.2703808  
C    0.0000000    0.0000000    1.4700000  
C   -0.8668858   -0.7285659    2.3373528  
C   -0.4876752   -0.4117774    3.6669281  
N    0.5635254    0.4678311    3.5902241  
C   -1.1297612   -0.9515493    4.7854808  
C   -2.1738724   -1.8268314    4.5576857  
O   -2.8357962   -2.3827064    5.6140350  
C   -2.5667212   -2.1555554    3.2384331  
O   -3.6226318   -3.0413663    3.1773122  
C   -1.9335634   -1.6236449    2.1344818  
H    1.0363952    0.8769718    4.3757045  
H   -0.8454472   -0.7142436    5.8013813  
H   -3.5178062   -2.9546422    5.2385129  
H   -3.8247440   -3.2102924    2.2519915  
H   -2.2566033   -1.8942483    1.1360343  
H    1.6567807    1.3889844    2.0042067  
