60

C    7.6009845   -1.1072813   -4.5889551  
C    8.8819603   -0.7310154   -4.9206080  
C    8.8503835    0.6715393   -5.1783732  
C    7.5119271    1.0999880   -4.9863013  
N    6.7792935   -0.0052810   -4.6309911  
C    7.1117120    2.4289865   -5.1547664  
C    8.0803659    3.3421578   -5.5235543  
O    7.7442481    4.6530529   -5.7012926  
C    9.4210609    2.9339192   -5.7202685  
O   10.2668399    3.9607624   -6.0857757  
C    9.8165427    1.6229481   -5.5545144  
H    9.7340791   -1.3869730   -4.9716668  
H    6.0931699    2.7618969   -5.0100444  
H    8.5564728    5.1114610   -5.9531224  
H   11.1517376    3.6004119   -6.1984993  
H   10.8506948    1.3399871   -5.7124424  
H    7.2081620   -2.0748038   -4.3271376  
C    4.3939404   -2.1065671   -1.5664977  
C    5.4031210   -1.6413498   -2.3470119  
C    4.8103418   -0.7457939   -3.3121170  
C    3.3627144   -0.7272474   -3.0278282  
N    3.1757280   -1.5729268   -1.9588325  
C    2.4521483    0.0014840   -3.7217481  
C    2.9297304    0.8221548   -4.8221798  
O    2.1884029    1.5142697   -5.5075343  
C    4.4587975    0.8175813   -5.1411452  
O    4.8725556    1.5043408   -6.0654968  
C    5.3421068   -0.0087723   -4.3221481  
H    6.4439787   -1.8965723   -2.2570666  
H    4.4376455   -2.7945224   -0.7378255  
H    2.2909014   -1.7703225   -1.5285253  
C    0.0000000    0.0000000    0.0000000  
C    1.0662923   -0.0000101   -0.8334270  
C    0.4961873    0.0000065   -2.1718887  
C   -0.9663854   -0.0000848   -1.9540250  
N   -1.2632773   -0.0000083   -0.6828660  
C   -1.8985359   -0.0000514   -3.0477261  
C   -1.3925770    0.0004566   -4.3020547  
O   -2.1456378    0.0005414   -5.4151314  
C    0.0786240    0.0009326   -4.5545000  
O    0.4683767    0.0012591   -5.7221100  
C    1.0143171    0.0008444   -3.4159031  
H    2.1107200    0.0000633   -0.5721865  
H   -2.9622181   -0.0003268   -2.8593381  
H   -1.5042265    0.0009697   -6.1484419  
C    1.1319247   -0.0015655    2.2709268  
C    0.7969915   -0.0034943    3.5869401  
C   -0.6453339   -0.0035710    3.6542670  
C   -1.1266833   -0.0015433    2.2596025  
N    0.0000000    0.0000000    1.4700000  
C   -2.4346130   -0.0013964    1.8976294  
C   -3.4350110   -0.0031408    2.9520183  
O   -4.6384611   -0.0030974    2.7283916  
C   -2.9478959   -0.0050506    4.4361073  
O   -3.7809380   -0.0062218    5.3323774  
C   -1.5113823   -0.0053090    4.7012123  
H    1.4821238   -0.0045407    4.4159191  
H   -2.7664565   -0.0000232    0.8686553  
H   -1.1823530   -0.0068408    5.7314848  
H    2.1104316   -0.0009391    1.8188057  
