64

C    5.0097437   -1.1138029   -8.8271529  
C    4.5514026   -0.0133213   -8.1406172  
C    4.6603225    1.1025935   -9.0223600  
C    5.1957923    0.6177826  -10.2430792  
N    5.3980805   -0.7313664  -10.0898030  
C    5.4386829    1.4449447  -11.3438050  
C    5.1352126    2.7858951  -11.2098829  
O    5.3523113    3.6380670  -12.2537618  
C    4.6006100    3.2886212   -9.9998071  
O    4.3517282    4.6453989  -10.0233640  
C    4.3609871    2.4732333   -8.9134140  
H    5.7601935   -1.3476959  -10.7947805  
H    5.8467644    1.0816363  -12.2769072  
H    5.0770017    4.5138803  -11.9530641  
H    3.9925967    4.9036218   -9.1689936  
H    3.9509732    2.8869446   -7.9995165  
H    5.0917103   -2.1410098   -8.5155659  
C    5.8841830   -2.1091710   -4.4899266  
C    5.7577999   -1.6457874   -5.7601149  
C    4.6250714   -0.7504404   -5.7708525  
C    4.0981360   -0.7300181   -4.3929152  
N    4.9052813   -1.5745223   -3.6661288  
C    3.0267438   -0.0008951   -3.9901699  
C    2.3471070    0.8182472   -4.9799347  
O    1.3727581    1.5105721   -4.7160578  
C    2.8878460    0.8116753   -6.4453235  
O    2.3236393    1.4971367   -7.2873889  
C    4.0508243   -0.0149263   -6.7584743  
H    6.3862355   -1.9020926   -6.5943749  
H    6.6099530   -2.7964262   -4.0864073  
H    4.8007128   -1.7705398   -2.6875124  
C    3.3003547    0.0005277   -1.4738986  
C    2.5232816    0.0003497   -2.6090746  
C    1.1623203   -0.0001319   -2.1820102  
C    1.1711884    0.0000584   -0.7636141  
N    2.4852301   -0.0014919   -0.3662359  
C    0.0000000    0.0000000    0.0000000  
C   -1.2020383    0.0000520   -0.6806479  
O   -2.3759248    0.0003493    0.0157745  
C   -1.2314655   -0.0005115   -2.0955511  
O   -2.5054388   -0.0008040   -2.6250184  
C   -0.0764513   -0.0007274   -2.8495195  
H    2.8036266    0.0088183    0.5858662  
H   -3.0835639    0.0000346   -0.6418822  
H   -2.4360043   -0.0011529   -3.5845924  
H   -0.1304091   -0.0013423   -3.9319089  
H    4.3715553    0.0004897   -1.3667133  
C    2.5285572    2.1210227    2.9438989  
C    1.9331703    1.6216660    4.0790748  
C    0.8903039    0.7472258    3.6520102  
C    0.8972198    0.7527806    2.2336141  
N    1.9028376    1.5986179    1.8362361  
C    0.0000000    0.0000000    1.4700000  
C   -0.9207814   -0.7726952    2.1506477  
O   -1.8198395   -1.5274828    1.4542253  
C   -0.9436862   -0.7911793    3.5655508  
O   -1.9197945   -1.6098497    4.0950179  
C   -0.0590329   -0.0485852    4.3195194  
H    2.2150357    1.8593692    5.0905303  
H    2.1533708    1.7953814    0.8841339  
H   -2.3621246   -1.9821033    2.1118817  
H   -1.8668290   -1.5649508    5.0545920  
H   -0.1007624   -0.0827977    5.4019087  
H    3.3491200    2.8096064    2.8367138  
