62

C    7.4473730   -2.1264951   -3.8937173  
C    6.3971235   -1.6651617   -4.6530684  
C    6.9454582   -0.7800883   -5.6280423  
C    8.3469342   -0.7407101   -5.4130077  
N    8.6177827   -1.5679196   -4.3514131  
C    9.2104485    0.0332975   -6.1940602  
C    8.6489898    0.7809416   -7.2109035  
O    9.4463677    1.5542620   -8.0041096  
C    7.2528284    0.7551201   -7.4408702  
O    6.8474596    1.5538886   -8.4901500  
C    6.4003169   -0.0080173   -6.6705639  
H    5.3628707   -1.9326926   -4.5198744  
H    9.5307638   -1.7492854   -3.9751790  
H   10.2794568    0.0677557   -6.0351966  
H    8.8617570    1.9864758   -8.6402586  
H    5.8923124    1.4791354   -8.5779523  
H    7.4540210   -2.8086804   -3.0609278  
C    2.8699641   -0.0020527   -4.0185824  
C    4.1345929   -0.0036612   -4.5133415  
C    4.0234321   -0.0055085   -5.9529508  
C    2.5800295   -0.0048103   -6.2585307  
N    1.9354846   -0.0030990   -5.0430271  
C    2.0594335   -0.0056967   -7.5117997  
C    2.9823235   -0.0076817   -8.6346561  
O    2.6119087   -0.0086656   -9.8013149  
C    4.5151780   -0.0087033   -8.3343880  
O    5.3018074   -0.0106812   -9.2716564  
C    4.9555130   -0.0073181   -6.9415653  
H    5.0417776   -0.0037471   -3.9357352  
H    0.9973748   -0.0050302   -7.7141396  
H    0.9396388   -0.0007141   -4.9192032  
C    3.2573673   -0.0002921   -1.5109381  
C    2.5379469   -0.0001710   -0.3591962  
C    1.1435042    0.0000332   -0.7338498  
C    1.1092607   -0.0000083   -2.2088474  
N    2.4227562    0.0001908   -2.6182610  
C   -0.0265532   -0.0002523   -2.9515663  
C   -1.3003033   -0.0002639   -2.2514979  
O   -2.3786784   -0.0004132   -2.8306425  
C   -1.2877726    0.0000312   -0.6895609  
O   -2.3539956    0.0003308   -0.0892035  
C    0.0000000    0.0000000    0.0000000  
H    2.9384091   -0.0000368    0.6389240  
H   -0.0296292   -0.0004086   -4.0327231  
H    4.3270395   -0.0004765   -1.6439444  
C    2.5285572    2.1210227    2.9438989  
C    1.9331703    1.6216660    4.0790748  
C    0.8903039    0.7472258    3.6520102  
C    0.8972198    0.7527806    2.2336141  
N    1.9028376    1.5986179    1.8362361  
C    0.0000000    0.0000000    1.4700000  
C   -0.9207814   -0.7726952    2.1506477  
O   -1.8198395   -1.5274828    1.4542253  
C   -0.9436862   -0.7911793    3.5655508  
O   -1.9197945   -1.6098497    4.0950179  
C   -0.0590329   -0.0485852    4.3195194  
H    2.2150357    1.8593692    5.0905303  
H    2.1533708    1.7953814    0.8841339  
H   -2.3621246   -1.9821033    2.1118817  
H   -1.8668290   -1.5649508    5.0545920  
H   -0.1007624   -0.0827977    5.4019087  
H    3.3491200    2.8096064    2.8367138  
