64

C    3.0101949    1.7471393   -2.9866277  
C    1.8467206    1.6645382   -3.7159920  
C    1.9001411    2.6929357   -4.7029798  
C    3.1303994    3.3763190   -4.5258410  
N    3.7790207    2.7778959   -3.4742721  
C    3.5194902    4.4534591   -5.3278179  
C    2.6509540    4.8477186   -6.3270088  
O    2.9813985    5.8936286   -7.1393464  
C    1.4187797    4.1786652   -6.5191800  
O    0.6642805    4.6899431   -7.5548779  
C    1.0341614    3.1161368   -5.7282134  
H    4.6819244    3.0417652   -3.1233889  
H    2.2474516    6.0011536   -7.7582365  
H   -0.1505894    4.1822710   -7.6170077  
H    0.0841719    2.6233954   -5.8991048  
H    3.3518139    1.1532637   -2.1562262  
C    0.0000000    0.0000000    0.0000000  
C    0.7810571    0.7049876   -0.8862340  
C    0.3654495    0.3289968   -2.1979133  
C   -0.6815263   -0.6161246   -2.0478686  
N   -0.8768845   -0.7945523   -0.7007912  
C   -1.3319444   -1.2035615   -3.1372092  
C   -0.9181097   -0.8298721   -4.4010425  
O   -1.5193435   -1.3724177   -5.4997579  
C    0.1250177    0.1112708   -4.5711966  
O    0.4221203    0.3790884   -5.8915552  
C    0.7673015    0.6909921   -3.4969890  
H    1.5558779    1.4034102   -0.6200564  
H   -1.5634131   -1.4005541   -0.2891825  
H   -2.1304953   -1.9246216   -3.0295516  
H   -1.0857196   -0.9813305   -6.2693595  
H    1.1361411    1.0233546   -5.9180048  
C    7.6564973    3.0458846   -4.3825319  
C    6.3084348    3.1015471   -4.6510391  
C    5.9801116    4.4751495   -4.8510895  
C    7.1783876    5.2170759   -4.6910657  
N    8.1764876    4.3188479   -4.4054082  
C    7.2292815    6.6083913   -4.8192808  
C    6.0490811    7.2626262   -5.1147148  
O    6.0421290    8.6206816   -5.2512824  
C    4.8432860    6.5399226   -5.2777342  
O    3.7539104    7.3347429   -5.5690509  
C    4.7922854    5.1673723   -5.1511233  
H    5.6432958    2.2562282   -4.6959778  
H    9.1406452    4.5523466   -4.2509416  
H    8.1393282    7.1797054   -4.6983803  
H    5.1310171    8.8700950   -5.4535973  
H    2.9813252    6.7692108   -5.6633341  
H    8.2879503    2.1990096   -4.1750982  
C    3.1301144    0.0010313    3.1728260  
C    2.5367765    0.0002768    1.9564670  
C    1.1089900   -0.0001027    2.2356185  
C    1.0177864    0.0004150    3.7115134  
N    2.1993570    0.0011613    4.2663826  
C   -0.2459220    0.0002880    4.3957118  
C   -1.3675327    0.0000606    3.6398520  
O   -2.6129319   -0.0000866    4.1448486  
C   -1.3083589   -0.0000910    2.1483229  
O   -2.3693264   -0.0004206    1.5241687  
C    0.0000000    0.0000000    1.4700000  
H    3.0096015    0.0001008    0.9892483  
H   -0.2829642    0.0004689    5.4753125  
H   -3.1967446   -0.0002093    3.3649027  
H    4.1849273    0.0015113    3.3971983  
