62

C    6.8064685    0.0000404   -4.0743115  
C    7.7887309    0.0006880   -3.1111770  
C    7.1308653    0.0013418   -1.8455495  
C    5.7357517    0.0007678   -2.1016435  
N    5.5736262    0.0019338   -3.4648498  
C    4.7795897    0.0008677   -1.0815734  
C    5.2401781    0.0012527    0.2207462  
O    4.3497074    0.0010154    1.2551913  
C    6.6282667    0.0022032    0.4964749  
O    6.9274451    0.0029070    1.8432619  
C    7.5721097    0.0023784   -0.5093511  
H    8.8489888    0.0017942   -3.2978485  
H    4.6916428   -0.0086999   -3.9444066  
H    4.8738769    0.0016566    2.0666778  
H    7.8844229    0.0034998    1.9422367  
H    8.6285026    0.0032962   -0.2674566  
H    6.8877375   -0.0001765   -5.1477887  
C    3.3321166    0.0004717   -1.3379342  
C    2.6974176    0.0000121   -2.5332317  
C    1.2800432   -0.0002115   -2.2052842  
C    1.2395033    0.0000645   -0.7271297  
N    2.4394059    0.0005461   -0.2131042  
C    0.0000000    0.0000000    0.0000000  
C   -1.1468704    0.0000636   -0.7169540  
O   -2.3742206    0.0000073   -0.1695488  
C   -1.1388774    0.0001610   -2.2096351  
O   -2.2206238    0.0000908   -2.7970408  
C    0.1454514    0.0001820   -2.9324241  
H    3.1367977   -0.0000646   -3.5160953  
H   -2.9844351    0.0001027   -0.9290163  
C    0.8834460   -0.6856105   -5.2614100  
C    0.0950440    0.0004357   -4.4015596  
C   -0.8231769    0.7463701   -5.2482896  
C   -0.4365571    0.3825632   -6.6284178  
N    0.5632287   -0.4566160   -6.6424232  
C   -1.1157953    0.9193870   -7.7753883  
C   -2.1351884    1.7802113   -7.5536826  
O   -2.8563103    2.3569979   -8.5300742  
C   -2.5493397    2.1666375   -6.1726268  
O   -3.4857805    2.9553987   -6.0455238  
C   -1.8368920    1.6024060   -5.0124608  
H   -0.8119995    0.6362863   -8.7726204  
H   -3.5050423    2.9140321   -8.0631564  
H   -2.1675091    1.9073665   -4.0286306  
H    1.6932798   -1.3582316   -5.0274786  
C    2.5311839    2.1237619    3.0120429  
C    1.9795631    1.6616747    1.8395852  
C    0.9223175    0.7739173    2.1983588  
C    0.8753926    0.7337535    3.6154372  
N    1.8668922    1.5631002    4.0777464  
C   -0.0496243   -0.0427881    4.3197917  
C   -0.9437528   -0.7922060    3.5801400  
O   -1.8685244   -1.5680278    4.2172520  
C   -0.9124520   -0.7656372    2.1655264  
O   -1.8671164   -1.5663939    1.5732860  
C    0.0000000    0.0000000    1.4700000  
H    2.3005065    1.9304404    0.8477417  
H    2.0679347    1.7444845    5.0445261  
H   -0.0904770   -0.0778569    5.3997470  
H   -2.3849669   -2.0011402    3.5251786  
H   -1.7775064   -1.4909735    0.6183591  
H    3.3468514    2.8078103    3.1724291  
