60

C   -0.0224502    0.0204229   -8.8430954  
C    0.7783799   -0.6549897   -9.7346987  
C    0.3422725   -0.2923945  -11.0434897  
C   -0.7366334    0.6148861  -10.8862323  
N   -0.9332539    0.7814384   -9.5378193  
C   -1.4132303    1.1806820  -11.9710737  
C   -0.9928256    0.8243224  -13.2377405  
O   -1.6182636    1.3475683  -14.3322971  
C    0.0815091   -0.0796540  -13.4150784  
O    0.3807553   -0.3347884  -14.7374622  
C    0.7492713   -0.6384216  -12.3453123  
H    1.5777508   -1.3272709   -9.4738594  
H   -1.6255085    1.3776648   -9.1215519  
H   -2.2363640    1.8726706  -11.8579140  
H   -1.1753842    0.9730711  -15.1048745  
H    1.1166512   -0.9537206  -14.7688314  
H    1.5684525   -1.3280253  -12.5122470  
C    2.5049804   -2.0931563   -5.9399565  
C    1.9571818   -1.6308520   -4.7865848  
C    0.8879545   -0.7344212   -5.1580690  
C    0.8574975   -0.7122317   -6.6329831  
N    1.8627392   -1.5562152   -7.0453796  
C   -0.0149278    0.0176859   -7.3731171  
C   -0.9887730    0.8362264   -6.6701578  
O   -1.8166674    1.5292765   -7.2468494  
C   -0.9745396    0.8281736   -5.1082557  
O   -1.7894805    1.5135873   -4.5054785  
C    0.0139741    0.0003876   -4.4216236  
H    2.2669048   -1.8882737   -3.7893789  
H    3.3239674   -2.7807663   -6.0753927  
H    2.0929225   -1.7534652   -8.0020166  
C    3.2798085    0.0005853   -1.4499648  
C    2.5571144    0.0005562   -2.5996554  
C    1.1637436    0.0001546   -2.2210360  
C    1.1336965   -0.0000201   -0.7459470  
N    2.4483513   -0.0001430   -0.3402717  
C    0.0000000    0.0000000    0.0000000  
C   -1.2757367   -0.0000188   -0.6964414  
O   -2.3524597   -0.0000640   -0.1142313  
C   -1.2676494   -0.0000875   -2.2584081  
O   -2.3355762   -0.0004102   -2.8557294  
C    0.0181562    0.0001757   -2.9516296  
H    2.9547357    0.0006072   -3.5989105  
H    4.3498550    0.0008609   -1.3200021  
H    2.7563627    0.0012824    0.6148063  
C    2.4951002    2.0940188    2.9809380  
C    1.9440701    1.6314916    1.8291961  
C    0.8759964    0.7350050    2.2038498  
C    0.8497377    0.7130254    3.6788474  
N    1.8560616    1.5571714    4.0882609  
C   -0.0205033   -0.0168748    4.4215661  
C   -0.9962600   -0.8356168    3.7214979  
O   -1.8224391   -1.5286685    4.3006425  
C   -0.9864710   -0.8277881    2.1595606  
O   -1.8030528   -1.5133726    1.5592035  
C    0.0000000    0.0000000    1.4700000  
H    2.2509283    1.8888011    0.8310761  
H   -0.0229599   -0.0187323    5.5027230  
H    3.3143982    2.7817323    3.1139444  
H    2.0889452    1.7545833    5.0442112  
