62

C    9.3262642    0.0016990    0.1620907  
C    9.9148982    0.0032273   -1.0812817  
C   11.3261275    0.0036593   -0.8738412  
C   11.5407107    0.0020484    0.5282563  
N   10.3056331    0.0028370    1.1275878  
C   12.8175279    0.0016680    1.0979284  
C   13.8973961    0.0026298    0.2364989  
O   15.1662978    0.0019615    0.7393927  
C   13.7036655    0.0046158   -1.1653861  
O   14.8783764    0.0057909   -1.8888475  
C   12.4443401    0.0052654   -1.7280797  
H    9.3915193    0.0050481   -2.0220602  
H   10.1411273   -0.0085133    2.1179363  
H   12.9877896    0.0005868    2.1657362  
H   15.7615550    0.0031299   -0.0214838  
H   14.6587141    0.0070801   -2.8255173  
H   12.3271909    0.0069775   -2.8054617  
C    5.6664805    0.0014066   -2.2647026  
C    4.7390840    0.0009613   -1.2727298  
C    5.4604955    0.0006395   -0.0219696  
C    6.8944818    0.0009653   -0.3690625  
N    6.9515101    0.0010263   -1.7437034  
C    7.9048605    0.0011992    0.5369396  
C    7.5567542    0.0008992    1.9480942  
O    8.3942809    0.0010141    2.8407589  
C    6.0443622    0.0002997    2.3385743  
O    5.7391077   -0.0002635    3.5235130  
C    5.0461778    0.0003722    1.2720468  
H    4.0011833    0.0001603    1.5508121  
H    5.5192859    0.0017637   -3.3325148  
H    7.7964707    0.0027871   -2.2850761  
C    3.2798077    0.0005856   -1.4499661  
C    2.5571132    0.0005565   -2.5996564  
C    1.1637425    0.0001547   -2.2210366  
C    1.1336959   -0.0000200   -0.7459475  
N    2.4483509   -0.0001429   -0.3402730  
C    0.0000000    0.0000000    0.0000000  
C   -1.2757370   -0.0000187   -0.6964411  
O   -2.3524597   -0.0000640   -0.1142306  
C   -1.2676502   -0.0000874   -2.2584078  
O   -2.3355774   -0.0004102   -2.8557287  
C    0.0181551    0.0001758   -2.9516297  
H    2.9547342    0.0006074   -3.5989118  
H    0.0150776    0.0003317   -4.0331632  
H    2.7563626    0.0012823    0.6148051  
C    2.5311839    2.1237619    3.0120429  
C    1.9795631    1.6616747    1.8395852  
C    0.9223175    0.7739173    2.1983588  
C    0.8753926    0.7337535    3.6154372  
N    1.8668922    1.5631002    4.0777464  
C   -0.0496243   -0.0427881    4.3197917  
C   -0.9437528   -0.7922060    3.5801400  
O   -1.8685244   -1.5680278    4.2172520  
C   -0.9124520   -0.7656372    2.1655264  
O   -1.8671164   -1.5663939    1.5732860  
C    0.0000000    0.0000000    1.4700000  
H    2.3005065    1.9304404    0.8477417  
H    2.0679347    1.7444845    5.0445261  
H   -0.0904770   -0.0778569    5.3997470  
H   -2.3849669   -2.0011402    3.5251786  
H   -1.7775064   -1.4909735    0.6183591  
H    3.3468514    2.8078103    3.1724291  
