62

C    0.9539739    0.0203357   -8.8018334  
C    2.0504416   -0.6549135   -9.2858426  
C    2.1902941   -0.2923214  -10.6582737  
C    1.1418556    0.6147891  -10.9580286  
N    0.4087476    0.7812470   -9.8093506  
C    0.9704275    1.1805350  -12.2250461  
C    1.8740295    0.8242996  -13.2072765  
O    1.7532432    1.3475036  -14.4621395  
C    2.9265472   -0.0795065  -12.9277076  
O    3.7425491   -0.3345325  -14.0105019  
C    3.0961106   -0.6382248  -11.6780640  
H    2.6722554   -1.3270869   -8.7196946  
H   -0.3934859    1.3773494   -9.7141413  
H    0.1733382    1.8723942  -12.4599551  
H    2.4744113    0.9731101  -14.9846453  
H    4.4264940   -0.9533523  -13.7368502  
H    3.9116817   -1.3276970  -11.4938086  
C    2.0663728   -2.0930018   -5.1167673  
C    1.0931323   -1.6308353   -4.2901597  
C    0.2706809   -0.7345479   -5.0680273  
C    0.8486736   -0.7122923   -6.4253117  
N    1.9347266   -1.5561045   -6.3884396  
C    0.3570945    0.0175293   -7.4584693  
C   -0.8196662    0.8358894   -7.2175210  
O   -1.3377655    1.5288423   -8.0833674  
C   -1.4481802    0.8277639   -5.7875876  
O   -2.4388904    1.5130257   -5.5727154  
C   -0.8287665    0.0000939   -4.7555305  
H    0.9660023   -1.8882582   -3.2537306  
H    2.8688296   -2.7804817   -4.9038726  
H    2.5375335   -1.7532740   -7.1661248  
C    1.0672569   -0.0000698   -0.8321910  
C    0.0000000    0.0000000    0.0000000  
C   -1.1601223   -0.0000736   -0.8778472  
C   -0.5938729   -0.0000768   -2.2438435  
N    0.7113367   -0.0001553   -2.2234123  
C   -1.4286985   -0.0001877   -3.4135239  
C   -2.7683113   -0.0006798   -3.2270524  
O   -3.6653902   -0.0008302   -4.2276970  
C   -3.3702024   -0.0010610   -1.8610774  
O   -4.5974910   -0.0013779   -1.7662963  
C   -2.4926825   -0.0008943   -0.6770658  
H   -4.5324245   -0.0012258   -3.7833954  
H   -2.9677772   -0.0012974    0.2947961  
H    2.1134391   -0.0000547   -0.5705119  
C    0.0000000    0.0000000    1.4700000  
C    1.0521667    0.0011902    2.3562342  
C    0.4917218    0.0011957    3.6679131  
C   -0.9187428   -0.0003148    3.5178682  
N   -1.1833171    0.0009411    2.1707914  
C   -1.7951701   -0.0010350    4.6072090  
C   -1.2375837   -0.0005224    5.8710424  
O   -2.0474215   -0.0015360    6.9697579  
C    0.1673580    0.0013566    6.0411963  
O    0.5673524    0.0020687    7.3615553  
C    1.0325770    0.0023412    4.9669890  
H    2.0953057    0.0030649    2.0900562  
H   -2.0989778   -0.0102372    1.7591824  
H   -2.8710934   -0.0020419    4.4995513  
H   -1.4634884   -0.0006497    7.7393593  
H    1.5290710    0.0033153    7.3880045  
H    2.1042148    0.0039609    5.1284455  
