62

C    2.5187938   -3.0802029   -8.9347679  
C    2.7774144   -2.9761255  -10.2818949  
C    2.5649227   -1.6125282  -10.6425203  
C    2.1750196   -0.9262342   -9.4640028  
N    2.1552137   -1.8471690   -8.4461110  
C    1.8833929    0.4410390   -9.4464696  
C    1.9875577    1.1280784  -10.6403314  
O    1.7145930    2.4648468  -10.6797481  
C    2.3747149    0.4608623  -11.8268166  
O    2.4319171    1.2828176  -12.9333705  
C    2.6623000   -0.8880238  -11.8449075  
H    3.0807214   -3.7839049  -10.9257044  
H    1.5855471    0.9699336   -8.5516177  
H    1.8463638    2.7435498  -11.5952956  
H    2.7007152    0.7544737  -13.6911325  
H    2.9561148   -1.3717930  -12.7690934  
H    2.5635295   -3.9367189   -8.2841245  
C    2.4602719   -2.0944453   -5.9392893  
C    1.9124732   -1.6318086   -4.7860510  
C    0.8432455   -0.7354856   -5.1577935  
C    0.8127883   -0.7137217   -6.6327135  
N    1.8180302   -1.5578235   -7.0448669  
C   -0.0596373    0.0159818   -7.3730587  
C   -1.0334829    0.8347250   -6.6703356  
O   -1.8613774    1.5276079   -7.2472268  
C   -1.0192493    0.8271228   -5.1084314  
O   -1.8341905    1.5127102   -4.5058520  
C   -0.0307352   -0.0004646   -4.4215603  
H    2.2221962   -1.8889424   -3.7887707  
H   -0.0651701    0.0176829   -8.4542048  
H    3.2792593   -2.7820943   -6.0745265  
C    3.2573670   -0.0002920   -1.5109380  
C    2.5379468   -0.0001709   -0.3591961  
C    1.1435043    0.0000332   -0.7338500  
C    1.1092609   -0.0000082   -2.2088477  
N    2.4227562    0.0001909   -2.6182613  
C   -0.0265532   -0.0002522   -2.9515663  
C   -1.3003035   -0.0002639   -2.2514981  
O   -2.3786784   -0.0004131   -2.8306429  
C   -1.2877725    0.0000312   -0.6895608  
O   -2.3539958    0.0003307   -0.0892036  
C    0.0000000    0.0000000    0.0000000  
H    2.9384091   -0.0000369    0.6389239  
H    4.3270394   -0.0004765   -1.6439446  
H    2.7280494   -0.0013406   -3.5742113  
C    0.8576279    0.7185626    2.2703808  
C    0.0000000    0.0000000    1.4700000  
C   -0.8668858   -0.7285659    2.3373528  
C   -0.4876752   -0.4117774    3.6669281  
N    0.5635254    0.4678311    3.5902241  
C   -1.1297612   -0.9515493    4.7854808  
C   -2.1738724   -1.8268314    4.5576857  
O   -2.8357962   -2.3827064    5.6140350  
C   -2.5667212   -2.1555554    3.2384331  
O   -3.6226318   -3.0413663    3.1773122  
C   -1.9335634   -1.6236449    2.1344818  
H    1.0363952    0.8769718    4.3757045  
H   -0.8454472   -0.7142436    5.8013813  
H   -3.5178062   -2.9546422    5.2385129  
H   -3.8247440   -3.2102924    2.2519915  
H   -2.2566033   -1.8942483    1.1360343  
H    1.6567807    1.3889844    2.0042067  
