64

C   -4.3222477    0.7117430   -6.3016560  
C   -5.6712730    0.4625607   -6.4041600  
C   -5.8454795   -0.4464759   -7.4894726  
C   -4.5565567   -0.7188775   -8.0152128  
N   -3.6548373    0.0018781   -7.2722243  
C   -4.3475203   -1.5789646   -9.0974983  
C   -5.4598799   -2.1751567   -9.6590942  
O   -5.3128070   -3.0240027  -10.7177929  
C   -6.7541493   -1.9156261   -9.1488704  
O   -7.7592111   -2.5847942   -9.8162598  
C   -6.9611400   -1.0670304   -8.0813665  
H   -6.4358431    0.8849764   -5.7748816  
H   -3.3677278   -1.7906174   -9.5029756  
H   -6.2005229   -3.3244173  -10.9522639  
H   -8.6001131   -2.3545666   -9.4094631  
H   -7.9642282   -0.8874312   -7.7125354  
H   -3.7834635    1.3407828   -5.6139210  
C   -0.2963294   -0.0005341   -4.3948471  
C    0.7248285   -0.0020374   -5.3166395  
C    0.1197345   -0.0021750   -6.6083289  
C   -1.2847550   -0.0004188   -6.4100066  
N   -1.5029814   -0.0014076   -5.0546493  
C   -2.1980212    0.0002560   -7.4686534  
C   -1.6841009   -0.0005557   -8.7508631  
O   -2.5311380    0.0004005   -9.8211629  
C   -0.2858204   -0.0026831   -8.9690929  
O    0.0686625   -0.0036788  -10.3023925  
C    0.6157252   -0.0036228   -7.9251871  
H    1.7764813   -0.0040306   -5.0863877  
H   -2.4039877    0.0099828   -4.6118854  
H   -1.9739388   -0.0007062  -10.6103355  
H    1.0289085   -0.0050800  -10.3618040  
H    1.6811962   -0.0054371   -8.1232953  
C    3.1301143   -0.0010313   -1.7028257  
C    2.5367765   -0.0002767   -0.4864669  
C    1.1089900    0.0001027   -0.7656184  
C    1.0177864   -0.0004150   -2.2415133  
N    2.1993571   -0.0011613   -2.7963824  
C   -0.2459220   -0.0002879   -2.9257116  
C   -1.3675327   -0.0000606   -2.1698519  
O   -2.6129319    0.0000866   -2.6748482  
C   -1.3083588    0.0000910   -0.6783229  
O   -2.3693264    0.0004206   -0.0541685  
C    0.0000000    0.0000000    0.0000000  
H    3.0096014   -0.0001008    0.4807517  
H   -3.1967445    0.0002093   -1.8949025  
H    4.1849272   -0.0015113   -1.9271980  
C    2.5311839    2.1237619    3.0120429  
C    1.9795631    1.6616747    1.8395852  
C    0.9223175    0.7739173    2.1983588  
C    0.8753926    0.7337535    3.6154372  
N    1.8668922    1.5631002    4.0777464  
C   -0.0496243   -0.0427881    4.3197917  
C   -0.9437528   -0.7922060    3.5801400  
O   -1.8685244   -1.5680278    4.2172520  
C   -0.9124520   -0.7656372    2.1655264  
O   -1.8671164   -1.5663939    1.5732860  
C    0.0000000    0.0000000    1.4700000  
H    2.3005065    1.9304404    0.8477417  
H    2.0679347    1.7444845    5.0445261  
H   -0.0904770   -0.0778569    5.3997470  
H   -2.3849669   -2.0011402    3.5251786  
H   -1.7775064   -1.4909735    0.6183591  
H    3.3468514    2.8078103    3.1724291  
