64

C    8.7198847   -0.0070068   -0.3500450  
C    8.0463143   -0.0086605    0.8494411  
C    9.0320029   -0.0105857    1.8804669  
C   10.2997516   -0.0097147    1.2442770  
N   10.0740076   -0.0094886   -0.1098483  
C   11.5031229   -0.0108282    1.9560960  
C   11.4252912   -0.0125511    3.3352683  
O   12.5696163   -0.0133439    4.0792667  
C   10.1697790   -0.0138183    3.9883421  
O   10.2593514   -0.0159010    5.3650472  
C    8.9822201   -0.0129940    3.2867528  
H    6.9761720   -0.0096041    0.9668616  
H   10.7866004    0.0016562   -0.8170031  
H   12.4725704   -0.0103175    1.4771664  
H   12.2934160   -0.0148247    5.0049979  
H    9.3682815   -0.0166194    5.7278118  
H    8.0356923   -0.0141854    3.8145421  
C    4.5679461   -0.0016854   -2.0086701  
C    5.6536977   -0.0029015   -1.1639157  
C    6.8200674   -0.0036870   -1.9850011  
C    6.3798486   -0.0026036   -3.3333826  
N    5.0072029   -0.0033526   -3.3118966  
C    7.2630029   -0.0026750   -4.4172763  
C    8.6151888   -0.0035548   -4.1348421  
O    9.5213690   -0.0033137   -5.1555543  
C    9.0739284   -0.0050177   -2.7960465  
O   10.4486143   -0.0061774   -2.6795158  
C    8.2032438   -0.0052214   -1.7262641  
H    5.6103771   -0.0042927   -0.0882231  
H    4.4140952    0.0076882   -4.1218860  
H    6.9338474   -0.0019968   -5.4472560  
H   10.3956198   -0.0043382   -4.7445210  
H   10.6745774   -0.0070990   -1.7443454  
C    3.1301149   -0.0010311   -1.7028252  
C    2.5367768   -0.0002767   -0.4864665  
C    1.1089904    0.0001028   -0.7656183  
C    1.0177872   -0.0004148   -2.2415132  
N    2.1993578   -0.0011611   -2.7963820  
C   -0.2459209   -0.0002877   -2.9257118  
C   -1.3675319   -0.0000605   -2.1698524  
O   -2.6129313    0.0000867   -2.6748490  
C   -1.3083584    0.0000910   -0.6783232  
O   -2.3693261    0.0004206   -0.0541692  
C    0.0000000    0.0000000    0.0000000  
H    3.0096017   -0.0001007    0.4807525  
H   -0.2829630   -0.0004687   -4.0053125  
H   -3.1967441    0.0002094   -1.8949034  
C    2.5311839    2.1237619    3.0120429  
C    1.9795631    1.6616747    1.8395852  
C    0.9223175    0.7739173    2.1983588  
C    0.8753926    0.7337535    3.6154372  
N    1.8668922    1.5631002    4.0777464  
C   -0.0496243   -0.0427881    4.3197917  
C   -0.9437528   -0.7922060    3.5801400  
O   -1.8685244   -1.5680278    4.2172520  
C   -0.9124520   -0.7656372    2.1655264  
O   -1.8671164   -1.5663939    1.5732860  
C    0.0000000    0.0000000    1.4700000  
H    2.3005065    1.9304404    0.8477417  
H    2.0679347    1.7444845    5.0445261  
H   -0.0904770   -0.0778569    5.3997470  
H   -2.3849669   -2.0011402    3.5251786  
H   -1.7775064   -1.4909735    0.6183591  
H    3.3468514    2.8078103    3.1724291  
