64

C   -0.4691887    0.0990878   -8.6244976  
C    0.2535239   -0.5485086   -9.5995734  
C   -0.2891524   -0.1467560  -10.8560353  
C   -1.3495666    0.7546444  -10.5823104  
N   -1.4331502    0.8801839   -9.2178075  
C   -2.1129122    1.3525699  -11.5895736  
C   -1.7998800    1.0349821  -12.8969862  
O   -2.5131305    1.5907048  -13.9194632  
C   -0.7456835    0.1374893  -13.1902303  
O   -0.5578315   -0.0773124  -14.5400141  
C    0.0076187   -0.4529607  -12.1970382  
H    1.0705500   -1.2278533   -9.4265056  
H   -2.0873084    1.4630868   -8.7276213  
H   -2.9225050    2.0402786  -11.3875368  
H   -2.1366786    1.2400496  -14.7371367  
H    0.1717576   -0.6945307  -14.6511234  
H    0.8088083   -1.1366609  -12.4522386  
C    2.3136486   -2.1180443   -5.9171369  
C    1.6624056   -1.6181592   -7.0209780  
C    0.6419641   -0.7441443   -6.5420234  
C    0.7194929   -0.7504913   -5.1257342  
N    1.7437760   -1.5963708   -4.7793978  
C   -0.1387079    0.0017019   -4.3179684  
C   -1.0923525    0.7746131   -4.9514883  
O   -1.9557351    1.5288505   -4.2107386  
C   -1.1856783    0.7938844   -6.3634860  
O   -2.1870610    1.6126762   -6.8432319  
C   -0.3395499    0.0518702   -7.1609864  
H    1.8935978   -1.8552464   -8.0453476  
H    2.0414324   -1.7936221   -3.8410621  
H   -2.5301602    1.9837419   -4.8403212  
H   -2.1819310    1.5683238   -7.8042785  
H    3.1386337   -2.8065408   -5.8513307  
C    3.3041273    0.0001178   -1.5420428  
C    2.5845373   -0.0004780   -0.3695851  
C    1.2040007   -0.0000007   -0.7283589  
C    1.1422374    0.0006038   -2.1454372  
N    2.4348641    0.0026111   -2.6077464  
C   -0.0655179    0.0008799   -2.8497918  
C   -1.2321766    0.0002325   -2.1101402  
O   -2.4392814    0.0001148   -2.7472522  
C   -1.1911209   -0.0000007   -0.6955266  
O   -2.4371528   -0.0002320   -0.1032862  
C    0.0000000    0.0000000    0.0000000  
H    3.0031533   -0.0000660    0.6222584  
H    2.7054631   -0.0071097   -3.5745261  
H   -3.1132988   -0.0000648   -2.0551787  
H   -2.3200282   -0.0004072    0.8516409  
H    4.3686625    0.0004073   -1.7024290  
C    0.8175213    0.6860729    2.3021913  
C    0.0000000    0.0000000    1.4700000  
C   -0.8887526   -0.7456559    2.3478473  
C   -0.4549825   -0.3816753    3.7138435  
N    0.5448156    0.4573574    3.6934124  
C   -1.0945674   -0.9182058    4.8835240  
C   -2.1210866   -1.7789155    4.6970523  
O   -2.8083856   -2.3554314    5.6976972  
C   -2.5824069   -2.1655116    3.3310774  
O   -3.5227682   -2.9541547    3.2362962  
C   -1.9100805   -1.6015804    2.1470656  
H   -0.7567140   -0.6349833    5.8697035  
H   -3.4728268   -2.9124471    5.2533954  
H   -2.2742832   -1.9066565    1.1752040  
H    1.6189533    1.3585343    2.0405121  
