62

C    3.3041274    0.0001173   -1.5420423  
C    2.5845372   -0.0004782   -0.3695851  
C    1.2040007   -0.0000010   -0.7283585  
C    1.1422379    0.0006032   -2.1454371  
N    2.4348643    0.0026104   -2.6077458  
C   -0.0655180    0.0008792   -2.8497916  
C   -1.2321769    0.0002319   -2.1101395  
O   -2.4392807    0.0001139   -2.7472519  
C   -1.1911208   -0.0000009   -0.6955263  
O   -2.4371523   -0.0002321   -0.1032864  
C    0.0000000    0.0000000    0.0000000  
H    3.0031534   -0.0000660    0.6222590  
H   -0.1193543    0.0014836   -3.9297468  
H   -3.1132982   -0.0000652   -2.0551783  
H   -2.3200280   -0.0004069    0.8516408  
H    4.3686624    0.0004066   -1.7024282  
C    5.6515803   -2.1002982   -4.7818998  
C    4.8081961   -1.6310303   -3.8266162  
C    3.8761267   -0.7467210   -4.4854631  
C    4.2482789   -0.7392331   -5.9131314  
N    5.3319472   -1.5792879   -6.0265373  
C    3.6067603   -0.0234904   -6.8711869  
C    2.4743168    0.7942192   -6.4693695  
O    1.8313268    1.4750501   -7.2576170  
C    2.0628008    0.8015922   -4.9625827  
O    1.1111845    1.4864532   -4.6123641  
C    2.8310669   -0.0116229   -4.0232744  
H    4.8359715   -1.8762192   -2.7798480  
H    3.8957845   -0.0321206   -7.9129644  
H    6.4798596   -2.7827413   -4.6813289  
C    6.5188092   -3.1265959   -7.6499778  
C    7.1263547   -3.0739848   -8.8633185  
C    7.0407162   -1.7062455   -9.3180610  
C    6.3283950   -0.9609867   -8.2626090  
N    6.0393362   -1.8792938   -7.2797324  
C    6.0469795    0.3655966   -8.3144389  
C    6.4739740    1.1089488   -9.4881664  
O    6.2677789    2.3072478   -9.6291074  
C    7.2296970    0.3398937  -10.6183175  
O    7.5938065    0.9551055  -11.6113938  
C    7.4751246   -1.0900562  -10.4484317  
H    7.5822890   -3.8991780   -9.3808072  
H    5.5234483    0.8931585   -7.5292612  
H    7.9991883   -1.6151551  -11.2354199  
H    6.3808193   -3.9716687   -6.9952259  
C    2.5311839    2.1237619    3.0120429  
C    1.9795631    1.6616747    1.8395852  
C    0.9223175    0.7739173    2.1983588  
C    0.8753926    0.7337535    3.6154372  
N    1.8668922    1.5631002    4.0777464  
C   -0.0496243   -0.0427881    4.3197917  
C   -0.9437528   -0.7922060    3.5801400  
O   -1.8685244   -1.5680278    4.2172520  
C   -0.9124520   -0.7656372    2.1655264  
O   -1.8671164   -1.5663939    1.5732860  
C    0.0000000    0.0000000    1.4700000  
H    2.3005065    1.9304404    0.8477417  
H    2.0679347    1.7444845    5.0445261  
H   -0.0904770   -0.0778569    5.3997470  
H   -2.3849669   -2.0011402    3.5251786  
H   -1.7775064   -1.4909735    0.6183591  
H    3.3468514    2.8078103    3.1724291  
