62

C   -4.8055421    2.1210257   -6.7688794  
C   -5.7144454    1.6219790   -7.6729343  
C   -4.9985910    0.7479983   -8.5437438  
C   -3.6453884    0.7535005   -8.1186097  
N   -3.5625140    1.5988667   -7.0401360  
C   -2.6509565    0.0011012   -8.7508984  
C   -3.0295282   -0.7711515   -9.8318641  
O   -2.0987530   -1.5255545  -10.4857362  
C   -4.3746736   -0.7895756  -10.2712502  
O   -4.5924662   -1.6077834  -11.3604911  
C   -5.3561812   -0.0473576   -9.6481273  
H   -6.7640605    1.8595898   -7.7019612  
H   -2.7267475    1.7954829   -6.5197347  
H   -2.5670717   -1.9799055  -11.1981318  
H   -5.5249489   -1.5628752  -11.5930030  
H   -6.3780612   -0.0815134  -10.0073928  
H   -4.9453206    2.8092321   -5.9529189  
C   -0.8287671    0.0000935   -4.7555305  
C    0.4829789    0.0003528   -5.1068098  
C    0.5323568    0.0005977   -6.5498617  
C   -0.8681897    0.0004883   -7.0138230  
N   -1.6437154   -0.0002181   -5.8774035  
C   -1.2464066    0.0010497   -8.3171476  
C   -0.2045436    0.0015868   -9.3305861  
O   -0.4431247    0.0020513  -10.5311609  
C    1.2854921    0.0014598   -8.8619719  
O    2.1713296    0.0016018   -9.7060996  
C    1.5684483    0.0011143   -7.4288675  
H    1.3204182    0.0001882   -4.4320442  
H    2.6027354    0.0012339   -7.1126813  
H   -2.6471544    0.0011004   -5.8649186  
C    1.0672566   -0.0000698   -0.8321912  
C    0.0000000    0.0000000    0.0000000  
C   -1.1601226   -0.0000736   -0.8778472  
C   -0.5938732   -0.0000770   -2.2438435  
N    0.7113365   -0.0001555   -2.2234123  
C   -1.4286989   -0.0001880   -3.4135239  
C   -2.7683117   -0.0006800   -3.2270522  
O   -3.6653907   -0.0008306   -4.2276967  
C   -3.3702026   -0.0010611   -1.8610771  
O   -4.5974909   -0.0013781   -1.7662957  
C   -2.4926826   -0.0008944   -0.6770655  
H   -4.5324249   -0.0012263   -3.7833950  
H   -2.9677773   -0.0012975    0.2947963  
H    2.1134390   -0.0000546   -0.5705121  
C    0.8676693    0.7151171    2.2619005  
C    0.5875920    0.4624972    3.5848544  
C   -0.5048400   -0.4542819    3.6114698  
C   -0.8517165   -0.7276451    2.2635546  
N    0.0000000    0.0000000    1.4700000  
C   -1.8902865   -1.5946756    1.9108239  
C   -2.5912627   -2.1969500    2.9375057  
O   -3.6148162   -3.0527051    2.6493466  
C   -2.2603868   -1.9365747    4.2886322  
O   -3.0513550   -2.6123276    5.1947621  
C   -1.2361111   -1.0811317    4.6373480  
H    1.1060808    0.8876438    4.4271209  
H   -2.1597133   -1.8070987    0.8854031  
H   -3.9636755   -3.3565188    3.4974381  
H   -2.7621927   -2.3810384    6.0827341  
H   -1.0058879   -0.9010589    5.6809233  
H    1.6167816    1.3499334    1.8205408  
