62

C    8.4080202    0.7327830   -3.6646358  
C    8.1842024    0.0123725   -2.5142526  
C    9.3858265   -0.7015638   -2.2296595  
C   10.3158226   -0.3743565   -3.2494475  
N    9.6892573    0.4971078   -4.1053582  
C   11.6113770   -0.8986072   -3.2880824  
C   11.9748231   -1.7687911   -2.2786945  
O   13.2279803   -2.3096175   -2.2678321  
C   11.0609059   -2.1077361   -1.2526881  
O   11.5726234   -2.9867259   -0.3205579  
C    9.7825611   -1.5911407   -1.2140915  
H   10.1056552    0.9106532   -4.9199592  
H   12.3248697   -0.6533022   -4.0626500  
H   13.2722722   -2.8804545   -1.4897271  
H   10.8923971   -3.1633374    0.3364845  
H    9.1046196   -1.8692989   -0.4156550  
H    7.7546229    1.3949673   -4.2064317  
C    5.6685262    0.0007275   -2.2869310  
C    4.7390840    0.0009613   -1.2727298  
C    5.4635794   -0.0000956   -0.0440289  
C    6.8430309   -0.0006642   -0.3742393  
N    6.9321467   -0.0020936   -1.7441565  
C    7.8522877   -0.0014301    0.5933289  
C    7.4618845   -0.0013184    1.9183810  
O    8.4063109   -0.0016932    2.9038106  
C    6.0904957   -0.0011301    2.2678231  
O    5.8636451   -0.0014621    3.6286619  
C    5.0942998   -0.0006477    1.3138209  
H    8.9054288   -0.0020102    0.3481820  
H    7.9262133   -0.0018351    3.7421245  
H    4.9133160   -0.0012785    3.7785862  
H    4.0523279   -0.0006954    1.6117688  
H    5.5300621    0.0009044   -3.3545393  
C    3.2798077    0.0005856   -1.4499661  
C    2.5571132    0.0005565   -2.5996564  
C    1.1637425    0.0001547   -2.2210366  
C    1.1336959   -0.0000200   -0.7459475  
N    2.4483509   -0.0001429   -0.3402730  
C    0.0000000    0.0000000    0.0000000  
C   -1.2757370   -0.0000187   -0.6964411  
O   -2.3524597   -0.0000640   -0.1142306  
C   -1.2676502   -0.0000874   -2.2584078  
O   -2.3355774   -0.0004102   -2.8557287  
C    0.0181551    0.0001758   -2.9516297  
H    2.9547342    0.0006074   -3.5989118  
H    0.0150776    0.0003317   -4.0331632  
H    2.7563626    0.0012823    0.6148051  
C    0.8400945    0.7047457    2.2710304  
C    0.0000000    0.0000000    1.4700000  
C   -0.8844236   -0.7423113    2.3369512  
C   -0.4878984   -0.4098547    3.7186280  
N    0.5629682    0.4714286    3.6095011  
C   -1.0836927   -0.9095027    4.8308716  
C   -2.1891196   -1.8367527    4.6554461  
O   -2.7906899   -2.3413415    5.5944904  
C   -2.6257283   -2.2031529    3.2011665  
O   -3.5549479   -2.9829990    3.0410059  
C   -1.9068976   -1.5999348    2.0816745  
H   -0.7774656   -0.6525820    5.8354244  
H   -2.2155208   -1.8586617    1.0779135  
H    1.6384792    1.3747609    1.9961646  
H    1.0518368    0.8833920    4.3830260  
