64

C    2.4861702   -0.0045381   -3.7159922  
C    3.5192653   -0.0069576   -2.8076001  
C    4.7328077   -0.0089740   -3.5572066  
C    4.3743056   -0.0073669   -4.9295766  
N    3.0028455   -0.0066335   -4.9905080  
C    5.3209179   -0.0083538   -5.9585147  
C    6.6537153   -0.0107049   -5.5954393  
O    7.6195178   -0.0114064   -6.5599276  
C    7.0312767   -0.0127111   -4.2315260  
O    8.3964910   -0.0153603   -4.0327047  
C    6.0979606   -0.0120121   -3.2159252  
H    3.4114641   -0.0083403   -1.7364463  
H    2.4594304    0.0050772   -5.8346312  
H    5.0541703   -0.0072833   -7.0063921  
H    8.4675238   -0.0133900   -6.0971679  
H    8.5659228   -0.0165595   -3.0856591  
H    6.4172671   -0.0137763   -2.1803008  
C    0.0000000    0.0000000    0.0000000  
C    1.0521666   -0.0011901   -0.8862341  
C    0.4917219   -0.0011956   -2.1979129  
C   -0.9187429    0.0003148   -2.0478681  
N   -1.1833171   -0.0009411   -0.7007912  
C   -1.7951701    0.0010349   -3.1372089  
C   -1.2375839    0.0005224   -4.4010424  
O   -2.0474212    0.0015359   -5.4997577  
C    0.1673581   -0.0013566   -4.5711964  
O    0.5673524   -0.0020688   -5.8915554  
C    1.0325770   -0.0023412   -3.4969892  
H    2.0953060   -0.0030648   -0.6200561  
H   -2.0989776    0.0102371   -0.2891822  
H   -1.4634886    0.0006496   -6.2693594  
H    1.5290710   -0.0033152   -5.9180047  
C   -4.0038863    0.6892042   -2.0945598  
C   -3.2578655    0.0024038   -2.9908506  
C   -4.2205330   -0.7423831   -3.7877593  
C   -5.5362144   -0.3771557   -3.2201540  
N   -5.4155588    0.4618000   -2.2273876  
C   -6.7642616   -0.9125598   -3.7400846  
C   -6.6817231   -1.7733838   -4.7800386  
O   -7.7463627   -2.3489278   -5.3642743  
C   -5.3688270   -2.1612250   -5.3750539  
O   -5.3688776   -2.9499019   -6.3201518  
C   -4.1232338   -1.5984354   -4.8239728  
H   -7.7116385   -0.6284386   -3.3057325  
H   -7.3709423   -2.9063189   -6.0696304  
H   -3.1927476   -1.9043954   -5.2831168  
H   -3.6630871    1.3613755   -1.3231874  
C    1.1243417   -0.0099156    2.2619005  
C    0.7474090   -0.0234034    3.5848544  
C   -0.6787367   -0.0234952    3.6114698  
C   -1.1201739   -0.0099357    2.2635546  
N    0.0000000    0.0000000    1.4700000  
C   -2.4730812   -0.0065396    1.9108239  
C   -3.3971947   -0.0173298    2.9375057  
O   -4.7313508   -0.0149487    2.6493466  
C   -2.9763630   -0.0305536    4.2886322  
O   -4.0166453   -0.0397858    5.1947621  
C   -1.6418541   -0.0336380    4.6373480  
H    1.4178735   -0.0310004    4.4271209  
H   -2.8160170    0.0039190    0.8854031  
H   -5.1938803   -0.0234410    3.4974381  
H   -3.6464643   -0.0484781    6.0827341  
H   -1.3497443   -0.0436789    5.6809233  
H    2.1062470   -0.0051382    1.8205408  
