64

C    2.6348749    0.0027816   -7.3363402  
C    3.2943740   -0.0004706   -6.1290635  
C    4.6912570   -0.0018410   -6.4177080  
C    4.8244603    0.0010004   -7.8298603  
N    3.5568133    0.0018154   -8.3568195  
C    6.0662253    0.0009146   -8.4723645  
C    7.1940662   -0.0017874   -7.6747769  
O    8.4317871   -0.0016460   -8.2501560  
C    7.0816670   -0.0050207   -6.2640427  
O    8.2962197   -0.0078747   -5.6096741  
C    5.8569621   -0.0052112   -5.6295173  
H    2.8262326   -0.0028088   -5.1596145  
H    3.3353643    0.0142916   -9.3359954  
H    6.1744983    0.0029272   -9.5482238  
H    9.0700171   -0.0040602   -7.5249513  
H    8.1310504   -0.0099240   -4.6618780  
H    5.8022657   -0.0079076   -4.5471686  
C   -0.9736295    0.0040466   -4.6965763  
C    0.3184311    0.0036280   -5.1688549  
C    0.2411196    0.0048063   -6.5931517  
C   -1.1354311    0.0062105   -6.9352522  
N   -1.8453657    0.0037555   -5.7602606  
C   -1.5857639    0.0079220   -8.2588778  
C   -0.6290481    0.0085284   -9.2553081  
O   -1.0136077    0.0105403  -10.5649346  
C    0.7492009    0.0067736   -8.9339915  
O    1.5772154    0.0072340  -10.0375024  
C    1.1941864    0.0048114   -7.6284235  
H    1.2073191    0.0014946   -4.5615108  
H   -2.8466241    0.0145838   -5.6871420  
H   -2.6334882    0.0088540   -8.5262246  
H   -0.2014085    0.0103304  -11.0880004  
H    2.4898295    0.0059921   -9.7329739  
C    1.1188642    0.0008216   -0.8003808  
C    0.0000000    0.0000000    0.0000000  
C   -1.1323861    0.0008904   -0.8673528  
C   -0.6382661    0.0019681   -2.1969280  
N    0.7324017    0.0038477   -2.1202241  
C   -1.4770913    0.0027323   -3.3154808  
C   -2.8395472    0.0020956   -3.0876858  
O   -3.7039201    0.0024441   -4.1440350  
C   -3.3517867    0.0013945   -1.7684332  
O   -4.7300494    0.0012387   -1.7073122  
C   -2.5248543    0.0009134   -0.6644817  
H    1.3576316   -0.0056175   -2.9057045  
H   -4.5940031    0.0021847   -3.7685129  
H   -4.9934602    0.0007284   -0.7819915  
H   -2.9462576    0.0005617    0.3339659  
H    2.1619896    0.0009343   -0.5342067  
C    2.5528530    2.1414826    2.8079335  
C    2.0663498    1.7338582    4.0032312  
C    0.9804344    0.8229586    3.6752840  
C    0.9495562    0.7966882    2.1971295  
N    1.8690446    1.5676019    1.6831036  
C    0.0000000    0.0000000    1.4700000  
C   -0.8785127   -0.7372425    2.1869543  
O   -1.8187535   -1.5261249    1.6395491  
C   -0.8723269   -0.7321790    3.6796354  
O   -1.7010379   -1.4274584    4.2670412  
C    0.1115397    0.0933559    4.4024240  
H    2.4028853    2.0163452    4.9860947  
H   -2.2861435   -1.9184361    2.3990168  
H    0.0832434    0.0693689    5.4835595  
H    3.3664920    2.8238276    2.6198634  
