62

C    4.3172221   -2.1275323   -1.4345756  
C    5.3517574   -1.6299265   -2.1925942  
C    4.7753719   -0.7549433   -3.1604702  
C    3.3738289   -0.7583777   -2.9423148  
N    3.1294665   -1.6035295   -1.8884538  
C    2.4861703   -0.0045376   -3.7159919  
C    3.0231730    0.7670563   -4.7281424  
O    2.2016855    1.5228026   -5.5136479  
C    4.4188992    0.7834238   -4.9615918  
O    4.7982327    1.6012136   -6.0059425  
C    5.2951623    0.0397835   -4.1989070  
H    6.3935691   -1.8691157   -2.0644883  
H    2.2250274   -1.7988472   -1.4988094  
H    2.7718764    1.9763908   -6.1480015  
H    5.7549222    1.5548856   -6.0965133  
H    6.3593036    0.0723747   -4.4014375  
H    4.3324737   -2.8158804   -0.6069876  
C    0.0000000    0.0000000    0.0000000  
C    1.0521669   -0.0011899   -0.8862338  
C    0.4917222   -0.0011953   -2.1979129  
C   -0.9187426    0.0003152   -2.0478681  
N   -1.1833169   -0.0009409   -0.7007913  
C   -1.7951697    0.0010354   -3.1372090  
C   -1.2375835    0.0005230   -4.4010425  
O   -2.0474206    0.0015366   -5.4997579  
C    0.1673585   -0.0013561   -4.5711965  
O    0.5673529   -0.0020681   -5.8915554  
C    1.0325774   -0.0023407   -3.4969889  
H    2.0953060   -0.0030646   -0.6200560  
H   -2.0989776    0.0102374   -0.2891826  
H   -1.4634880    0.0006503   -6.2693594  
H    1.5290717   -0.0033145   -5.9180047  
C   -4.4484711    2.1113803   -0.3461920  
C   -5.6480035    1.6479665   -0.7825918  
C   -5.3783981    0.7523421   -1.8825943  
C   -3.9129598    0.7317898   -2.0524736  
N   -3.4082520    1.5764914   -1.0908922  
C   -3.2578649    0.0024042   -2.9908508  
C   -4.0489120   -0.8169040   -3.8939090  
O   -3.5523648   -1.5094677   -4.7725992  
C   -5.6024998   -0.8101988   -3.7322738  
O   -6.2789643   -1.4957980   -4.4869992  
C   -6.1934209    0.0166877   -2.6830247  
H   -6.6117250    1.9044261   -0.3799969  
H   -7.2698066    0.0155978   -2.5775891  
H   -4.2368828    2.7988132    0.4566506  
H   -2.4341530    1.7724825   -0.9503005  
C    3.2573670    0.0002920    2.9809380  
C    2.5379467    0.0001709    1.8291961  
C    1.1435042   -0.0000331    2.2038498  
C    1.1092607    0.0000083    3.6788474  
N    2.4227561   -0.0001909    4.0882609  
C   -0.0265533    0.0002524    4.4215661  
C   -1.3003036    0.0002640    3.7214979  
O   -2.3786784    0.0004133    4.3006425  
C   -1.2877726   -0.0000311    2.1595606  
O   -2.3539958   -0.0003306    1.5592035  
C    0.0000000    0.0000000    1.4700000  
H    2.9384090    0.0000368    0.8310761  
H   -0.0296291    0.0004086    5.5027230  
H    4.3270393    0.0004765    3.1139444  
H    2.7280493    0.0013407    5.0442112  
