62

C   -0.4341337   -0.8917191   -9.5263064  
C   -0.5889808   -0.4889412  -10.8325451  
C   -0.8458995    0.9139097  -10.8080113  
C   -0.8355410    1.3152078   -9.4475777  
N   -0.5846148    0.1941865   -8.6959373  
C   -1.0539162    2.6368942   -9.0472705  
C   -1.2866928    3.5705346  -10.0383851  
O   -1.5056338    4.8754183   -9.7031881  
C   -1.3013089    3.1895075  -11.4012572  
O   -1.5472092    4.2343791  -12.2679303  
C   -1.0862235    1.8857649  -11.7968824  
H   -0.5257567   -1.1278671  -11.6967041  
H   -1.0474485    2.9491491   -8.0120610  
H   -1.6445453    5.3507853  -10.5326424  
H   -1.5400775    3.8919274  -13.1669748  
H   -1.1035698    1.6238159  -12.8483394  
H   -0.2296731   -1.8679432   -9.1211635  
C    2.1709840   -2.0097061   -6.1391753  
C    1.7780128   -1.6284990   -4.9015026  
C    0.6718280   -0.7104844   -5.1253423  
C    0.5282240   -0.6514437   -6.5958784  
N    1.4042460   -1.4110422   -7.1955325  
C   -0.4727385    0.1611592   -7.2305726  
C   -1.2932056    0.8817145   -6.4324696  
O   -2.2712229    1.6824661   -6.8888896  
C   -1.1735672    0.8429685   -4.9450740  
O   -1.9541225    1.5247035   -4.2808516  
C   -0.1387079    0.0017019   -4.3179684  
H    2.1880842   -1.9327664   -3.9536955  
H   -2.6790397    2.0573117   -6.0874357  
H    2.9666381   -2.6878246   -6.4038701  
C    3.3041273    0.0001178   -1.5420428  
C    2.5845373   -0.0004780   -0.3695851  
C    1.2040007   -0.0000007   -0.7283589  
C    1.1422374    0.0006038   -2.1454372  
N    2.4348641    0.0026111   -2.6077464  
C   -0.0655179    0.0008799   -2.8497918  
C   -1.2321766    0.0002325   -2.1101402  
O   -2.4392814    0.0001148   -2.7472522  
C   -1.1911209   -0.0000007   -0.6955266  
O   -2.4371528   -0.0002320   -0.1032862  
C    0.0000000    0.0000000    0.0000000  
H    3.0031533   -0.0000660    0.6222584  
H    2.7054631   -0.0071097   -3.5745261  
H   -3.1132988   -0.0000648   -2.0551787  
H   -2.3200282   -0.0004072    0.8516409  
H    4.3686625    0.0004073   -1.7024290  
C    0.8681109    0.7263879    2.2709268  
C    0.6127770    0.5096195    3.5869401  
C   -0.4920590   -0.4175482    3.6542670  
C   -0.8620974   -0.7254003    2.2596025  
N    0.0000000    0.0000000    1.4700000  
C   -1.8641242   -1.5660088    1.8976294  
C   -2.6293522   -2.2103885    2.9520183  
O   -3.5512764   -2.9839180    2.7283916  
C   -2.2549728   -1.8987399    4.4361073  
O   -2.8923672   -2.4351063    5.3323774  
C   -1.1543735   -0.9755647    4.7012123  
H    1.1382914    0.9492124    4.4159191  
H   -2.1192137   -1.7782617    0.8686553  
H   -0.9013378   -0.7652422    5.7314848  
H    1.6172880    1.3558399    1.8188057  
