60

C    4.7788835   -0.7291797   -8.8106997  
C    5.6188128   -0.7185205   -9.9001372  
C    5.6294934    0.6156469  -10.4046007  
C    4.7703219    1.3810952   -9.5752385  
N    4.2688977    0.5335272   -8.6187770  
C    4.5403059    2.7450551   -9.7789415  
C    5.1896809    3.3473374  -10.8390116  
O    5.0010972    4.6769601  -11.0830432  
C    6.0505195    2.6003516  -11.6779305  
O    6.6224561    3.3431346  -12.6901101  
C    6.2776923    1.2546783  -11.4777278  
H    6.1566890   -1.5681118  -10.2846848  
H    3.8865534    3.3340255   -9.1505126  
H    5.5384747    4.8914847  -11.8566512  
H    7.1886090    2.7641832  -13.2096195  
H    6.9423062    0.7086549  -12.1369880  
H    4.5021212   -1.5379085   -8.1562395  
C    4.1680083   -0.6852559   -4.4364468  
C    3.1006054    0.0006263   -3.9654951  
C    2.5992457    0.7461593   -5.1097496  
C    3.5073877    0.3823239   -6.2185716  
N    4.4289477   -0.4565249   -5.8299206  
C    3.3454770    0.9187916   -7.5418527  
C    2.3225889    1.7793023   -7.7481421  
O    2.0538413    2.3557385   -8.9320071  
C    1.3888525    2.1657481   -6.6495260  
O    0.4799308    2.9542128   -6.9091524  
C    1.5758912    1.6018852   -5.3008232  
H    1.2721072    2.9126104   -8.7648596  
H    0.8781185    1.9068480   -4.5324863  
H    4.8160315   -1.3575814   -3.8969864  
C    3.2798083    0.0005857   -1.4499652  
C    2.5571142    0.0005565   -2.5996556  
C    1.1637432    0.0001548   -2.2210361  
C    1.1336964   -0.0000200   -0.7459473  
N    2.4483512   -0.0001428   -0.3402723  
C    0.0000000    0.0000000    0.0000000  
C   -1.2757368   -0.0000186   -0.6964415  
O   -2.3524598   -0.0000639   -0.1142311  
C   -1.2676497   -0.0000872   -2.2584083  
O   -2.3355766   -0.0004101   -2.8557295  
C    0.0181558    0.0001758   -2.9516296  
H    0.0150788    0.0003319   -4.0331631  
H    4.3498547    0.0008612   -1.3200026  
H    2.7563626    0.0012823    0.6148059  
C    0.8175213    0.6860729    2.3021913  
C    0.0000000    0.0000000    1.4700000  
C   -0.8887526   -0.7456559    2.3478473  
C   -0.4549825   -0.3816753    3.7138435  
N    0.5448156    0.4573574    3.6934124  
C   -1.0945674   -0.9182058    4.8835240  
C   -2.1210866   -1.7789155    4.6970523  
O   -2.8083856   -2.3554314    5.6976972  
C   -2.5824069   -2.1655116    3.3310774  
O   -3.5227682   -2.9541547    3.2362962  
C   -1.9100805   -1.6015804    2.1470656  
H   -0.7567140   -0.6349833    5.8697035  
H   -3.4728268   -2.9124471    5.2533954  
H   -2.2742832   -1.9066565    1.1752040  
H    1.6189533    1.3585343    2.0405121  
