64

C    7.5937840   -0.9928726   -4.4363635  
C    6.7385876    0.0840298   -4.4736199  
C    7.5204468    1.2247034   -4.8231342  
C    8.8567112    0.7786007   -4.9884041  
N    8.8664285   -0.5723094   -4.7443456  
C    9.9033460    1.6379031   -5.3361739  
C    9.5953648    2.9717898   -5.5207591  
O   10.5792683    3.8542905   -5.8615547  
C    8.2681848    3.4361005   -5.3600665  
O    8.1229733    4.7906407   -5.5779622  
C    7.2352023    2.5889914   -5.0167286  
H    9.6746497   -1.1656516   -4.7963422  
H   10.9239379    1.3041681   -5.4635138  
H   10.1554886    4.7189178   -5.9396247  
H    7.1980126    5.0219521   -5.4493300  
H    6.2287022    2.9736175   -4.9005465  
H    7.3968996   -2.0274425   -4.2130683  
C    4.3172189   -2.1276213   -1.4346674  
C    5.3517550   -1.6299841   -2.1926639  
C    4.7753711   -0.7549583   -3.1605024  
C    3.3738278   -0.7584001   -2.9423472  
N    3.1294640   -1.6035967   -1.8885227  
C    2.4861704   -0.0045255   -3.7159919  
C    3.0231741    0.7671115   -4.7281092  
O    2.2016879    1.5228926   -5.5135824  
C    4.4189003    0.7834870   -4.9615577  
O    4.7982355    1.6013212   -6.0058733  
C    5.2951626    0.0398126   -4.1989051  
H    6.3935663   -1.8691800   -2.0645687  
H    2.2250248   -1.7989300   -1.4988871  
H    2.7718794    1.9765076   -6.1479166  
H    5.7549244    1.5549959   -6.0964457  
H    4.3324695   -2.8160055   -0.6071083  
C    0.0000000    0.0000000    0.0000000  
C    1.0521669   -0.0011848   -0.8862341  
C    0.4917221   -0.0011931   -2.1979130  
C   -0.9187427    0.0003100   -2.0478683  
N   -1.1833170   -0.0009472   -0.7007915  
C   -1.7951698    0.0010259   -3.1372090  
C   -1.2375835    0.0005161   -4.4010425  
O   -2.0474208    0.0015256   -5.4997580  
C    0.1673584   -0.0013557   -4.5711962  
O    0.5673529   -0.0020659   -5.8915551  
C    1.0325773   -0.0023359   -3.4969890  
H    2.0953059   -0.0030542   -0.6200560  
H   -2.0989777    0.0102265   -0.2891825  
H   -2.8710930    0.0020274   -3.0295514  
H   -1.4634881    0.0006427   -6.2693593  
H    1.5290715   -0.0033076   -5.9180042  
C    0.0000000    0.0000000    1.4700000  
C    1.0662921    0.0000102    2.3034270  
C    0.4961870   -0.0000064    3.6418889  
C   -0.9663858    0.0000850    3.4240247  
N   -1.2632773    0.0000084    2.1528658  
C   -1.8985362    0.0000517    4.5177257  
C   -1.3925775   -0.0004564    5.7720543  
O   -2.1456383   -0.0005410    6.8851312  
C    0.0786232   -0.0009323    6.0245000  
O    0.4683759   -0.0012588    7.1921102  
C    1.0143166   -0.0008442    4.8859032  
H    2.1107198   -0.0000632    2.0421868  
H   -2.9622183    0.0003270    4.3293377  
H   -1.5042274   -0.0009692    7.6184419  
H    2.0724152   -0.0013148    5.1109744  
