66

C    1.6071931   -2.0691458   -5.4061224  
C    0.7600336   -1.6164455   -4.4213127  
C   -0.1612458   -0.7224871   -5.0431507  
C    0.1755311   -0.6690407   -6.4199773  
N    1.2548207   -1.4967875   -6.6059509  
C   -0.5252823    0.1165513   -7.3400290  
C   -1.5855716    0.8615302   -6.8615195  
O   -2.3042732    1.6457771   -7.7167612  
C   -1.9367276    0.8217440   -5.4911463  
O   -3.0155710    1.6195943   -5.1704051  
C   -1.2456329    0.0471727   -4.5828766  
H    0.8017172   -1.8952903   -3.3823217  
H   -0.2735270    0.1617565   -8.3906367  
H   -2.9880781    2.0738671   -7.1853340  
H   -3.1866796    1.5350658   -4.2274409  
H    2.4357995   -2.7539197   -5.3473453  
C    2.8965854   -5.1937300   -8.3937163  
C    3.3370379   -4.6382516   -9.5726627  
C    3.0157552   -3.2493588   -9.5241295  
C    2.3751332   -3.0135498   -8.2807779  
N    2.3172685   -4.2154537   -7.6199488  
C    1.9197875   -1.7500220   -7.8922604  
C    2.1149694   -0.7054561   -8.7748492  
O    1.6900810    0.5491722   -8.4456218  
C    2.7517525   -0.9208635  -10.0202107  
O    2.8714931    0.2192083  -10.7878325  
C    3.2009746   -2.1671489  -10.4042663  
H    3.8283582   -5.1690410  -10.3700711  
H    1.9255891   -4.3572181   -6.7064544  
H    1.9209158    1.1197757   -9.1901962  
H    3.3117681   -0.0132730  -11.6110651  
H    3.6849950   -2.3015751  -11.3645425  
H    2.9485523   -6.2106233   -8.0441654  
C    1.1243410    0.0099923   -0.7919003  
C    0.7474076    0.0234544   -2.1148543  
C   -0.6787381    0.0234490   -2.1414700  
C   -1.1201745    0.0098592   -0.7935546  
N    0.0000000    0.0000000    0.0000000  
C   -2.4730816    0.0063709   -0.4408240  
C   -3.3971958    0.0170982   -1.4675058  
O   -4.7313517    0.0146259   -1.1793471  
C   -2.9763648    0.0303504   -2.8186324  
O   -4.0166480    0.0395118   -3.7247624  
C   -1.6418562    0.0335260   -3.1673481  
H    1.4178717    0.0310972   -2.9571209  
H   -2.8160166   -0.0041111    0.5845966  
H   -5.1938818    0.0230867   -2.0274384  
H   -3.6464675    0.0482293   -4.6127343  
H    2.1062467    0.0052819   -0.3505407  
C    2.5285572    2.1210227    2.9438989  
C    1.9331703    1.6216660    4.0790748  
C    0.8903039    0.7472258    3.6520102  
C    0.8972198    0.7527806    2.2336141  
N    1.9028376    1.5986179    1.8362361  
C    0.0000000    0.0000000    1.4700000  
C   -0.9207814   -0.7726952    2.1506477  
O   -1.8198395   -1.5274828    1.4542253  
C   -0.9436862   -0.7911793    3.5655508  
O   -1.9197945   -1.6098497    4.0950179  
C   -0.0590329   -0.0485852    4.3195194  
H    2.2150357    1.8593692    5.0905303  
H    2.1533708    1.7953814    0.8841339  
H   -2.3621246   -1.9821033    2.1118817  
H   -1.8668290   -1.5649508    5.0545920  
H   -0.1007624   -0.0827977    5.4019087  
H    3.3491200    2.8096064    2.8367138  
