64

C   -3.9308694    0.7133837   -6.3081262  
C   -5.2798959    0.4642442   -6.4107149  
C   -5.4541077   -0.4444224   -7.4963365  
C   -4.1651865   -0.7166528   -8.0221692  
N   -3.2634629    0.0038449   -7.2789358  
C   -3.9561554   -1.5763731   -9.1047471  
C   -5.0685182   -2.1723679   -9.6665457  
O   -4.9214503   -3.0208548  -10.7255329  
C   -6.3627861   -1.9130031   -9.1562336  
O   -7.3678518   -2.5819386   -9.8238505  
C   -6.5697718   -1.0647691   -8.0884413  
H   -6.0444636    0.8864503   -5.7812930  
H   -2.9763639   -1.7878938   -9.5102964  
H   -5.8091679   -3.3211845  -10.9601060  
H   -8.2087525   -2.3518443   -9.4169754  
H   -7.5728590   -0.8852895   -7.7195491  
H   -3.3920813    1.3421866   -5.6201775  
C    0.0950448    0.0004350   -4.4015596  
C    1.1162027   -0.0007609   -5.3233526  
C    0.5111087   -0.0004559   -6.6150419  
C   -0.8933808    0.0012410   -6.4167190  
N   -1.1116072   -0.0002072   -5.0613621  
C   -1.8066471    0.0022811   -7.4753654  
C   -1.2927267    0.0019023   -8.7575754  
O   -2.1397637    0.0032273   -9.8278748  
C    0.1055538   -0.0001591   -8.9758059  
O    0.4600366   -0.0007036  -10.3091058  
C    1.0070993   -0.0014589   -7.9319005  
H    2.1678556   -0.0028386   -5.0931014  
H   -2.0126134    0.0110379   -4.6185943  
H   -1.5825647    0.0023856  -10.6170477  
H    1.4202825   -0.0020902  -10.3685178  
H    2.0725704   -0.0032120   -8.1300093  
C    3.3321173    0.0004714   -1.3379336  
C    2.6974184    0.0000115   -2.5332313  
C    1.2800437   -0.0002119   -2.2052840  
C    1.2395034    0.0000643   -0.7271298  
N    2.4394063    0.0005459   -0.2131037  
C    0.0000000    0.0000000    0.0000000  
C   -1.1468702    0.0000634   -0.7169544  
O   -2.3742202    0.0000072   -0.1695489  
C   -1.1388770    0.0001606   -2.2096356  
O   -2.2206231    0.0000903   -2.7970412  
C    0.1454523    0.0001814   -2.9324241  
H    3.1367986   -0.0000653   -3.5160949  
H   -2.9844345    0.0001025   -0.9290168  
H    4.3940040    0.0007618   -1.1498638  
C    2.5285572    2.1210227    2.9438989  
C    1.9331703    1.6216660    4.0790748  
C    0.8903039    0.7472258    3.6520102  
C    0.8972198    0.7527806    2.2336141  
N    1.9028376    1.5986179    1.8362361  
C    0.0000000    0.0000000    1.4700000  
C   -0.9207814   -0.7726952    2.1506477  
O   -1.8198395   -1.5274828    1.4542253  
C   -0.9436862   -0.7911793    3.5655508  
O   -1.9197945   -1.6098497    4.0950179  
C   -0.0590329   -0.0485852    4.3195194  
H    2.2150357    1.8593692    5.0905303  
H    2.1533708    1.7953814    0.8841339  
H   -2.3621246   -1.9821033    2.1118817  
H   -1.8668290   -1.5649508    5.0545920  
H   -0.1007624   -0.0827977    5.4019087  
H    3.3491200    2.8096064    2.8367138  
