62

C    7.4834259   -0.5540230   -4.9171431  
C    8.8536880   -0.4486638   -4.8559356  
C    9.1786251    0.9149499   -5.1197024  
C    7.9555373    1.5999339   -5.3359902  
N    6.9462792    0.6782339   -5.2076005  
C    7.8948478    2.9668567   -5.6234412  
C    9.0906243    3.6548868   -5.6935333  
O    9.0890096    4.9913678   -5.9707128  
C   10.3211831    2.9889830   -5.4811331  
O   11.4236629    3.8118115   -5.5852237  
C   10.3818237    1.6404432   -5.1977812  
H    9.5352755   -1.2556232   -4.6479712  
H    6.9658880    3.4947544   -5.7894494  
H   10.0137409    5.2708909   -5.9728633  
H   12.2127752    3.2843310   -5.4281565  
H   11.3391874    1.1576875   -5.0400452  
H    6.8468285   -1.4109612   -4.7780047  
C    3.4064260   -0.7320630   -2.9766960  
C    4.6700292   -0.5172678   -3.4253008  
C    4.5733626    0.4097442   -4.5280880  
C    3.1395865    0.7196554   -4.6863006  
N    2.4861704   -0.0045255   -3.7159919  
C    2.6336019    1.5607526   -5.6234447  
C    3.5631615    2.2035236   -6.5373922  
O    3.2058149    2.9773403   -7.4159207  
C    5.0860058    1.8896829   -6.3882080  
O    5.8780985    2.4246821   -7.1521622  
C    5.5107680    0.9661680   -5.3391375  
H    5.5674032   -0.9580692   -3.0290347  
H    1.5784195    1.7745259   -5.7224472  
H    3.0700425   -1.3608041   -2.1683516  
C    0.0000000    0.0000000    0.0000000  
C    1.0521669   -0.0011848   -0.8862341  
C    0.4917221   -0.0011931   -2.1979130  
C   -0.9187427    0.0003100   -2.0478683  
N   -1.1833170   -0.0009472   -0.7007915  
C   -1.7951698    0.0010259   -3.1372090  
C   -1.2375835    0.0005161   -4.4010425  
O   -2.0474208    0.0015256   -5.4997580  
C    0.1673584   -0.0013557   -4.5711962  
O    0.5673529   -0.0020659   -5.8915551  
C    1.0325773   -0.0023359   -3.4969890  
H    2.0953059   -0.0030542   -0.6200560  
H   -2.0989777    0.0102265   -0.2891825  
H   -2.8710930    0.0020274   -3.0295514  
H   -1.4634881    0.0006427   -6.2693593  
H    1.5290715   -0.0033076   -5.9180042  
C    1.1319247   -0.0015655    2.2709268  
C    0.7969915   -0.0034943    3.5869401  
C   -0.6453339   -0.0035710    3.6542670  
C   -1.1266833   -0.0015433    2.2596025  
N    0.0000000    0.0000000    1.4700000  
C   -2.4346130   -0.0013964    1.8976294  
C   -3.4350110   -0.0031408    2.9520183  
O   -4.6384611   -0.0030974    2.7283916  
C   -2.9478959   -0.0050506    4.4361073  
O   -3.7809380   -0.0062218    5.3323774  
C   -1.5113823   -0.0053090    4.7012123  
H    1.4821238   -0.0045407    4.4159191  
H   -2.7664565   -0.0000232    0.8686553  
H   -1.1823530   -0.0068408    5.7314848  
H    2.1104316   -0.0009391    1.8188057  
