62

C    0.8696307   -1.0761641   -7.7091951  
C    1.9207932   -1.9622499   -7.7579480  
C    2.1816660   -2.2233775   -9.1357569  
C    1.2503568   -1.4619358   -9.8872862  
N    0.4674653   -0.7785704   -8.9902304  
C    1.2159561   -1.4746708  -11.2849424  
C    2.1387098   -2.2703404  -11.9357980  
O    2.1495661   -2.3196853  -13.2997849  
C    3.0756595   -3.0375874  -11.2034907  
O    3.9278618   -3.7785644  -11.9959852  
C    3.1099983   -3.0257189   -9.8246478  
H    2.4354454   -2.3710680   -6.9053087  
H   -0.2752256   -0.1473946   -9.2310797  
H    0.5085760   -0.8967353  -11.8635675  
H    2.8606702   -2.9257003  -13.5454302  
H    4.5278080   -4.2667593  -11.4238545  
H    3.8391291   -3.6240969   -9.2909915  
C    0.5157023   -0.7055389   -5.2240925  
C   -0.2963293   -0.0005341   -4.3948471  
C   -1.2098552    0.7417638   -5.2310887  
C   -0.8609896    0.4090171   -6.6254926  
N    0.1928750   -0.4724045   -6.5523132  
C   -1.4945018    0.9085675   -7.7167381  
C   -2.5931303    1.8360112   -7.5036697  
O   -3.2264755    2.3405325   -8.4216202  
C   -2.9795613    2.2027198   -6.0353367  
O   -3.9026312    2.9827311   -5.8435407  
C   -2.2228515    1.5995820   -4.9410482  
H   -1.2229386    0.6514332   -8.7311565  
H   -2.4968364    1.8585229   -3.9273394  
H    1.3229470   -1.3756268   -4.9766502  
C    3.1301146   -0.0010313   -1.7028256  
C    2.5367765   -0.0002766   -0.4864669  
C    1.1089901    0.0001027   -0.7656184  
C    1.0177865   -0.0004150   -2.2415133  
N    2.1993571   -0.0011612   -2.7963824  
C   -0.2459219   -0.0002879   -2.9257116  
C   -1.3675326   -0.0000606   -2.1698520  
O   -2.6129318    0.0000865   -2.6748483  
C   -1.3083588    0.0000910   -0.6783229  
O   -2.3693264    0.0004206   -0.0541685  
C    0.0000000    0.0000000    0.0000000  
H    3.0096016   -0.0001007    0.4807518  
H   -3.1967444    0.0002093   -1.8949026  
H    4.1849275   -0.0015114   -1.9271979  
C    2.5311839    2.1237619    3.0120429  
C    1.9795631    1.6616747    1.8395852  
C    0.9223175    0.7739173    2.1983588  
C    0.8753926    0.7337535    3.6154372  
N    1.8668922    1.5631002    4.0777464  
C   -0.0496243   -0.0427881    4.3197917  
C   -0.9437528   -0.7922060    3.5801400  
O   -1.8685244   -1.5680278    4.2172520  
C   -0.9124520   -0.7656372    2.1655264  
O   -1.8671164   -1.5663939    1.5732860  
C    0.0000000    0.0000000    1.4700000  
H    2.3005065    1.9304404    0.8477417  
H    2.0679347    1.7444845    5.0445261  
H   -0.0904770   -0.0778569    5.3997470  
H   -2.3849669   -2.0011402    3.5251786  
H   -1.7775064   -1.4909735    0.6183591  
H    3.3468514    2.8078103    3.1724291  
