62

C    3.3003547    0.0005277   -1.4738976  
C    2.5232818    0.0003497   -2.6090741  
C    1.1623205   -0.0001319   -2.1820095  
C    1.1711886    0.0000584   -0.7636136  
N    2.4852303   -0.0014921   -0.3662351  
C    0.0000000    0.0000000    0.0000000  
C   -1.2020383    0.0000520   -0.6806481  
O   -2.3759245    0.0003494    0.0157732  
C   -1.2314652   -0.0005114   -2.0955510  
O   -2.5054381   -0.0008038   -2.6250186  
C   -0.0764511   -0.0007273   -2.8495193  
H    2.8036264    0.0088183    0.5858669  
H   -3.0835640    0.0000346   -0.6418817  
H   -2.4360037   -0.0011529   -3.5845927  
H   -0.1304086   -0.0013423   -3.9319085  
H    4.3715551    0.0004897   -1.3667123  
C    4.1171240   -0.7271063   -4.4445137  
C    4.3278184   -0.5117039   -5.7686301  
C    3.3122727    0.4143186   -6.2113315  
C    2.4867578    0.7229873   -5.0280991  
N    3.0267443   -0.0008952   -3.9901693  
C    1.4208267    1.5629154   -5.0321547  
C    1.0625890    2.2056486   -6.2855879  
O    0.1193413    2.9784593   -6.3921131  
C    1.9228120    1.8931118   -7.5513456  
O    1.6305913    2.4280914   -8.6123193  
C    3.0482302    0.9707961   -7.4224269  
H    5.1057476   -0.9514812   -6.3669915  
H    0.8286153    1.7757885   -4.1530188  
H    4.6665438   -1.3554376   -3.7624376  
C    4.3553403   -0.5600793   -8.9671750  
C    5.0563809   -0.4943728  -10.1283381  
C    5.0098281    0.8791872  -10.5710583  
C    4.2185515    1.6135902   -9.5654119  
N    3.8511299    0.6840838   -8.6199447  
C    3.9451023    2.9416285   -9.6223773  
C    4.4646167    3.6981165  -10.7494813  
O    4.2728582    4.8987429  -10.8909963  
C    5.3049706    2.9407059  -11.8264859  
O    5.7473202    3.5670234  -12.7800658  
C    5.5330395    1.5079599  -11.6559698  
H    5.5496479   -1.3145540  -10.6188528  
H    3.3627530    3.4610956   -8.8740902  
H    6.1160672    0.9909759  -12.4059886  
H    4.1644470   -1.4127717   -8.3360137  
C    2.5311839    2.1237619    3.0120429  
C    1.9795631    1.6616747    1.8395852  
C    0.9223175    0.7739173    2.1983588  
C    0.8753926    0.7337535    3.6154372  
N    1.8668922    1.5631002    4.0777464  
C   -0.0496243   -0.0427881    4.3197917  
C   -0.9437528   -0.7922060    3.5801400  
O   -1.8685244   -1.5680278    4.2172520  
C   -0.9124520   -0.7656372    2.1655264  
O   -1.8671164   -1.5663939    1.5732860  
C    0.0000000    0.0000000    1.4700000  
H    2.3005065    1.9304404    0.8477417  
H    2.0679347    1.7444845    5.0445261  
H   -0.0904770   -0.0778569    5.3997470  
H   -2.3849669   -2.0011402    3.5251786  
H   -1.7775064   -1.4909735    0.6183591  
H    3.3468514    2.8078103    3.1724291  
