60

C    6.5372986   -3.6403401   -2.2512939  
C    5.3427999   -3.0426671   -1.9220103  
C    4.9875332   -3.5104850   -0.6221901  
C    6.0119588   -4.3984402   -0.2050400  
N    6.9362742   -4.4560249   -1.2184214  
C    5.9912553   -5.0491261    1.0322831  
C    4.9169801   -4.7986321    1.8637657  
O    4.8468210   -5.4073094    3.0834394  
C    3.8848794   -3.9161689    1.4652149  
O    2.8841546   -3.7712896    2.4037789  
C    3.9045136   -3.2741140    0.2445978  
H    7.7809867   -4.9984407   -1.2033227  
H    6.7688526   -5.7271508    1.3560558  
H    4.0294373   -5.0989826    3.4958495  
H    2.2277010   -3.1596715    2.0565094  
H    3.0995744   -2.6037909   -0.0332825  
H    7.1355279   -3.5504293   -3.1417975  
C    4.5939385   -2.1037469   -2.7696746  
C    4.8996524   -1.6375995   -4.0079478  
C    3.8355762   -0.7416506   -4.3950551  
C    2.8780294   -0.7238867   -3.2727454  
N    3.3957278   -1.5703484   -2.3196554  
C    1.7334695    0.0049281   -3.2500363  
C    1.4239143    0.8265213   -4.4083520  
O    0.4172706    1.5187838   -4.4841258  
C    2.4237214    0.8227868   -5.6084261  
O    2.1735652    1.5103263   -6.5892281  
C    3.6246404   -0.0037441   -5.5162761  
H    5.7710266   -1.8924535   -4.5844638  
H    4.3119022   -0.0005906   -6.3513721  
H    2.9698485   -1.7683917   -1.4328337  
C    1.1319246    0.0015678   -0.8009268  
C    0.7969914    0.0034958   -2.1169401  
C   -0.6453340    0.0035696   -2.1842669  
C   -1.1266832    0.0015410   -0.7896025  
N    0.0000000    0.0000000    0.0000000  
C   -2.4346129    0.0013913   -0.4276292  
C   -3.4350111    0.0031335   -1.4820181  
O   -4.6384614    0.0030875   -1.2583914  
C   -2.9478961    0.0050442   -2.9661074  
O   -3.7809382    0.0062135   -3.8623773  
C   -1.5113825    0.0053055   -3.2312122  
H   -2.7664565    0.0000174    0.6013448  
H   -1.1823533    0.0068381   -4.2614848  
H    2.1104316    0.0009435   -0.3488059  
C    0.8175213    0.6860729    2.3021913  
C    0.0000000    0.0000000    1.4700000  
C   -0.8887526   -0.7456559    2.3478473  
C   -0.4549825   -0.3816753    3.7138435  
N    0.5448156    0.4573574    3.6934124  
C   -1.0945674   -0.9182058    4.8835240  
C   -2.1210866   -1.7789155    4.6970523  
O   -2.8083856   -2.3554314    5.6976972  
C   -2.5824069   -2.1655116    3.3310774  
O   -3.5227682   -2.9541547    3.2362962  
C   -1.9100805   -1.6015804    2.1470656  
H   -0.7567140   -0.6349833    5.8697035  
H   -3.4728268   -2.9124471    5.2533954  
H   -2.2742832   -1.9066565    1.1752040  
H    1.6189533    1.3585343    2.0405121  
