64

C    3.3590944   -0.7150791   -7.4018543  
C    4.6242701   -0.4663983   -7.8813921  
C    4.4849951    0.4422531   -8.9720596  
C    3.1001195    0.7149477   -9.1123534  
N    2.4448536   -0.0052711   -8.1446096  
C    2.5940574    1.5747845  -10.0918291  
C    3.5025970    2.1704200  -10.9450292  
O    3.0626349    3.0190013  -11.9193784  
C    4.8882216    1.9105903  -10.8211351  
O    5.6639649    2.5792082  -11.7455347  
C    5.3881479    1.0622408   -9.8552659  
H    5.5353664   -0.8888929   -7.4935845  
H    1.5396792    1.7866576  -10.2040682  
H    3.8480234    3.3190360  -12.3952031  
H    6.5854788    2.3488085  -11.5927832  
H    6.4545286    0.8824022   -9.7847727  
H    3.0363921   -1.3437255   -6.5896811  
C   -0.0307354   -0.0004645   -4.4215603  
C    1.0189061   -0.0016692   -5.3107837  
C    0.4547320   -0.0019244   -6.6208633  
C   -0.9553004   -0.0005441   -6.4668066  
N   -1.2160411   -0.0016342   -5.1189823  
C   -1.8348232   -0.0000755   -7.5536496  
C   -1.2808345   -0.0007105   -8.8190637  
O   -2.0937943    0.0000573   -9.9154712  
C    0.1236178   -0.0024627   -8.9932143  
O    0.5198544   -0.0033225  -10.3147050  
C    0.9918893   -0.0031992   -7.9214727  
H    2.0627983   -0.0033932   -5.0475745  
H   -2.1305285    0.0095049   -4.7047719  
H   -2.9104358    0.0008310   -7.4429318  
H   -1.5120534   -0.0008768  -10.6867311  
H    1.4814940   -0.0044691  -10.3438900  
C    3.2573669   -0.0002919   -1.5109381  
C    2.5379467   -0.0001709   -0.3591962  
C    1.1435042    0.0000332   -0.7338501  
C    1.1092607   -0.0000081   -2.2088477  
N    2.4227561    0.0001910   -2.6182614  
C   -0.0265534   -0.0002522   -2.9515663  
C   -1.3003036   -0.0002639   -2.2514981  
O   -2.3786785   -0.0004131   -2.8306428  
C   -1.2877726    0.0000312   -0.6895608  
O   -2.3539957    0.0003306   -0.0892035  
C    0.0000000    0.0000000    0.0000000  
H    2.9384091   -0.0000368    0.6389238  
H    4.3270391   -0.0004764   -1.6439447  
H    2.7280492   -0.0013405   -3.5742114  
C    0.0000000    0.0000000    1.4700000  
C    1.0521667    0.0011902    2.3562342  
C    0.4917218    0.0011957    3.6679131  
C   -0.9187428   -0.0003148    3.5178682  
N   -1.1833171    0.0009411    2.1707914  
C   -1.7951701   -0.0010350    4.6072090  
C   -1.2375837   -0.0005224    5.8710424  
O   -2.0474215   -0.0015360    6.9697579  
C    0.1673580    0.0013566    6.0411963  
O    0.5673524    0.0020687    7.3615553  
C    1.0325770    0.0023412    4.9669890  
H    2.0953057    0.0030649    2.0900562  
H   -2.0989778   -0.0102372    1.7591824  
H   -2.8710934   -0.0020419    4.4995513  
H   -1.4634884   -0.0006497    7.7393593  
H    1.5290710    0.0033153    7.3880045  
H    2.1042148    0.0039609    5.1284455  
