64

C   -0.3289813   -0.9787374   -9.4671030  
C   -0.4995928   -0.5633244  -10.7674078  
C   -0.7559503    0.8392379  -10.7261816  
C   -0.7290191    1.2273469   -9.3621530  
N   -0.4691886    0.0990876   -8.6244976  
C   -0.9422915    2.5451087   -8.9464513  
C   -1.1869113    3.4883132   -9.9255862  
O   -1.4015425    4.7899033   -9.5751439  
C   -1.2181262    3.1204983  -11.2918048  
O   -1.4743394    4.1737242  -12.1452768  
C   -1.0080833    1.8206339  -11.7026108  
H   -0.4469680   -1.1938585  -11.6384129  
H   -0.9232115    2.8473272   -7.9084238  
H   -1.5504230    5.2732855  -10.3982110  
H   -1.4781746    3.8399917  -13.0476139  
H   -1.0382293    1.5688770  -12.7562657  
H   -0.1197913   -1.9588494   -9.0739390  
C    2.3136485   -2.1180444   -5.9171369  
C    1.6624057   -1.6181594   -7.0209780  
C    0.6419641   -0.7441445   -6.5420234  
C    0.7194929   -0.7504913   -5.1257342  
N    1.7437759   -1.5963709   -4.7793978  
C   -0.1387079    0.0017019   -4.3179684  
C   -1.0923525    0.7746131   -4.9514883  
O   -1.9557349    1.5288503   -4.2107391  
C   -1.1856784    0.7938843   -6.3634860  
O   -2.1870611    1.6126762   -6.8432319  
C   -0.3395499    0.0518701   -7.1609864  
H    1.8935977   -1.8552464   -8.0453476  
H    2.0414323   -1.7936219   -3.8410621  
H   -2.5301603    1.9837418   -4.8403212  
H   -2.1819310    1.5683235   -7.8042789  
H    3.1386340   -2.8065412   -5.8513307  
C    3.3041273    0.0001178   -1.5420428  
C    2.5845373   -0.0004780   -0.3695851  
C    1.2040007   -0.0000007   -0.7283589  
C    1.1422374    0.0006038   -2.1454372  
N    2.4348641    0.0026111   -2.6077464  
C   -0.0655179    0.0008799   -2.8497918  
C   -1.2321766    0.0002325   -2.1101402  
O   -2.4392814    0.0001148   -2.7472522  
C   -1.1911209   -0.0000007   -0.6955266  
O   -2.4371528   -0.0002320   -0.1032862  
C    0.0000000    0.0000000    0.0000000  
H    3.0031533   -0.0000660    0.6222584  
H    2.7054631   -0.0071097   -3.5745261  
H   -3.1132988   -0.0000648   -2.0551787  
H   -2.3200282   -0.0004072    0.8516409  
H    4.3686625    0.0004073   -1.7024290  
C    2.4951002    2.0940188    2.9809380  
C    1.9440701    1.6314916    1.8291961  
C    0.8759964    0.7350050    2.2038498  
C    0.8497377    0.7130254    3.6788474  
N    1.8560616    1.5571714    4.0882609  
C   -0.0205033   -0.0168748    4.4215661  
C   -0.9962600   -0.8356168    3.7214979  
O   -1.8224391   -1.5286685    4.3006425  
C   -0.9864710   -0.8277881    2.1595606  
O   -1.8030528   -1.5133726    1.5592035  
C    0.0000000    0.0000000    1.4700000  
H    2.2509283    1.8888011    0.8310761  
H   -0.0229599   -0.0187323    5.5027230  
H    3.3143982    2.7817323    3.1139444  
H    2.0889452    1.7545833    5.0442112  
