64

C   -7.1988650    3.3892886    0.3332903  
C   -6.8603708    2.1254849   -0.0917864  
C   -7.9883009    1.2875817    0.1537551  
C   -8.9936040    2.1024963    0.7344499  
N   -8.4807674    3.3722523    0.8310697  
C  -10.2466023    1.6070993    1.1077689  
C  -10.4892801    0.2646595    0.8906497  
O  -11.6961643   -0.2710734    1.2362456  
C   -9.4987790   -0.5646747    0.3127847  
O   -9.8925941   -1.8782227    0.1616440  
C   -8.2623468   -0.0766897   -0.0554984  
H   -8.9700642    4.1695967    1.1955026  
H  -11.0170231    2.2229384    1.5509342  
H  -11.6558228   -1.2077873    1.0034281  
H   -9.1667457   -2.3696575   -0.2348914  
H   -7.5235910   -0.7361406   -0.4957735  
H   -6.6267994    4.3011957    0.3221011  
C   -4.3329665    2.1450168   -0.3175485  
C   -5.5711456    1.7385431   -0.6826118  
C   -5.3538018    0.8273992   -1.7957509  
C   -3.8860915    0.7997432   -1.9736451  
N   -3.2823480    1.5701205   -1.1099310  
C   -3.2578655    0.0024282   -2.9908505  
C   -4.0594175   -0.7340898   -3.7935894  
O   -3.6090879   -1.5234309   -4.7836322  
C   -5.5440604   -0.7276254   -3.6388178  
O   -6.2117105   -1.4223045   -4.4049023  
C   -6.1645244    0.0985304   -2.5879057  
H   -4.4116855   -1.9150016   -5.1730706  
H   -7.2431275    0.0755598   -2.5084188  
H   -4.0641812    2.8271376    0.4732985  
C    0.0000000    0.0000000    0.0000000  
C    1.0521666   -0.0011982   -0.8862343  
C    0.4917215   -0.0011996   -2.1979132  
C   -0.9187429    0.0003215   -2.0478682  
N   -1.1833171   -0.0009323   -0.7007913  
C   -1.7951703    0.0010483   -3.1372089  
C   -1.2375841    0.0005313   -4.4010422  
O   -2.0474218    0.0015510   -5.4997578  
C    0.1673576   -0.0013585   -4.5711963  
O    0.5673520   -0.0020735   -5.8915554  
C    1.0325768   -0.0023493   -3.4969892  
H    2.0953056   -0.0030808   -0.6200564  
H   -2.0989778    0.0102529   -0.2891822  
H   -1.4634888    0.0006601   -6.2693595  
H    1.5290707   -0.0033271   -5.9180047  
H    2.1042146   -0.0039770   -3.6584456  
C    1.1188642   -0.0008217    2.2703808  
C    0.0000000    0.0000000    1.4700000  
C   -1.1323862   -0.0008904    2.3373528  
C   -0.6382662   -0.0019682    3.6669281  
N    0.7324016   -0.0038477    3.5902241  
C   -1.4770914   -0.0027325    4.7854808  
C   -2.8395474   -0.0020958    4.5576857  
O   -3.7039201   -0.0024443    5.6140350  
C   -3.3517868   -0.0013946    3.2384331  
O   -4.7300496   -0.0012389    3.1773122  
C   -2.5248543   -0.0009135    2.1344818  
H    1.3576314    0.0056174    4.3757045  
H   -1.1067570   -0.0036993    5.8013813  
H   -4.5940033   -0.0021850    5.2385129  
H   -4.9934601   -0.0007286    2.2519915  
H   -2.9462578   -0.0005617    1.1360343  
H    2.1619896   -0.0009344    2.0042067  
