64

C    3.3003538    0.0005277   -1.4739000  
C    2.5232805    0.0003501   -2.6090752  
C    1.1623192   -0.0001315   -2.1820103  
C    1.1711879    0.0000585   -0.7636141  
N    2.4852298   -0.0014918   -0.3662362  
C    0.0000000    0.0000000    0.0000000  
C   -1.2020385    0.0000521   -0.6806474  
O   -2.3759249    0.0003497    0.0157757  
C   -1.2314667   -0.0005110   -2.0955503  
O   -2.5054399   -0.0008033   -2.6250170  
C   -0.0764526   -0.0007269   -2.8495190  
H    2.8919941   -0.0005614   -3.6205308  
H    2.8036265    0.0088181    0.5858651  
H   -3.0835641    0.0000349   -0.6418804  
H   -2.4360063   -0.0011522   -3.5845910  
H    4.3715543    0.0004895   -1.3667148  
C    2.2883715   -2.1096663   -5.8898019  
C    1.6780782   -1.6459097   -7.0107599  
C    0.6304122   -0.7505687   -6.5799514  
C    0.6807507   -0.7305564   -5.1055512  
N    1.7068930   -1.5752684   -4.7500468  
C   -0.1496430   -0.0015608   -4.3176959  
C   -1.1605716    0.8178678   -4.9650717  
O   -1.9555611    1.5101069   -4.3429003  
C   -1.2321962    0.8117318   -6.5254043  
O   -2.0793609    1.4974368   -7.0816251  
C   -0.2825959   -0.0147682   -7.2663560  
H    1.9326332   -1.9019641   -8.0238007  
H   -0.3386993   -0.0132848   -8.3464369  
H    1.9910620   -1.7715746   -3.8078371  
C    4.6846428   -4.2440645   -8.9330084  
C    5.5206398   -4.9073716   -8.0649076  
C    5.1352928   -4.5288104   -6.7447568  
C    4.0493140   -3.6251542   -6.8711747  
N    3.8025685   -3.4727731   -8.2130074  
C    3.4141296   -3.0470653   -5.7679328  
C    3.8835934   -3.3876474   -4.5142243  
O    3.2995213   -2.8524683   -3.4027128  
C    4.9662510   -4.2871909   -4.3676301  
O    5.3170612   -4.5255082   -3.0548157  
C    5.5935286   -4.8576612   -5.4555701  
H    6.3116956   -5.5803438   -8.3483373  
H    3.0805223   -2.8982973   -8.6087453  
H    3.7729012   -3.2165640   -2.6433639  
H    6.0551374   -5.1425486   -3.0444335  
H    6.4205168   -5.5432175   -5.3121110  
H    4.6487065   -4.2590053  -10.0088543  
C    2.5311839    2.1237619    3.0120429  
C    1.9795631    1.6616747    1.8395852  
C    0.9223175    0.7739173    2.1983588  
C    0.8753926    0.7337535    3.6154372  
N    1.8668922    1.5631002    4.0777464  
C   -0.0496243   -0.0427881    4.3197917  
C   -0.9437528   -0.7922060    3.5801400  
O   -1.8685244   -1.5680278    4.2172520  
C   -0.9124520   -0.7656372    2.1655264  
O   -1.8671164   -1.5663939    1.5732860  
C    0.0000000    0.0000000    1.4700000  
H    2.3005065    1.9304404    0.8477417  
H    2.0679347    1.7444845    5.0445261  
H   -0.0904770   -0.0778569    5.3997470  
H   -2.3849669   -2.0011402    3.5251786  
H   -1.7775064   -1.4909735    0.6183591  
H    3.3468514    2.8078103    3.1724291  
