60

C   10.4238669    2.1286869   -5.9214879  
C    9.3363123    1.6648291   -5.2182587  
C    9.8345119    0.7781568   -4.2181546  
C   11.2452486    0.7404490   -4.3607250  
N   11.5696654    1.5701511   -5.4052185  
C   12.0680996   -0.0344722   -3.5378016  
C   11.4556889   -0.7847650   -2.5528186  
O   12.2118648   -1.5590821   -1.7211659  
C   10.0495039   -0.7606412   -2.3950891  
O    9.5913531   -1.5619922   -1.3697710  
C    9.2370983    0.0033964   -3.2067356  
H    8.3100422    1.9317482   -5.4040445  
H   12.5006516    1.7531074   -5.7335007  
H   13.1439094   -0.0676670   -3.6414081  
H   11.5956529   -1.9931550   -1.1169060  
H    8.6328781   -1.4882529   -1.3311767  
H   10.4727768    2.8126494   -6.7514045  
C    6.8354437    0.0008785   -4.0255229  
C    5.5758880    0.0005992   -3.5179857  
C    5.7016160    0.0007905   -2.0795742  
C    7.1480383    0.0012364   -1.7886230  
N    7.7802454    0.0008702   -3.0105899  
C    7.6812948    0.0019204   -0.5406879  
C    6.7698185    0.0020123    0.5914546  
O    7.1520246    0.0025454    1.7543039  
C    5.2340026    0.0012939    0.3067213  
O    4.4569011    0.0010578    1.2519060  
C    4.7795901    0.0008674   -1.0815733  
H    4.6629019    0.0001118   -4.0863788  
H    8.7453471    0.0023685   -0.3491106  
H    7.1529577    0.0008730   -5.0556078  
C    3.3321168    0.0004716   -1.3379341  
C    2.6974177    0.0000118   -2.5332316  
C    1.2800432   -0.0002116   -2.2052842  
C    1.2395033    0.0000644   -0.7271298  
N    2.4394059    0.0005460   -0.2131041  
C    0.0000000    0.0000000    0.0000000  
C   -1.1468704    0.0000635   -0.7169542  
O   -2.3742206    0.0000074   -0.1695488  
C   -1.1388774    0.0001608   -2.2096352  
O   -2.2206238    0.0000906   -2.7970409  
C    0.1454514    0.0001818   -2.9324241  
H    3.1367978   -0.0000649   -3.5160956  
H   -2.9844350    0.0001027   -0.9290164  
H    0.1083567    0.0003684   -4.0135594  
C    2.3971438    2.0127888    3.1728260  
C    1.9431056    1.6308205    1.9564670  
C    0.8496017    0.7127664    2.2356185  
C    0.7794028    0.6545384    3.7115134  
N    1.6840587    1.4146091    4.2663826  
C   -0.1885723   -0.1578550    4.3957118  
C   -1.0476298   -0.8789867    3.6398520  
O   -2.0015663   -1.6796266    4.1448486  
C   -1.0022026   -0.8410666    2.1483229  
O   -1.8147390   -1.5232959    1.5241687  
C    0.0000000    0.0000000    1.4700000  
H    2.3054237    1.9346118    0.9892483  
H   -0.2170646   -0.1815267    5.4753125  
H   -2.4487139   -2.0549881    3.3649027  
H    3.2048689    2.6911772    3.3971983  
