60

C    8.8767183    0.0032714   -4.0131856  
C    9.6540129    0.0040147   -2.8781612  
C   11.0148906    0.0049393   -3.3054910  
C   11.0057460    0.0049986   -4.7238852  
N    9.6916288    0.0020212   -5.1210071  
C   12.1767853    0.0061165   -5.4877275  
C   13.3789551    0.0075012   -4.8073136  
O   14.5527038    0.0089835   -5.5039646  
C   13.4086578    0.0070904   -3.3924163  
O   14.6827341    0.0081939   -2.8631974  
C   12.2537909    0.0057145   -2.6382226  
H    9.2854964    0.0027988   -1.8666337  
H    9.3730364    0.0119122   -6.0730479  
H   12.1765734    0.0060239   -6.5690235  
H   15.2604715    0.0094754   -4.8464461  
H   14.6134875    0.0078535   -1.9036098  
H   12.3079617    0.0052495   -1.5558439  
C    5.5868526   -0.0000801   -1.0681557  
C    6.8043821    0.0011457   -1.6695671  
C    6.5701481    0.0006875   -3.0943372  
C    5.1058548   -0.0008880   -3.2749812  
N    4.5679461   -0.0016854   -2.0086701  
C    4.4796776   -0.0013316   -4.4789774  
C    5.3028527   -0.0004068   -5.6768576  
O    4.8337325   -0.0007721   -6.8074447  
C    6.8558133    0.0010129   -5.5091795  
O    7.5591489    0.0014936   -6.5104681  
C    7.4139952    0.0016562   -4.1592592  
H    7.7577676    0.0020630   -1.1719040  
H    3.4041775   -0.0023631   -4.5894723  
H    5.3482113   -0.0001626   -0.0169941  
C    3.1301149   -0.0010311   -1.7028252  
C    2.5367768   -0.0002767   -0.4864665  
C    1.1089904    0.0001028   -0.7656183  
C    1.0177872   -0.0004148   -2.2415132  
N    2.1993578   -0.0011611   -2.7963820  
C   -0.2459209   -0.0002877   -2.9257118  
C   -1.3675319   -0.0000605   -2.1698524  
O   -2.6129313    0.0000867   -2.6748490  
C   -1.3083584    0.0000910   -0.6783232  
O   -2.3693261    0.0004206   -0.0541692  
C    0.0000000    0.0000000    0.0000000  
H    3.0096017   -0.0001007    0.4807525  
H   -0.2829630   -0.0004687   -4.0053125  
H   -3.1967441    0.0002094   -1.8949034  
C    2.4951002    2.0940188    2.9809380  
C    1.9440701    1.6314916    1.8291961  
C    0.8759964    0.7350050    2.2038498  
C    0.8497377    0.7130254    3.6788474  
N    1.8560616    1.5571714    4.0882609  
C   -0.0205033   -0.0168748    4.4215661  
C   -0.9962600   -0.8356168    3.7214979  
O   -1.8224391   -1.5286685    4.3006425  
C   -0.9864710   -0.8277881    2.1595606  
O   -1.8030528   -1.5133726    1.5592035  
C    0.0000000    0.0000000    1.4700000  
H    2.2509283    1.8888011    0.8310761  
H   -0.0229599   -0.0187323    5.5027230  
H    3.3143982    2.7817323    3.1139444  
H    2.0889452    1.7545833    5.0442112  
