60

C   -1.5966242    2.1286357   -6.0566113  
C   -2.2907733    1.6306330   -7.1348585  
C   -1.4049732    0.7573919   -7.8330048  
C   -0.1742338    0.7622486   -7.1278933  
N   -0.3243183    1.6065371   -6.0558532  
C    0.9325841    0.0103074   -7.5332652  
C    0.7943643   -0.7608156   -8.6710008  
O    1.8436258   -1.5147285   -9.1110918  
C   -0.4254524   -0.7785817   -9.3883209  
O   -0.4048496   -1.5956787  -10.4997486  
C   -1.5176820   -0.0368147   -8.9891436  
H   -3.3098242    1.8684475   -7.3877880  
H    0.3805797    1.8025004   -5.3683230  
H    1.5387837   -1.9682987   -9.9077163  
H   -1.2658935   -1.5503855  -10.9265463  
H   -2.4388958   -0.0704455   -9.5589787  
H   -1.9079601    2.8160603   -5.2888383  
C    1.7334697    0.0049246   -3.2500361  
C    3.0863258    0.0047397   -3.2131620  
C    3.4995612    0.0065860   -4.6080574  
C    2.2333967    0.0076344   -5.3718706  
N    1.1947440    0.0067484   -4.5811811  
C    2.2116350    0.0095936   -6.8087451  
C    3.4007174    0.0108547   -7.4532722  
O    3.5293445    0.0127183   -8.7909914  
C    4.6955633    0.0102163   -6.7106184  
O    5.7398279    0.0113190   -7.3623322  
C    4.6914544    0.0081552   -5.2368803  
H    3.7249597    0.0035935   -2.3464319  
H    4.4909158    0.0132670   -8.9476201  
H    5.6504362    0.0078670   -4.7362960  
C    1.1319247    0.0015655   -0.8009267  
C    0.7969916    0.0034943   -2.1169401  
C   -0.6453337    0.0035710   -2.1842668  
C   -1.1266832    0.0015433   -0.7896026  
N    0.0000000    0.0000000    0.0000000  
C   -2.4346130    0.0013964   -0.4276294  
C   -3.4350109    0.0031408   -1.4820183  
O   -4.6384610    0.0030973   -1.2583915  
C   -2.9478956    0.0050505   -2.9661075  
O   -3.7809378    0.0062218   -3.8623775  
C   -1.5113821    0.0053090   -3.2312122  
H   -2.7664565    0.0000232    0.6013446  
H   -1.1823527    0.0068407   -4.2614846  
H    2.1104317    0.0009391   -0.3488056  
C    2.5128556    2.1077716    2.9199648  
C    1.9592212    1.6432552    4.0696553  
C    0.8915788    0.7479214    3.6910360  
C    0.8684491    0.7287414    2.2159470  
N    1.8754542    1.5738793    1.8102719  
C    0.0000000    0.0000000    1.4700000  
C   -0.9772830   -0.8200135    2.1664417  
O   -1.8021297   -1.5120829    1.5842315  
C   -0.9711318   -0.8147624    3.7284083  
O   -1.7894187   -1.5009653    4.3257297  
C    0.0140216    0.0115358    4.4216297  
H    2.2638494    1.8988021    5.0689105  
H    0.0117648    0.0094386    5.5031631  
H    3.3327358    2.7953732    2.7900019  
H    2.1123206    1.7707734    0.8551938  
