62

C   -3.6195469    0.0022384   -6.9392765  
C   -4.2485740    0.0021735   -5.7158418  
C   -5.6522551    0.0019051   -5.9693747  
C   -5.8208183    0.0015286   -7.3777469  
N   -4.5667811    0.0036941   -7.9363188  
C   -7.0782998    0.0008881   -7.9889173  
C   -8.1857922    0.0003160   -7.1633042  
O   -9.4375483   -0.0006725   -7.7074728  
C   -8.0380633    0.0010546   -5.7558264  
O   -9.2358312    0.0007699   -5.0712123  
C   -6.7978362    0.0019598   -5.1522037  
H   -3.7562780    0.0034088   -4.7584306  
H   -4.3699328   -0.0065820   -8.9207619  
H   -7.2135094    0.0007427   -9.0617270  
H  -10.0573969   -0.0006296   -6.9664921  
H   -9.0469531    0.0012833   -4.1278520  
H   -6.7160249    0.0026927   -4.0715626  
C   -0.1387078    0.0017019   -4.3179684  
C    0.8847660    0.0023481   -5.2034512  
C    0.2487273    0.0030114   -6.5118679  
C   -1.2011843    0.0025369   -6.2214541  
N   -1.4344177    0.0018496   -4.9370897  
C   -2.1866330    0.0030151   -7.2673875  
C   -1.7437539    0.0043151   -8.5453517  
O   -2.5512997    0.0048875   -9.6195531  
C   -0.2869469    0.0051951   -8.8707332  
O    0.0441882    0.0062441  -10.0563002  
C    0.7042757    0.0046374   -7.7801358  
H    1.9409051    0.0024623   -4.9945362  
H   -1.9471952    0.0058403  -10.3838892  
H    1.7498559    0.0054230   -8.0576094  
C    3.3041272    0.0001178   -1.5420428  
C    2.5845372   -0.0004779   -0.3695851  
C    1.2040007   -0.0000007   -0.7283589  
C    1.1422375    0.0006038   -2.1454371  
N    2.4348641    0.0026111   -2.6077464  
C   -0.0655179    0.0008799   -2.8497918  
C   -1.2321766    0.0002325   -2.1101402  
O   -2.4392816    0.0001148   -2.7472523  
C   -1.1911209   -0.0000007   -0.6955266  
O   -2.4371527   -0.0002320   -0.1032863  
C    0.0000000    0.0000000    0.0000000  
H    3.0031533   -0.0000660    0.6222584  
H    2.7054632   -0.0071097   -3.5745261  
H   -3.1132986   -0.0000648   -2.0551788  
H   -2.3200284   -0.0004071    0.8516409  
H    4.3686626    0.0004072   -1.7024289  
C    2.5528530    2.1414826    2.8079335  
C    2.0663498    1.7338582    4.0032312  
C    0.9804344    0.8229586    3.6752840  
C    0.9495562    0.7966882    2.1971295  
N    1.8690446    1.5676019    1.6831036  
C    0.0000000    0.0000000    1.4700000  
C   -0.8785127   -0.7372425    2.1869543  
O   -1.8187535   -1.5261249    1.6395491  
C   -0.8723269   -0.7321790    3.6796354  
O   -1.7010379   -1.4274584    4.2670412  
C    0.1115397    0.0933559    4.4024240  
H    2.4028853    2.0163452    4.9860947  
H   -2.2861435   -1.9184361    2.3990168  
H    0.0832434    0.0693689    5.4835595  
H    3.3664920    2.8238276    2.6198634  
