64

C    4.1526246    0.6391263   -7.3428686  
C    5.2161456   -0.1921670   -7.0776462  
C    6.0784452   -0.1401276   -8.2126925  
C    5.4843359    0.7470825   -9.1464044  
N    4.3154206    1.2008969   -8.5875616  
C    6.0625282    1.0394684  -10.3853530  
C    7.2624785    0.4252626  -10.6870973  
O    7.8707343    0.6755405  -11.8830898  
C    7.8706563   -0.4632881   -9.7687215  
O    9.0627632   -0.9946827  -10.2157623  
C    7.3006876   -0.7524077   -8.5464004  
H    5.3529906   -0.7663855   -6.1773462  
H    3.6830431    1.8534177   -9.0145238  
H    5.6147085    1.7146469  -11.1014501  
H    8.6833929    0.1532445  -11.8906950  
H    9.4069705   -1.5831916   -9.5369530  
H    7.7898645   -1.4372332   -7.8636133  
C    2.9043668   -0.7136453   -3.3215832  
C    1.7334695    0.0049281   -3.2500363  
C    1.6178831    0.7351382   -4.4698857  
C    2.7571743    0.4192955   -5.2535850  
N    3.5185102   -0.4613568   -4.5259610  
C    2.9748793    0.9607492   -6.5241053  
C    2.0250237    1.8367718   -7.0125064  
O    2.1878113    2.3942863   -8.2476954  
C    0.8817971    2.1645727   -6.2454364  
O    0.0290283    3.0512976   -6.8698153  
C    0.6665128    1.6310029   -4.9918487  
H    4.3833660   -0.8701682   -4.8307218  
H    1.4229298    2.9664850   -8.3919529  
H   -0.7162321    3.2195085   -6.2850968  
H   -0.2185375    1.9009313   -4.4276646  
H    3.3507356   -1.3850632   -2.6082022  
C    1.1319246    0.0015678   -0.8009268  
C    0.7969914    0.0034958   -2.1169401  
C   -0.6453340    0.0035696   -2.1842669  
C   -1.1266832    0.0015410   -0.7896025  
N    0.0000000    0.0000000    0.0000000  
C   -2.4346129    0.0013913   -0.4276292  
C   -3.4350111    0.0031335   -1.4820181  
O   -4.6384614    0.0030875   -1.2583914  
C   -2.9478961    0.0050442   -2.9661074  
O   -3.7809382    0.0062135   -3.8623773  
C   -1.5113825    0.0053055   -3.2312122  
H   -2.7664565    0.0000174    0.6013448  
H   -1.1823533    0.0068381   -4.2614848  
H    2.1104316    0.0009435   -0.3488059  
C    0.8676693    0.7151171    2.2619005  
C    0.5875920    0.4624972    3.5848544  
C   -0.5048400   -0.4542819    3.6114698  
C   -0.8517165   -0.7276451    2.2635546  
N    0.0000000    0.0000000    1.4700000  
C   -1.8902865   -1.5946756    1.9108239  
C   -2.5912627   -2.1969500    2.9375057  
O   -3.6148162   -3.0527051    2.6493466  
C   -2.2603868   -1.9365747    4.2886322  
O   -3.0513550   -2.6123276    5.1947621  
C   -1.2361111   -1.0811317    4.6373480  
H    1.1060808    0.8876438    4.4271209  
H   -2.1597133   -1.8070987    0.8854031  
H   -3.9636755   -3.3565188    3.4974381  
H   -2.7621927   -2.3810384    6.0827341  
H   -1.0058879   -0.9010589    5.6809233  
H    1.6167816    1.3499334    1.8205408  
