62

C    5.9289458   -2.3771656   -6.4372123  
C    5.4992129   -1.0738737   -6.5332720  
C    6.3028464   -0.4427643   -7.5284974  
C    7.2131736   -1.4187272   -8.0088380  
N    6.9602881   -2.5812214   -7.3238034  
C    8.1597264   -1.1465677   -9.0011861  
C    8.1876188    0.1340687   -9.5182651  
O    9.0916916    0.4539075  -10.4895364  
C    7.2877667    1.1216864   -9.0516890  
O    7.4412103    2.3478242   -9.6651902  
C    6.3538859    0.8539749   -8.0725446  
H    7.4433867   -3.4509799   -7.4584026  
H    8.8564223   -1.8859570   -9.3714852  
H    8.9427770    1.3836180  -10.7057001  
H    6.7962265    2.9569831   -9.2930002  
H    5.6778313    1.6308706   -7.7351129  
H    5.5823282   -3.1769380   -5.8054061  
C    4.1774649   -0.7039260   -4.3991482  
C    3.1006054    0.0006263   -3.9654951  
C    2.5992399    0.7428151   -5.0980249  
C    3.4785672    0.4104975   -6.2351873  
N    4.4147925   -0.4705965   -5.7452433  
C    3.3361156    0.9100880   -7.4889105  
C    2.2439822    1.8371252   -7.7346383  
O    2.0321273    2.3416470   -8.8295699  
C    1.3005623    2.2033757   -6.5448382  
O    0.3778220    2.9830422   -6.7395976  
C    1.5546720    1.6002373   -5.2388884  
H    3.9920978    0.6532718   -8.3090581  
H    0.8967555    1.8588593   -4.4203623  
H    4.8177812   -1.3738065   -3.8485622  
C    3.2798083    0.0005857   -1.4499652  
C    2.5571142    0.0005565   -2.5996556  
C    1.1637432    0.0001548   -2.2210361  
C    1.1336964   -0.0000200   -0.7459473  
N    2.4483512   -0.0001428   -0.3402723  
C    0.0000000    0.0000000    0.0000000  
C   -1.2757368   -0.0000186   -0.6964415  
O   -2.3524598   -0.0000639   -0.1142311  
C   -1.2676497   -0.0000872   -2.2584083  
O   -2.3355766   -0.0004101   -2.8557295  
C    0.0181558    0.0001758   -2.9516296  
H    0.0150788    0.0003319   -4.0331631  
H    4.3498547    0.0008612   -1.3200026  
H    2.7563626    0.0012823    0.6148059  
C    2.5285572    2.1210227    2.9438989  
C    1.9331703    1.6216660    4.0790748  
C    0.8903039    0.7472258    3.6520102  
C    0.8972198    0.7527806    2.2336141  
N    1.9028376    1.5986179    1.8362361  
C    0.0000000    0.0000000    1.4700000  
C   -0.9207814   -0.7726952    2.1506477  
O   -1.8198395   -1.5274828    1.4542253  
C   -0.9436862   -0.7911793    3.5655508  
O   -1.9197945   -1.6098497    4.0950179  
C   -0.0590329   -0.0485852    4.3195194  
H    2.2150357    1.8593692    5.0905303  
H    2.1533708    1.7953814    0.8841339  
H   -2.3621246   -1.9821033    2.1118817  
H   -1.8668290   -1.5649508    5.0545920  
H   -0.1007624   -0.0827977    5.4019087  
H    3.3491200    2.8096064    2.8367138  
