66

C    3.3041267    0.0001175   -1.5420439  
C    2.5845370   -0.0004782   -0.3695860  
C    1.2040003   -0.0000009   -0.7283592  
C    1.1422366    0.0006035   -2.1454375  
N    2.4348631    0.0026107   -2.6077472  
C   -0.0655191    0.0008795   -2.8497916  
C   -1.2321778    0.0002322   -2.1101394  
O   -2.4392824    0.0001145   -2.7472511  
C   -1.1911212   -0.0000009   -0.6955261  
O   -2.4371528   -0.0002321   -0.1032854  
C    0.0000000    0.0000000    0.0000000  
H    3.0031537   -0.0000662    0.6222575  
H   -0.1193561    0.0014840   -3.9297468  
H   -3.1132997   -0.0000649   -2.0551772  
H   -2.3200277   -0.0004071    0.8516418  
H    4.3686617    0.0004070   -1.7024307  
C    5.6718678   -2.1292829   -4.7374678  
C    5.4024558   -1.6450690   -5.9966031  
C    4.2795461   -0.7737664   -5.8761641  
C    3.9039350   -0.7655396   -4.5084013  
N    4.7686513   -1.6005167   -3.8453050  
C    2.8310651   -0.0116223   -4.0232761  
C    2.1246898    0.7480616   -4.9354667  
O    1.0681509    1.5033226   -4.5155605  
C    2.4839098    0.7526865   -6.3043187  
O    1.6833222    1.5594237   -7.0863539  
C    3.5420376    0.0089614   -6.7836564  
H    5.9474631   -1.8905999   -6.8919658  
H    4.7540920   -1.7863154   -2.8587714  
H    0.7213527    1.9477941   -5.3000615  
H    1.9931383    1.5056033   -7.9955959  
H    6.4359560   -2.8111065   -4.4054367  
C    4.2718523   -1.0419398   -8.9675669  
C    3.8830527    0.0407581   -8.2132013  
C    3.8803298    1.1731349   -9.0805621  
C    4.2791573    0.7162299  -10.3627872  
N    4.5110362   -0.6328422  -10.2586049  
C    4.3876767    1.5653643  -11.4682199  
C    4.0878318    2.9000001  -11.2758206  
O    4.1769038    3.7728343  -12.3214016  
C    3.6884825    3.3750133  -10.0039319  
O    3.4249044    4.7288838   -9.9738438  
C    3.5814702    2.5379396   -8.9128853  
H    4.7972766   -1.2323405  -11.0113654  
H    4.6912449    1.2233702  -12.4480612  
H    3.9285752    4.6398674  -11.9752061  
H    3.1621217    4.9677831   -9.0797096  
H    3.2733030    2.9306376   -7.9509604  
H    4.3988547   -2.0733632   -8.6865052  
C    0.8576279    0.7185626    2.2703808  
C    0.0000000    0.0000000    1.4700000  
C   -0.8668858   -0.7285659    2.3373528  
C   -0.4876752   -0.4117774    3.6669281  
N    0.5635254    0.4678311    3.5902241  
C   -1.1297612   -0.9515493    4.7854808  
C   -2.1738724   -1.8268314    4.5576857  
O   -2.8357962   -2.3827064    5.6140350  
C   -2.5667212   -2.1555554    3.2384331  
O   -3.6226318   -3.0413663    3.1773122  
C   -1.9335634   -1.6236449    2.1344818  
H    1.0363952    0.8769718    4.3757045  
H   -0.8454472   -0.7142436    5.8013813  
H   -3.5178062   -2.9546422    5.2385129  
H   -3.8247440   -3.2102924    2.2519915  
H   -2.2566033   -1.8942483    1.1360343  
H    1.6567807    1.3889844    2.0042067  
