62

C    7.4177558   -2.1322835   -4.0687412  
C    8.6341485   -1.6359574   -4.4768049  
C    8.3800382   -0.7623841   -5.5753943  
C    6.9785578   -0.7653196   -5.7939566  
N    6.4246816   -1.6088333   -4.8631919  
C    6.3687792   -0.0125562   -6.8020763  
C    7.1886935    0.7574284   -7.6039758  
O    6.6455488    1.5120724   -8.6032363  
C    8.5892932    0.7732743   -7.4017696  
O    9.2688338    1.5894243   -8.2823760  
C    9.1915665    0.0306954   -6.4076031  
H    9.5874682   -1.8750742   -4.0374886  
H    5.4444610   -1.8034488   -4.7668912  
H    7.3819602    1.9646244   -9.0346988  
H   10.2077038    1.5428448   -8.0775401  
H   10.2669014    0.0628514   -6.2768422  
H    7.1801157   -2.8193696   -3.2747653  
C    2.8699641   -0.0020527   -4.0185824  
C    4.1418711   -0.0047199   -4.5427127  
C    4.0070340   -0.0066609   -5.9627180  
C    2.6177782   -0.0047543   -6.2488845  
N    1.9559320   -0.0039232   -5.0461476  
C    2.1142961   -0.0055928   -7.5532209  
C    3.0299402   -0.0081002   -8.5875165  
O    2.5927437   -0.0086675   -9.8805249  
C    4.4200523   -0.0104052   -8.3221857  
O    5.2027708   -0.0131798   -9.4582705  
C    4.9174612   -0.0098529   -7.0356748  
H    5.0545875   -0.0063119   -3.9718018  
H    0.9584585    0.0079917   -4.9326308  
H    1.0566197   -0.0042943   -7.7779891  
H    3.3831284   -0.0107971  -10.4359999  
H    6.1269502   -0.0145805   -9.1908868  
C    3.2573673   -0.0002921   -1.5109381  
C    2.5379469   -0.0001710   -0.3591962  
C    1.1435042    0.0000332   -0.7338498  
C    1.1092607   -0.0000083   -2.2088474  
N    2.4227562    0.0001908   -2.6182610  
C   -0.0265532   -0.0002523   -2.9515663  
C   -1.3003033   -0.0002639   -2.2514979  
O   -2.3786784   -0.0004132   -2.8306425  
C   -1.2877726    0.0000312   -0.6895609  
O   -2.3539956    0.0003308   -0.0892035  
C    0.0000000    0.0000000    0.0000000  
H    2.9384091   -0.0000368    0.6389240  
H   -0.0296292   -0.0004086   -4.0327231  
H    4.3270395   -0.0004765   -1.6439444  
C    2.4951002    2.0940188    2.9809380  
C    1.9440701    1.6314916    1.8291961  
C    0.8759964    0.7350050    2.2038498  
C    0.8497377    0.7130254    3.6788474  
N    1.8560616    1.5571714    4.0882609  
C   -0.0205033   -0.0168748    4.4215661  
C   -0.9962600   -0.8356168    3.7214979  
O   -1.8224391   -1.5286685    4.3006425  
C   -0.9864710   -0.8277881    2.1595606  
O   -1.8030528   -1.5133726    1.5592035  
C    0.0000000    0.0000000    1.4700000  
H    2.2509283    1.8888011    0.8310761  
H   -0.0229599   -0.0187323    5.5027230  
H    3.3143982    2.7817323    3.1139444  
H    2.0889452    1.7545833    5.0442112  
