64

C    0.4919318   -0.3795913   -9.6915684  
C    1.2081847   -0.2322962  -10.8567943  
C    1.1203740    1.1419840  -11.2286052  
C    0.3313612    1.7899547  -10.2439629  
N   -0.0354712    0.8369219   -9.3264774  
C    0.0359788    3.1557579  -10.2900109  
C    0.5466507    3.8807031  -11.3491820  
O    0.2891969    5.2178520  -11.4427961  
C    1.3356793    3.2520537  -12.3416797  
O    1.7699806    4.1090202  -13.3317976  
C    1.6272575    1.9046429  -12.2970351  
H    1.7288800   -1.0188537  -11.3756368  
H   -0.5648896    3.6555476   -9.5427701  
H    0.7323344    5.5257893  -12.2440870  
H    2.2952740    3.6053747  -13.9610935  
H    2.2341700    1.4508905  -13.0717903  
H    0.3143512   -1.2564462   -9.0927785  
C    0.2278664   -0.7147031   -5.1416512  
C    0.4566972   -0.4621231   -6.4744326  
C   -0.5487152    0.4543751   -6.9031252  
C   -1.3694346    0.7276158   -5.7789872  
N   -0.8712826    0.0001710   -4.7267111  
C   -2.4650420    1.5943700   -5.8352954  
C   -2.7369115    2.1964888   -7.0484392  
O   -3.7946896    3.0519731   -7.1591910  
C   -1.9298750    1.9362321   -8.1814774  
O   -2.3299487    2.6118028   -9.3158885  
C   -0.8490363    1.0810615   -8.1267245  
H    1.2499573   -0.8871153   -7.0652905  
H   -3.0945512    1.8066988   -4.9821620  
H   -3.8053476    3.3557178   -8.0761917  
H   -1.7329154    2.3806103  -10.0340143  
H    0.7608759   -1.3493368   -4.4545558  
C    1.0965514    0.0001359   -0.8010305  
C    0.0000000    0.0000000    0.0000000  
C   -1.1546563    0.0001470   -0.8669513  
C   -0.6372014    0.0003519   -2.2486282  
N    0.7342871    0.0007337   -2.1395014  
C   -1.4147739    0.0001352   -3.3608717  
C   -2.8576049   -0.0001048   -3.1854462  
O   -3.6427779   -0.0002494   -4.1244907  
C   -3.4275840   -0.0000725   -1.7311666  
O   -4.6406831    0.0000333   -1.5710060  
C   -2.4891867   -0.0001091   -0.6116744  
H   -2.8919122   -0.0002918    0.3920866  
H    2.1388272    0.0000663   -0.5261648  
H    1.3735872   -0.0006099   -2.9130262  
C    2.5285572    2.1210227    2.9438989  
C    1.9331703    1.6216660    4.0790748  
C    0.8903039    0.7472258    3.6520102  
C    0.8972198    0.7527806    2.2336141  
N    1.9028376    1.5986179    1.8362361  
C    0.0000000    0.0000000    1.4700000  
C   -0.9207814   -0.7726952    2.1506477  
O   -1.8198395   -1.5274828    1.4542253  
C   -0.9436862   -0.7911793    3.5655508  
O   -1.9197945   -1.6098497    4.0950179  
C   -0.0590329   -0.0485852    4.3195194  
H    2.2150357    1.8593692    5.0905303  
H    2.1533708    1.7953814    0.8841339  
H   -2.3621246   -1.9821033    2.1118817  
H   -1.8668290   -1.5649508    5.0545920  
H   -0.1007624   -0.0827977    5.4019087  
H    3.3491200    2.8096064    2.8367138  
