64

C    4.0065894    0.7008284   -7.3962884  
C    5.0745459   -0.1327595   -7.1574003  
C    5.9158478   -0.0716754   -8.3076530  
C    5.3049498    0.8231618   -9.2230740  
N    4.1466491    1.2726297   -8.6391786  
C    5.8603568    1.1254723  -10.4700387  
C    7.0543640    0.5135320  -10.7987558  
O    7.6406060    0.7733833  -12.0036665  
C    7.6790457   -0.3825239   -9.8989373  
O    8.8625653   -0.9104783  -10.3721074  
C    7.1315562   -0.6814351   -8.6687216  
H    5.2277413   -0.7142697   -6.2644448  
H    3.5067323    1.9286893   -9.0491466  
H    5.3996583    1.8064992  -11.1722942  
H    8.4528238    0.2510323  -12.0304389  
H    9.2190106   -1.5045195   -9.7045257  
H    7.6329895   -1.3718458   -8.0006079  
C    2.8320533   -0.6842461   -3.3638063  
C    1.6628945    0.0339172   -3.2649299  
C    1.5251285    0.7739971   -4.4764999  
C    2.6497194    0.4643214   -5.2835457  
N    3.4240287   -0.4223174   -4.5771929  
C    2.8441970    1.0160065   -6.5534313  
C    1.8857971    1.8961102   -7.0171809  
O    2.0260214    2.4635787   -8.2506031  
C    0.7569697    2.2178789   -6.2265922  
O   -0.1068567    3.1097692   -6.8279903  
C    0.5646029    1.6742141   -4.9736158  
H    4.2830069   -0.8287905   -4.9011026  
H    1.2587968    3.0370519   -8.3761377  
H   -0.8411881    3.2733638   -6.2283248  
H   -0.3098402    1.9397122   -4.3910875  
H    3.2912524   -1.3614902   -2.6642092  
C    1.1243410    0.0100105   -0.7919003  
C    0.7474072    0.0234665   -2.1148542  
C   -0.6787384    0.0234379   -2.1414698  
C   -1.1201748    0.0098411   -0.7935547  
N    0.0000000    0.0000000    0.0000000  
C   -2.4730818    0.0063307   -0.4408240  
C   -3.3971962    0.0170429   -1.4675058  
O   -4.7313520    0.0145490   -1.1793468  
C   -2.9763654    0.0303020   -2.8186325  
O   -4.0166484    0.0394464   -3.7247625  
C   -1.6418567    0.0334992   -3.1673480  
H   -2.8160166   -0.0041569    0.5845966  
H   -5.1938823    0.0230023   -2.0274386  
H   -3.6464680    0.0481700   -4.6127343  
H   -1.3497475    0.0435647   -4.2109234  
H    2.1062466    0.0053162   -0.3505405  
C    2.5528530    2.1414826    2.8079335  
C    2.0663498    1.7338582    4.0032312  
C    0.9804344    0.8229586    3.6752840  
C    0.9495562    0.7966882    2.1971295  
N    1.8690446    1.5676019    1.6831036  
C    0.0000000    0.0000000    1.4700000  
C   -0.8785127   -0.7372425    2.1869543  
O   -1.8187535   -1.5261249    1.6395491  
C   -0.8723269   -0.7321790    3.6796354  
O   -1.7010379   -1.4274584    4.2670412  
C    0.1115397    0.0933559    4.4024240  
H    2.4028853    2.0163452    4.9860947  
H   -2.2861435   -1.9184361    2.3990168  
H    0.0832434    0.0693689    5.4835595  
H    3.3664920    2.8238276    2.6198634  
