62

C    9.8011329   -0.7161435    1.4645293  
C   11.1524365   -0.4674150    1.3968705  
C   11.3546893    0.4430041    0.3175966  
C   10.0797324    0.7166777   -0.2405389  
N    9.1590298   -0.0046812    0.4781857  
C    9.8987699    1.5783113   -1.3266464  
C   11.0253591    2.1747703   -1.8588241  
O   10.9057308    3.0251039   -2.9197836  
C   12.3060605    1.9139864   -1.3160455  
O   13.3281200    2.5836107   -1.9566247  
C   12.4853608    1.0638650   -0.2447514  
H   11.9005063   -0.8910116    2.0449076  
H    8.9297448    1.7909384   -1.7567412  
H   11.7992706    3.3254443   -3.1310855  
H   14.1582576    2.3524676   -1.5287842  
H   13.4786241    0.8833301    0.1493483  
H    9.2446951   -1.3458713    2.1374175  
C    6.7370872   -0.0041642    1.2348611  
C    5.4910181   -0.0032946    0.6950595  
C    5.6537434   -0.0009388   -0.7396357  
C    7.1071781   -0.0005334   -0.9932450  
N    7.7077100   -0.0021562    0.2445952  
C    7.6723921    0.0010928   -2.2270340  
C    6.7903705    0.0027666   -3.3822703  
O    7.2023933    0.0043591   -4.5348912  
C    5.2477320    0.0026235   -3.1371783  
O    4.4952264    0.0043300   -4.1020583  
C    4.7577216    0.0005129   -1.7610467  
H    4.5636986   -0.0040179    1.2397542  
H    8.7410247    0.0012316   -2.3911485  
H    7.0279714   -0.0058865    2.2727790  
C    3.3041270    0.0001177   -1.5420435  
C    2.5845370   -0.0004780   -0.3695856  
C    1.2040004   -0.0000007   -0.7283590  
C    1.1422370    0.0006038   -2.1454373  
N    2.4348634    0.0026110   -2.6077469  
C   -0.0655187    0.0008799   -2.8497918  
C   -1.2321769    0.0002326   -2.1101398  
O   -2.4392822    0.0001149   -2.7472517  
C   -1.1911211   -0.0000007   -0.6955263  
O   -2.4371526   -0.0002319   -0.1032858  
C    0.0000000    0.0000000    0.0000000  
H    3.0031534   -0.0000661    0.6222578  
H    2.7054623   -0.0071098   -3.5745266  
H   -0.1193555    0.0014846   -3.9297472  
H   -3.1132992   -0.0000646   -2.0551783  
H   -2.3200279   -0.0004070    0.8516411  
C    0.0000000    0.0000000    1.4700000  
C    1.0541688    0.0001722    2.3260392  
C    0.5103138    0.0000454    3.6635956  
C   -0.9576371   -0.0002459    3.5155732  
N   -1.2018458    0.0001392    2.1615969  
C   -1.8348311   -0.0008317    4.5510609  
C   -1.2972847   -0.0009736    5.9014604  
O   -2.0050672   -0.0014265    6.9001319  
C    0.2542623   -0.0004184    6.0817573  
O    0.7184670   -0.0002256    7.2139121  
C    1.0974552   -0.0000873    4.8889129  
H    2.0940752    0.0005483    2.0517982  
H   -2.9081052   -0.0011668    4.4207061  
H    2.1707277    0.0000911    5.0223670  
H   -2.1128194   -0.0014912    1.7406791  
