62

C    3.5969541   -2.1168510   -4.3914865  
C    2.5778385   -1.6546693   -5.1916477  
C    3.1643244   -0.7669234   -6.1416695  
C    4.5559234   -0.7268640   -5.8700560  
N    4.7843941   -1.5562590   -4.8002319  
C    5.4495935    0.0496386   -6.6138195  
C    4.9290141    0.7991239   -7.6508573  
O    5.7570944    1.5749117   -8.4094405  
C    3.5433171    0.7726596   -7.9371463  
O    3.1799646    1.5734732   -9.0001680  
C    2.6610651    0.0070608   -7.2036498  
H    1.5392941   -1.9233659   -5.1009807  
H    5.6815846   -1.7377174   -4.3877974  
H    6.5112720    0.0846282   -6.4117860  
H    5.1982827    2.0080825   -9.0677392  
H    2.2292181    1.4981223   -9.1266858  
H    3.5705569   -2.8009225   -3.5606385  
C   -0.9736295    0.0040466   -4.6965763  
C    0.3099700    0.0046193   -5.1397994  
C    0.2571079    0.0059529   -6.5827266  
C   -1.1727592    0.0061406   -6.9464165  
N   -1.8659233    0.0045496   -5.7579676  
C   -1.6422562    0.0076695   -8.2197097  
C   -0.6747200    0.0090086   -9.3043333  
O   -0.9976613    0.0103683  -10.4850139  
C    0.8447408    0.0085841   -8.9423346  
O    1.6686238    0.0093945   -9.8470312  
C    1.2283999    0.0071698   -7.5328468  
H    1.1930590    0.0039775   -4.5259859  
H   -2.6952653    0.0079092   -8.4648251  
H   -2.8659633    0.0058213   -5.6745059  
C    1.1188642    0.0008216   -0.8003808  
C    0.0000000    0.0000000    0.0000000  
C   -1.1323861    0.0008904   -0.8673528  
C   -0.6382661    0.0019681   -2.1969280  
N    0.7324017    0.0038477   -2.1202241  
C   -1.4770913    0.0027323   -3.3154808  
C   -2.8395472    0.0020956   -3.0876858  
O   -3.7039201    0.0024441   -4.1440350  
C   -3.3517867    0.0013945   -1.7684332  
O   -4.7300494    0.0012387   -1.7073122  
C   -2.5248543    0.0009134   -0.6644817  
H    1.3576316   -0.0056175   -2.9057045  
H   -4.5940031    0.0021847   -3.7685129  
H   -4.9934602    0.0007284   -0.7819915  
H   -2.9462576    0.0005617    0.3339659  
H    2.1619896    0.0009343   -0.5342067  
C    0.8175213    0.6860729    2.3021913  
C    0.0000000    0.0000000    1.4700000  
C   -0.8887526   -0.7456559    2.3478473  
C   -0.4549825   -0.3816753    3.7138435  
N    0.5448156    0.4573574    3.6934124  
C   -1.0945674   -0.9182058    4.8835240  
C   -2.1210866   -1.7789155    4.6970523  
O   -2.8083856   -2.3554314    5.6976972  
C   -2.5824069   -2.1655116    3.3310774  
O   -3.5227682   -2.9541547    3.2362962  
C   -1.9100805   -1.6015804    2.1470656  
H   -0.7567140   -0.6349833    5.8697035  
H   -3.4728268   -2.9124471    5.2533954  
H   -2.2742832   -1.9066565    1.1752040  
H    1.6189533    1.3585343    2.0405121  
