62

C   -8.3990762    0.6995258   -2.7550760  
C   -9.6925675    0.6548194   -2.2888690  
C  -10.1417477   -0.6910289   -2.4355966  
C   -9.0699977   -1.4281846   -3.0011767  
N   -8.0280572   -0.5532763   -3.1842378  
C   -9.1585484   -2.7943304   -3.2850664  
C  -10.3506381   -3.4279279   -2.9923983  
O  -10.4911240   -4.7611086   -3.2491208  
C  -11.4315218   -2.7094729   -2.4281907  
O  -12.5507440   -3.4816374   -2.1948545  
C  -11.3449637   -1.3616633   -2.1481135  
H  -10.2448555    1.4897846   -1.8928825  
H   -8.3453878   -3.3618333   -3.7162429  
H  -11.3862626   -4.9991724   -2.9746794  
H  -13.2331911   -2.9207106   -1.8137606  
H  -12.1896885   -0.8379328   -1.7161133  
H   -7.7122823    1.5262473   -2.8167495  
C   -3.9706103    0.7078764   -2.0752018  
C   -3.2578655    0.0024282   -2.9908505  
C   -4.2092627   -0.7390177   -3.7845364  
C   -5.5442815   -0.4052871   -3.2524286  
N   -5.3302410    0.4758321   -2.2176800  
C   -6.7107872   -0.9038561   -3.7345060  
C   -6.6471651   -1.8312060   -4.8518735  
O   -7.6419124   -2.3348780   -5.3569421  
C   -5.2439270   -2.1989459   -5.4310929  
O   -5.1778117   -2.9788878   -6.3716140  
C   -4.0578617   -1.5968206   -4.8273161  
H   -3.0900594   -1.8564716   -5.2343343  
H   -3.6169908    1.3775867   -1.3081744  
H   -6.0508612    0.8884930   -1.6542400  
C    0.0000000    0.0000000    0.0000000  
C    1.0521666   -0.0011982   -0.8862343  
C    0.4917215   -0.0011996   -2.1979132  
C   -0.9187429    0.0003215   -2.0478682  
N   -1.1833171   -0.0009323   -0.7007913  
C   -1.7951703    0.0010483   -3.1372089  
C   -1.2375841    0.0005313   -4.4010422  
O   -2.0474218    0.0015510   -5.4997578  
C    0.1673576   -0.0013585   -4.5711963  
O    0.5673520   -0.0020735   -5.8915554  
C    1.0325768   -0.0023493   -3.4969892  
H    2.0953056   -0.0030808   -0.6200564  
H   -2.0989778    0.0102529   -0.2891822  
H   -1.4634888    0.0006601   -6.2693595  
H    1.5290707   -0.0033271   -5.9180047  
H    2.1042146   -0.0039770   -3.6584456  
C    3.2573670    0.0002920    2.9809380  
C    2.5379467    0.0001709    1.8291961  
C    1.1435042   -0.0000331    2.2038498  
C    1.1092607    0.0000083    3.6788474  
N    2.4227561   -0.0001909    4.0882609  
C   -0.0265533    0.0002524    4.4215661  
C   -1.3003036    0.0002640    3.7214979  
O   -2.3786784    0.0004133    4.3006425  
C   -1.2877726   -0.0000311    2.1595606  
O   -2.3539958   -0.0003306    1.5592035  
C    0.0000000    0.0000000    1.4700000  
H    2.9384090    0.0000368    0.8310761  
H   -0.0296291    0.0004086    5.5027230  
H    4.3270393    0.0004765    3.1139444  
H    2.7280493    0.0013407    5.0442112  
