60

C    3.4175328   -0.7182628   -7.2783318  
C    2.5152334   -0.0008762   -8.0291188  
C    3.2661608    0.7263653   -8.9995962  
C    4.6329976    0.4100179   -8.7907736  
N    4.6896751   -0.4680634   -7.7370289  
C    5.6615089    0.9487707   -9.5696824  
C    5.3036628    1.8225601  -10.5779557  
O    6.2679625    2.3773924  -11.3687157  
C    3.9453437    2.1508227  -10.8016273  
O    3.7513487    3.0351105  -11.8426578  
C    2.9301895    1.6199172  -10.0334292  
H    5.5285994   -0.8765833   -7.3664904  
H    6.7051942    0.7117938   -9.4155218  
H    5.8093055    2.9483717  -11.9987005  
H    2.8079010    3.2038190  -11.9266083  
H    1.8989265    1.8901339  -10.2282576  
H    3.2544212   -1.3875066   -6.4510075  
C   -0.0307354   -0.0004645   -4.4215603  
C    1.0209938   -0.0006518   -5.2805949  
C    0.4733361   -0.0007738   -6.6165986  
C   -0.9941877   -0.0006121   -6.4644009  
N   -1.2345439   -0.0008268   -5.1097353  
C   -1.8743241   -0.0002659   -7.4973894  
C   -1.3406216   -0.0002634   -8.8493122  
O   -2.0512423   -0.0000274   -9.8459671  
C    0.2104061   -0.0006851   -9.0340223  
O    0.6713883   -0.0009936  -10.1674938  
C    1.0569891   -0.0007575   -7.8435816  
H    2.0616762   -0.0008815   -5.0093135  
H   -2.9472234   -0.0000222   -7.3639817  
H   -2.1443165    0.0007705   -4.6862281  
C    3.2573669   -0.0002919   -1.5109381  
C    2.5379467   -0.0001709   -0.3591962  
C    1.1435042    0.0000332   -0.7338501  
C    1.1092607   -0.0000081   -2.2088477  
N    2.4227561    0.0001910   -2.6182614  
C   -0.0265534   -0.0002522   -2.9515663  
C   -1.3003036   -0.0002639   -2.2514981  
O   -2.3786785   -0.0004131   -2.8306428  
C   -1.2877726    0.0000312   -0.6895608  
O   -2.3539957    0.0003306   -0.0892035  
C    0.0000000    0.0000000    0.0000000  
H    2.9384091   -0.0000368    0.6389238  
H    4.3270391   -0.0004764   -1.6439447  
H    2.7280492   -0.0013405   -3.5742114  
C    2.3971438    2.0127888    3.1728260  
C    1.9431056    1.6308205    1.9564670  
C    0.8496017    0.7127664    2.2356185  
C    0.7794028    0.6545384    3.7115134  
N    1.6840587    1.4146091    4.2663826  
C   -0.1885723   -0.1578550    4.3957118  
C   -1.0476298   -0.8789867    3.6398520  
O   -2.0015663   -1.6796266    4.1448486  
C   -1.0022026   -0.8410666    2.1483229  
O   -1.8147390   -1.5232959    1.5241687  
C    0.0000000    0.0000000    1.4700000  
H    2.3054237    1.9346118    0.9892483  
H   -0.2170646   -0.1815267    5.4753125  
H   -2.4487139   -2.0549881    3.3649027  
H    3.2048689    2.6911772    3.3971983  
