60

C    0.0472461   -3.2297298  -10.3119085  
C   -0.1292023   -2.4627270  -11.4401997  
C   -0.3500972   -1.1231788  -11.0026881  
C   -0.2965136   -1.1340794   -9.5853189  
N   -0.0556132   -2.4290520   -9.1984981  
C   -0.4717744    0.0181291   -8.8129927  
C   -0.7050810    1.2029785   -9.4837222  
O   -0.8829164    2.3580101   -8.7785350  
C   -0.7624696    1.2340554  -10.8974259  
O   -1.0030637    2.4894528  -11.4164972  
C   -0.5899312    0.0977129  -11.6599758  
H   -0.1031324   -2.8244319  -12.4538477  
H    0.0445641   -2.7423003   -8.2499088  
H   -1.0299981    3.0558682   -9.4301672  
H   -1.0264482    2.4225006  -12.3759623  
H   -0.6394679    0.1524235  -12.7411929  
H    0.2369081   -4.2848358  -10.2132284  
C    2.1451928   -2.0951773   -5.9900943  
C    1.6340471   -1.6323753   -4.8202142  
C    0.5538825   -0.7357923   -5.1581773  
C    0.4770637   -0.7140560   -6.6314112  
N    1.4686359   -1.5584204   -7.0749457  
C   -0.4180294    0.0158494   -7.3439773  
C   -1.3690894    0.8348538   -6.6110028  
O   -2.2145426    1.5279314   -7.1615959  
C   -1.3057473    0.8272853   -5.0503184  
O   -2.1011641    1.5130918   -4.4224315  
C   -0.2963293   -0.0005341   -4.3948471  
H    1.9749143   -1.8895634   -3.8331592  
H    2.9593495   -2.7830349   -6.1509984  
H    1.6685743   -1.7560271   -8.0382850  
C    3.1301146   -0.0010313   -1.7028256  
C    2.5367765   -0.0002766   -0.4864669  
C    1.1089901    0.0001027   -0.7656184  
C    1.0177865   -0.0004150   -2.2415133  
N    2.1993571   -0.0011612   -2.7963824  
C   -0.2459219   -0.0002879   -2.9257116  
C   -1.3675326   -0.0000606   -2.1698520  
O   -2.6129318    0.0000865   -2.6748483  
C   -1.3083588    0.0000910   -0.6783229  
O   -2.3693264    0.0004206   -0.0541685  
C    0.0000000    0.0000000    0.0000000  
H    3.0096016   -0.0001007    0.4807518  
H   -3.1967444    0.0002093   -1.8949026  
H    4.1849275   -0.0015114   -1.9271979  
C    2.5128556    2.1077716    2.9199648  
C    1.9592212    1.6432552    4.0696553  
C    0.8915788    0.7479214    3.6910360  
C    0.8684491    0.7287414    2.2159470  
N    1.8754542    1.5738793    1.8102719  
C    0.0000000    0.0000000    1.4700000  
C   -0.9772830   -0.8200135    2.1664417  
O   -1.8021297   -1.5120829    1.5842315  
C   -0.9711318   -0.8147624    3.7284083  
O   -1.7894187   -1.5009653    4.3257297  
C    0.0140216    0.0115358    4.4216297  
H    2.2638494    1.8988021    5.0689105  
H    0.0117648    0.0094386    5.5031631  
H    3.3327358    2.7953732    2.7900019  
H    2.1123206    1.7707734    0.8551938  
