64

C   -6.3786557    1.0449327   -1.2237931  
C   -6.2892738    1.9293645   -0.1739077  
C   -7.6184719    2.1633499    0.2877003  
C   -8.4840406    1.3878185   -0.5254837  
N   -7.6989457    0.7225321   -1.4341294  
C   -9.8715270    1.3732196   -0.3538542  
C  -10.3947324    2.1555356    0.6572918  
O  -11.7429691    2.1781759    0.8688565  
C   -9.5474536    2.9364923    1.4789019  
O  -10.2200568    3.6613907    2.4409166  
C   -8.1785990    2.9515895    1.3099819  
H   -5.3782269    2.3545285    0.2110887  
H   -8.0342456    0.0871390   -2.1354358  
H  -10.5366924    0.7844294   -0.9703630  
H  -11.8929390    2.7789094    1.6104045  
H   -9.5753917    4.1603847    2.9518137  
H   -7.5550966    3.5599271    1.9546890  
C   -3.9753708    0.7163942   -1.9468222  
C   -5.3225289    0.4642673   -2.0654132  
C   -5.4809794   -0.4521807   -3.1469013  
C   -4.1848138   -0.7258596   -3.6538346  
N   -3.2941076    0.0012878   -2.9038237  
C   -3.9601739   -1.5926928   -4.7275789  
C   -5.0640891   -2.1944415   -5.2998089  
O   -4.9017348   -3.0499835   -6.3508574  
C   -6.3653756   -1.9337448   -4.8083753  
O   -7.3604937   -2.6089828   -5.4844947  
C   -6.5877575   -1.0784963   -3.7493085  
H   -2.9747914   -1.8053541   -5.1187286  
H   -5.7858060   -3.3534308   -6.5949955  
H   -8.2070447   -2.3775040   -5.0903207  
H   -7.5959001   -0.8981678   -3.3948954  
H   -3.4466929    1.3508520   -1.2562269  
C    0.0000000    0.0000000    0.0000000  
C    1.0541688   -0.0001723   -0.8560392  
C    0.5103136   -0.0000455   -2.1935956  
C   -0.9576373    0.0002461   -2.0455730  
N   -1.2018460   -0.0001389   -0.6915968  
C   -1.8348314    0.0008319   -3.0810607  
C   -1.2972851    0.0009739   -4.4314603  
O   -2.0050676    0.0014268   -5.4301316  
C    0.2542619    0.0004184   -4.6117572  
O    0.7184666    0.0002257   -5.7439122  
C    1.0974551    0.0000873   -3.4189129  
H    2.0940752   -0.0005484   -0.5817983  
H    2.1707276   -0.0000912   -3.5523673  
H   -2.1128194    0.0014915   -0.2706789  
C    3.3041272   -0.0001177    3.0120429  
C    2.5845372    0.0004780    1.8395852  
C    1.2040006    0.0000008    2.1983588  
C    1.1422373   -0.0006037    3.6154372  
N    2.4348639   -0.0026109    4.0777464  
C   -0.0655181   -0.0008797    4.3197917  
C   -1.2321768   -0.0002324    3.5801400  
O   -2.4392816   -0.0001146    4.2172520  
C   -1.1911209    0.0000007    2.1655264  
O   -2.4371527    0.0002320    1.5732860  
C    0.0000000    0.0000000    1.4700000  
H    3.0031534    0.0000661    0.8477417  
H    2.7054629    0.0071099    5.0445261  
H   -0.1193549   -0.0014844    5.3997470  
H   -3.1132988    0.0000648    3.5251786  
H   -2.3200282    0.0004071    0.6183591  
H    4.3686625   -0.0004071    3.1724291  
