64

C    7.5924688   -5.3371512   -1.4140212  
C    6.5997844   -4.4135240   -1.6463138  
C    7.2414404   -3.1579728   -1.8618791  
C    8.6378761   -3.3792704   -1.7482073  
N    8.8162415   -4.7125486   -1.4740299  
C    9.5804437   -2.3582509   -1.9027220  
C    9.1046647   -1.0908017   -2.1772850  
O    9.9814676   -0.0571606   -2.3379602  
C    7.7149884   -0.8500229   -2.2940890  
O    7.3998547    0.4645688   -2.5695570  
C    6.7845377   -1.8567542   -2.1415113  
H    5.5431065   -4.6191765   -1.6577672  
H    9.7034131   -5.1659901   -1.3503498  
H   10.6460880   -2.5203716   -1.8171647  
H    9.4481185    0.7275790   -2.5195885  
H    6.4428888    0.5411889   -2.6323953  
H    7.5243129   -6.3917719   -1.2088650  
C    4.3489004   -2.1006737   -1.4732765  
C    3.1285975   -1.6364581   -1.8466929  
C    3.3412599   -0.7405810   -2.9589044  
C    4.7959149   -0.7207996   -3.2046236  
N    5.3494458   -1.5655068   -2.2702987  
C    5.4017638    0.0079522   -4.1760003  
C    4.5653394    0.8276897   -5.0367904  
O    5.0159498    1.5198386   -5.9402172  
C    3.0222818    0.8221878   -4.7944084  
O    2.3079743    1.5086269   -5.5126189  
C    2.4861704   -0.0045255   -3.7159919  
H    2.1869567   -1.8922660   -1.3944885  
H    6.4704903    0.0081992   -4.3395027  
H    4.6014745   -2.7885460   -0.6827525  
C    0.0000000    0.0000000    0.0000000  
C    1.0521669   -0.0011848   -0.8862341  
C    0.4917221   -0.0011931   -2.1979130  
C   -0.9187427    0.0003100   -2.0478683  
N   -1.1833170   -0.0009472   -0.7007915  
C   -1.7951698    0.0010259   -3.1372090  
C   -1.2375835    0.0005161   -4.4010425  
O   -2.0474208    0.0015256   -5.4997580  
C    0.1673584   -0.0013557   -4.5711962  
O    0.5673529   -0.0020659   -5.8915551  
C    1.0325773   -0.0023359   -3.4969890  
H    2.0953059   -0.0030542   -0.6200560  
H   -2.0989777    0.0102265   -0.2891825  
H   -2.8710930    0.0020274   -3.0295514  
H   -1.4634881    0.0006427   -6.2693593  
H    1.5290715   -0.0033076   -5.9180042  
C    3.3003543   -0.0005276    2.9438989  
C    2.5232812   -0.0003497    4.0790748  
C    1.1623199    0.0001319    3.6520102  
C    1.1711883   -0.0000583    2.2336141  
N    2.4852299    0.0014920    1.8362361  
C    0.0000000    0.0000000    1.4700000  
C   -1.2020384   -0.0000520    2.1506477  
O   -2.3759250   -0.0003494    1.4542253  
C   -1.2314658    0.0005113    3.5655508  
O   -2.5054393    0.0008037    4.0950179  
C   -0.0764518    0.0007272    4.3195194  
H    2.8919952    0.0005619    5.0905303  
H    2.8036267   -0.0088181    0.8841339  
H   -3.0835639   -0.0000348    2.1118817  
H   -2.4360050    0.0011527    5.0545920  
H   -0.1304098    0.0013421    5.4019087  
H    4.3715549   -0.0004895    2.8367138  
