62

C    1.2378925   -1.0660627   -7.7131804  
C    2.2875926   -1.9521049   -7.7875161  
C    2.5197244   -2.2074215   -9.1715430  
C    1.5731972   -1.4426429   -9.9003268  
N    0.8092797   -0.7629654   -8.9843096  
C    1.5097693   -1.4494363  -11.2970085  
C    2.4186049   -2.2424855  -11.9702608  
O    2.4011141   -2.2860388  -13.3343758  
C    3.3703704   -3.0129887  -11.2608360  
O    4.2057413   -3.7507325  -12.0739978  
C    3.4333454   -3.0069817   -9.8829669  
H    2.8197416   -2.3646246   -6.9474939  
H    0.0619050   -0.1306511   -9.2070001  
H    0.7906683   -0.8689331  -11.8583572  
H    3.1068101   -2.8911213  -13.5973095  
H    4.8173193   -4.2414507  -11.5165286  
H    4.1732531   -3.6077395   -9.3671140  
C    0.9246155   -0.7181122   -5.2309988  
C    0.0950446    0.0004351   -4.4015596  
C   -0.8009650    0.7292744   -5.2385542  
C   -0.4676168    0.4126610   -6.5804038  
N    0.5854648   -0.4671111   -6.5399388  
C   -1.1476011    0.9527177   -7.6761910  
C   -2.1831566    1.8281098   -7.4125793  
O   -2.8808312    2.3842615   -8.4455168  
C   -2.5304872    2.1566625   -6.0805770  
O   -3.5835491    3.0426139   -5.9831355  
C   -1.8599253    1.6244710   -4.9990750  
H   -0.8983257    0.7155466   -8.7012824  
H   -3.5494779    2.9562300   -8.0467325  
H   -3.7537872    3.2114094   -5.0514002  
H   -2.1484976    1.8949484   -3.9900921  
H    1.7323258   -1.3886940   -4.9924969  
C    3.3321173    0.0004713   -1.3379338  
C    2.6974181    0.0000116   -2.5332314  
C    1.2800438   -0.0002119   -2.2052841  
C    1.2395034    0.0000643   -0.7271299  
N    2.4394062    0.0005460   -0.2131038  
C    0.0000000    0.0000000    0.0000000  
C   -1.1468702    0.0000634   -0.7169543  
O   -2.3742203    0.0000074   -0.1695487  
C   -1.1388770    0.0001607   -2.2096355  
O   -2.2206234    0.0000905   -2.7970411  
C    0.1454522    0.0001815   -2.9324241  
H    3.1367984   -0.0000653   -3.5160950  
H   -2.9844346    0.0001026   -0.9290167  
H    4.3940038    0.0007618   -1.1498640  
C    2.5528530    2.1414826    2.8079335  
C    2.0663498    1.7338582    4.0032312  
C    0.9804344    0.8229586    3.6752840  
C    0.9495562    0.7966882    2.1971295  
N    1.8690446    1.5676019    1.6831036  
C    0.0000000    0.0000000    1.4700000  
C   -0.8785127   -0.7372425    2.1869543  
O   -1.8187535   -1.5261249    1.6395491  
C   -0.8723269   -0.7321790    3.6796354  
O   -1.7010379   -1.4274584    4.2670412  
C    0.1115397    0.0933559    4.4024240  
H    2.4028853    2.0163452    4.9860947  
H   -2.2861435   -1.9184361    2.3990168  
H    0.0832434    0.0693689    5.4835595  
H    3.3664920    2.8238276    2.6198634  
