62

C    1.0921892   -0.9841730   -9.4994624  
C    0.6274377    0.0907196   -8.7776038  
C    0.7191752    1.2333341   -9.6264953  
C    1.2512524    0.7904320  -10.8644999  
N    1.4681350   -0.5605208  -10.7526713  
C    1.4783798    1.6523000  -11.9417125  
C    1.1623414    2.9855089  -11.7660666  
O    1.3638099    3.8704253  -12.7855501  
C    0.6308788    3.4466417  -10.5381733  
O    0.3682041    4.8008974  -10.5198168  
C    0.4068041    2.5970004   -9.4749590  
H    1.8316696   -1.1519397  -11.4779628  
H    1.8837945    1.3210100  -12.8878030  
H    1.0817358    4.7340722  -12.4572039  
H    0.0122618    5.0299889   -9.6558571  
H   -0.0011802    2.9792178   -8.5465534  
H    1.1865871   -2.0192678   -9.2190584  
C    2.0510680   -2.1230737   -5.2235531  
C    1.1049647   -1.6611196   -4.3381413  
C    0.2551153   -0.7735538   -5.0624222  
C    0.7354331   -0.7333645   -6.3964410  
N    1.8277567   -1.5625121   -6.4593732  
C    0.1362323    0.0430191   -7.3929224  
C   -0.9681445    0.7922492   -7.0362952  
O   -1.5919782    1.5679116   -7.9702089  
C   -1.4620705    0.7656521   -5.7103442  
O   -2.5682024    1.5662137   -5.5130672  
C   -0.8712826    0.0001710   -4.7267111  
H    1.0365101   -1.9298485   -3.2979049  
H    2.3720273   -1.7438347   -7.2833107  
H   -2.3277822    2.0009093   -7.5181345  
H   -2.8379857    1.4907870   -4.5926695  
H    2.8683639   -2.8069633   -5.0709720  
C    1.0965514    0.0001359   -0.8010305  
C    0.0000000    0.0000000    0.0000000  
C   -1.1546563    0.0001470   -0.8669513  
C   -0.6372014    0.0003519   -2.2486282  
N    0.7342871    0.0007337   -2.1395014  
C   -1.4147739    0.0001352   -3.3608717  
C   -2.8576049   -0.0001048   -3.1854462  
O   -3.6427779   -0.0002494   -4.1244907  
C   -3.4275840   -0.0000725   -1.7311666  
O   -4.6406831    0.0000333   -1.5710060  
C   -2.4891867   -0.0001091   -0.6116744  
H   -2.8919122   -0.0002918    0.3920866  
H    2.1388272    0.0000663   -0.5261648  
H    1.3735872   -0.0006099   -2.9130262  
C    2.5128556    2.1077716    2.9199648  
C    1.9592212    1.6432552    4.0696553  
C    0.8915788    0.7479214    3.6910360  
C    0.8684491    0.7287414    2.2159470  
N    1.8754542    1.5738793    1.8102719  
C    0.0000000    0.0000000    1.4700000  
C   -0.9772830   -0.8200135    2.1664417  
O   -1.8021297   -1.5120829    1.5842315  
C   -0.9711318   -0.8147624    3.7284083  
O   -1.7894187   -1.5009653    4.3257297  
C    0.0140216    0.0115358    4.4216297  
H    2.2638494    1.8988021    5.0689105  
H    0.0117648    0.0094386    5.5031631  
H    3.3327358    2.7953732    2.7900019  
H    2.1123206    1.7707734    0.8551938  
