62

C    6.5041864   -3.1350195   -7.6435675  
C    7.1201098   -3.0438724   -8.8702686  
C    7.0177591   -1.6837149   -9.2875170  
C    6.3236955   -0.9860960   -8.2659843  
N    6.0248498   -1.8972736   -7.2836080  
C    6.0422508    0.3813678   -8.3409582  
C    6.4695046    1.0569577   -9.4675505  
O    6.2214346    2.3933693   -9.5919612  
C    7.1631506    0.3783406  -10.4976715  
O    7.5218340    1.1896866  -11.5542736  
C    7.4409111   -0.9707413  -10.4245020  
H    7.5849177   -3.8578452   -9.3997933  
H    5.5135451    0.9188618   -7.5658633  
H    6.5983003    2.6632879  -10.4395346  
H    7.9852665    0.6540598  -12.2053782  
H    7.9738547   -1.4633902  -11.2293295  
H    6.3676177   -3.9853032   -6.9975602  
C    5.6351517   -2.1207166   -4.7862944  
C    4.7953964   -1.6469396   -3.8300408  
C    3.8703597   -0.7538892   -4.4870060  
C    4.2426841   -0.7461861   -5.9146283  
N    5.3197300   -1.5944762   -6.0298053  
C    3.6068915   -0.0233213   -6.8711528  
C    2.4808711    0.8023737   -6.4676175  
O    1.8433182    1.4899655   -7.2544106  
C    2.0692939    0.8096662   -4.9608473  
O    1.1230562    1.5012096   -4.6091898  
C    2.8310662   -0.0116220   -4.0232752  
H    4.8211528   -1.8946399   -2.7838117  
H    3.8959301   -0.0319315   -7.9129257  
H    6.4580361   -2.8098647   -4.6871664  
C    3.3041270    0.0001177   -1.5420434  
C    2.5845372   -0.0004781   -0.3695856  
C    1.2040006   -0.0000008   -0.7283592  
C    1.1422371    0.0006037   -2.1454375  
N    2.4348636    0.0026109   -2.6077467  
C   -0.0655183    0.0008798   -2.8497920  
C   -1.2321770    0.0002326   -2.1101400  
O   -2.4392818    0.0001147   -2.7472520  
C   -1.1911210   -0.0000007   -0.6955263  
O   -2.4371527   -0.0002320   -0.1032859  
C    0.0000000    0.0000000    0.0000000  
H    3.0031533   -0.0000660    0.6222577  
H   -0.1193553    0.0014844   -3.9297472  
H   -3.1132989   -0.0000648   -2.0551784  
H   -2.3200282   -0.0004069    0.8516410  
H    4.3686624    0.0004070   -1.7024294  
C    2.5528530    2.1414826    2.8079335  
C    2.0663498    1.7338582    4.0032312  
C    0.9804344    0.8229586    3.6752840  
C    0.9495562    0.7966882    2.1971295  
N    1.8690446    1.5676019    1.6831036  
C    0.0000000    0.0000000    1.4700000  
C   -0.8785127   -0.7372425    2.1869543  
O   -1.8187535   -1.5261249    1.6395491  
C   -0.8723269   -0.7321790    3.6796354  
O   -1.7010379   -1.4274584    4.2670412  
C    0.1115397    0.0933559    4.4024240  
H    2.4028853    2.0163452    4.9860947  
H   -2.2861435   -1.9184361    2.3990168  
H    0.0832434    0.0693689    5.4835595  
H    3.3664920    2.8238276    2.6198634  
