62

C   -3.2578652    0.0024039   -2.9908507  
C   -4.0349370    0.0043587   -1.8556754  
C   -5.3958972    0.0056179   -2.2827405  
C   -5.3870307    0.0040490   -3.7011356  
N   -4.0729884    0.0040658   -4.0985152  
C   -6.5582193    0.0043937   -4.4647492  
C   -7.7602567    0.0060510   -3.7841021  
O   -8.9341432    0.0061072   -4.4805238  
C   -7.7896818    0.0080075   -2.3692002  
O   -9.0636546    0.0099261   -1.8397339  
C   -6.6346677    0.0079419   -1.6152323  
H   -3.6662213    0.0059254   -0.8442213  
H   -3.7546020   -0.0074429   -5.0506068  
H   -6.5582194    0.0033485   -5.5460456  
H   -9.6417813    0.0076765   -3.8228683  
H   -8.9942189    0.0111418   -0.8801607  
H   -6.6886244    0.0096502   -0.5328440  
C    0.0000000    0.0000000    0.0000000  
C    1.0521668   -0.0011902   -0.8862340  
C    0.4917219   -0.0011956   -2.1979129  
C   -0.9187425    0.0003149   -2.0478680  
N   -1.1833171   -0.0009411   -0.7007913  
C   -1.7951698    0.0010351   -3.1372090  
C   -1.2375834    0.0005226   -4.4010421  
O   -2.0474212    0.0015361   -5.4997584  
C    0.1673583   -0.0013565   -4.5711959  
O    0.5673528   -0.0020685   -5.8915549  
C    1.0325773   -0.0023411   -3.4969889  
H    2.0953059   -0.0030649   -0.6200560  
H   -2.0989777    0.0102372   -0.2891824  
H   -1.4634882    0.0006499   -6.2693595  
H    1.5290714   -0.0033151   -5.9180044  
C    4.3488888   -2.1006961   -1.4732760  
C    3.1285887   -1.6364739   -1.8466927  
C    3.3412558   -0.7405982   -2.9589041  
C    4.7959109   -0.7208242   -3.2046231  
N    5.3494375   -1.5655342   -2.2702980  
C    5.4017636    0.0079245   -4.1759997  
C    4.5653435    0.8276663   -5.0367899  
O    5.0159578    1.5198131   -5.9402169  
C    3.0222860    0.8221725   -4.7944082  
O    2.3079823    1.5086153   -5.5126190  
C    2.4861705   -0.0045381   -3.7159918  
H    2.1869466   -1.8922771   -1.3944883  
H    6.4704906    0.0081661   -4.3395019  
H    4.6014598   -2.7885695   -0.6827520  
H    6.3291233   -1.7643638   -2.1823793  
C    3.3321173   -0.0004715    2.8079335  
C    2.6974184   -0.0000116    4.0032312  
C    1.2800439    0.0002118    3.6752840  
C    1.2395035   -0.0000644    2.1971295  
N    2.4394063   -0.0005460    1.6831036  
C    0.0000000    0.0000000    1.4700000  
C   -1.1468701   -0.0000635    2.1869543  
O   -2.3742202   -0.0000073    1.6395491  
C   -1.1388768   -0.0001607    3.6796354  
O   -2.2206231   -0.0000905    4.2670412  
C    0.1454524   -0.0001816    4.4024240  
H    3.1367986    0.0000651    4.9860947  
H   -2.9844344   -0.0001026    2.3990168  
H    0.1083576   -0.0003682    5.4835595  
H    4.3940039   -0.0007619    2.6198634  
