62

C   -1.0714891    0.3408123   -0.7919010  
C   -0.7175115    0.2105797   -2.1148549  
C    0.6376482   -0.2337551   -2.1414699  
C    1.0613451   -0.3583782   -0.7935544  
N    0.0000000    0.0000000    0.0000000  
C    2.3479973   -0.7765847   -0.4408233  
C    3.2227707   -1.0747019   -1.4675046  
O    4.4912882   -1.4880315   -1.1793450  
C    2.8187588   -0.9561781   -2.8186313  
O    3.8044064   -1.2890013   -3.7247605  
C    1.5496868   -0.5434067   -3.1673474  
H    2.6771277   -0.8734716    0.5845979  
H    4.9281600   -1.6401807   -2.0274359  
H    3.4499365   -1.1819497   -4.6127328  
H    1.2689836   -0.4619556   -4.2109230  
H   -2.0030520    0.6512177   -0.3505420  
C   -3.6884934    3.3785238   -2.9109880  
C   -2.7393042    2.5864165   -2.3491336  
C   -2.4480560    1.5393839   -3.2997819  
C   -3.3115435    1.7882297   -4.4699338  
N   -4.0389763    2.9170361   -4.1707222  
C   -3.3339229    1.0175741   -5.5867569  
C   -2.4486256   -0.1339363   -5.6397505  
O   -2.3950807   -0.8892673   -6.6014722  
C   -1.5256759   -0.4166032   -4.4117166  
O   -0.7763149   -1.3833658   -4.4447244  
C   -1.5906809    0.4858985   -3.2649310  
H   -2.2941184    2.7202104   -1.3793282  
H   -3.9748773    1.2176909   -6.4341303  
H   -4.7182276    3.3415183   -4.7752714  
C   -3.1082383    5.3860893    0.9126860  
C   -3.9778896    6.4194825    0.8267580  
C   -4.6049961    6.2744639   -0.4779286  
C   -3.9784673    5.0684266   -1.0606126  
N   -3.1003191    4.5433084   -0.2499978  
C   -4.3336991    4.5812554   -2.3650511  
C   -5.2724499    5.2674880   -3.0558233  
O   -5.6999583    4.9263032   -4.2833699  
C   -5.9233305    6.4880264   -2.4947534  
O   -6.7696905    7.0626812   -3.1793462  
C   -5.5417724    6.9677757   -1.1545371  
H   -4.1701575    7.1855059    1.5584114  
H   -6.3653920    5.6006639   -4.5105003  
H   -6.0366167    7.8554620   -0.7838987  
H   -2.4481162    5.1397657    1.7291032  
C    0.8676693    0.7151171    2.2619005  
C    0.5875920    0.4624972    3.5848544  
C   -0.5048400   -0.4542819    3.6114698  
C   -0.8517165   -0.7276451    2.2635546  
N    0.0000000    0.0000000    1.4700000  
C   -1.8902865   -1.5946756    1.9108239  
C   -2.5912627   -2.1969500    2.9375057  
O   -3.6148162   -3.0527051    2.6493466  
C   -2.2603868   -1.9365747    4.2886322  
O   -3.0513550   -2.6123276    5.1947621  
C   -1.2361111   -1.0811317    4.6373480  
H    1.1060808    0.8876438    4.4271209  
H   -2.1597133   -1.8070987    0.8854031  
H   -3.9636755   -3.3565188    3.4974381  
H   -2.7621927   -2.3810384    6.0827341  
H   -1.0058879   -0.9010589    5.6809233  
H    1.6167816    1.3499334    1.8205408  
