64

C   -2.4861723   -0.0028427   -3.7159923  
C   -3.5192700   -0.0034901   -2.8076001  
C   -4.7328130   -0.0050762   -3.5572067  
C   -4.3743080   -0.0056192   -4.9295769  
N   -3.0028519   -0.0022812   -4.9905081  
C   -5.3209189   -0.0074425   -5.9585150  
C   -6.6537171   -0.0090482   -5.5954394  
O   -7.6195174   -0.0112138   -6.5599278  
C   -7.0312839   -0.0081627   -4.2315260  
O   -8.3964989   -0.0095664   -4.0327047  
C   -6.0979688   -0.0060910   -3.2159256  
H   -3.4114733   -0.0017874   -1.7364465  
H   -2.4594037   -0.0123786   -5.8346315  
H   -8.4675263   -0.0117475   -6.0971681  
H   -8.5659330   -0.0088702   -3.0856591  
H   -6.4172794   -0.0052748   -2.1803008  
C    0.0000000    0.0000000    0.0000000  
C   -1.0521655   -0.0019335   -0.8862343  
C   -0.4917230   -0.0002641   -2.1979132  
C    0.9187403    0.0024127   -2.0478682  
N    1.1833092    0.0044540   -0.7007915  
C    1.7951652    0.0042944   -3.1372092  
C    1.2375800    0.0031516   -4.4010424  
O    2.0474166    0.0045422   -5.4997579  
C   -0.1673613    0.0008597   -4.5711967  
O   -0.5673559    0.0003843   -5.8915554  
C   -1.0325791   -0.0007242   -3.4969893  
H   -2.0953050   -0.0031555   -0.6200560  
H    2.0989990   -0.0040058   -0.2891825  
H    2.8710864    0.0064815   -3.0295515  
H    1.4634843    0.0036949   -6.2693593  
H   -1.5290736   -0.0012242   -5.9180046  
C   -4.9582778   -0.0078213   -7.3830823  
C   -3.7200005   -0.0077264   -7.9823621  
C   -3.9395392   -0.0088761   -9.3917597  
C   -5.3434268   -0.0093559   -9.5943056  
N   -5.9321387   -0.0106452   -8.3541312  
C   -5.9240325   -0.0101772  -10.8661887  
C   -5.0718981   -0.0102134  -11.9534071  
O   -5.5856603   -0.0106479  -13.2179480  
C   -3.6684015   -0.0101152  -11.7717101  
O   -2.9550435   -0.0105922  -12.9525847  
C   -3.0949240   -0.0095784  -10.5172581  
H   -2.7747642   -0.0080319   -7.4670734  
H   -6.9210548   -0.0006780   -8.1811382  
H   -6.9932613   -0.0106902  -11.0272820  
H   -4.8299167   -0.0108925  -13.8197105  
H   -2.0165229   -0.0104622  -12.7409655  
H   -2.0165750   -0.0096981  -10.4093574  
C    0.0000000    0.0000000    1.4700000  
C    1.0541688    0.0001722    2.3260392  
C    0.5103138    0.0000454    3.6635956  
C   -0.9576371   -0.0002459    3.5155732  
N   -1.2018458    0.0001392    2.1615969  
C   -1.8348311   -0.0008317    4.5510609  
C   -1.2972847   -0.0009736    5.9014604  
O   -2.0050672   -0.0014265    6.9001319  
C    0.2542623   -0.0004184    6.0817573  
O    0.7184670   -0.0002256    7.2139121  
C    1.0974552   -0.0000873    4.8889129  
H    2.0940752    0.0005483    2.0517982  
H   -2.9081052   -0.0011668    4.4207061  
H    2.1707277    0.0000911    5.0223670  
H   -2.1128194   -0.0014912    1.7406791  
