60

C    6.7988284    0.0003686    2.3619039  
C    7.9253852    0.0020817    3.1514192  
C    7.4833724    0.0029802    4.5075993  
C    6.0651603    0.0014506    4.4831257  
N    5.6822629    0.0018366    3.1647913  
C    5.2887073    0.0014952    5.6458424  
C    5.9560879    0.0028065    6.8552955  
O    5.2467929    0.0025601    8.0214498  
C    7.3705805    0.0047180    6.9002886  
O    7.8859986    0.0062748    8.1800086  
C    8.1372112    0.0049484    5.7536388  
H    8.9408348    0.0037228    2.7938547  
H    4.7337316   -0.0095604    2.8359460  
H    4.2074763    0.0004782    5.6339464  
H    5.8966233    0.0039189    8.7362816  
H    8.8462779    0.0074846    8.1211361  
H    9.2189397    0.0066138    5.8195014  
C    6.6685718   -0.0005968    0.8976869  
C    7.6427403   -0.0013906   -0.0483945  
C    6.9825048   -0.0021117   -1.3324984  
C    5.5334439   -0.0016404   -1.0549837  
N    5.4101714   -0.0011225    0.3153058  
C    4.5679461   -0.0016854   -2.0086701  
C    4.9837195   -0.0024606   -3.4013895  
O    4.1902291   -0.0026238   -4.3334162  
C    6.5131871   -0.0032216   -3.7184587  
O    6.8752458   -0.0041842   -4.8872932  
C    7.4587610   -0.0028168   -2.6050218  
H    8.7028574   -0.0016452    0.1326221  
H    8.5159864   -0.0031433   -2.8330534  
H    4.5400786    0.0008355    0.8152880  
C    3.1301149   -0.0010311   -1.7028252  
C    2.5367768   -0.0002767   -0.4864665  
C    1.1089904    0.0001028   -0.7656183  
C    1.0177872   -0.0004148   -2.2415132  
N    2.1993578   -0.0011611   -2.7963820  
C   -0.2459209   -0.0002877   -2.9257118  
C   -1.3675319   -0.0000605   -2.1698524  
O   -2.6129313    0.0000867   -2.6748490  
C   -1.3083584    0.0000910   -0.6783232  
O   -2.3693261    0.0004206   -0.0541692  
C    0.0000000    0.0000000    0.0000000  
H    3.0096017   -0.0001007    0.4807525  
H   -0.2829630   -0.0004687   -4.0053125  
H   -3.1967441    0.0002094   -1.8949034  
C    0.0000000    0.0000000    1.4700000  
C    1.0541688    0.0001722    2.3260392  
C    0.5103138    0.0000454    3.6635956  
C   -0.9576371   -0.0002459    3.5155732  
N   -1.2018458    0.0001392    2.1615969  
C   -1.8348311   -0.0008317    4.5510609  
C   -1.2972847   -0.0009736    5.9014604  
O   -2.0050672   -0.0014265    6.9001319  
C    0.2542623   -0.0004184    6.0817573  
O    0.7184670   -0.0002256    7.2139121  
C    1.0974552   -0.0000873    4.8889129  
H    2.0940752    0.0005483    2.0517982  
H   -2.9081052   -0.0011668    4.4207061  
H    2.1707277    0.0000911    5.0223670  
H   -2.1128194   -0.0014912    1.7406791  
