64

C    1.5998959   -4.5197536   -6.7861975  
C    0.8738431   -3.4149596   -6.4057446  
C    1.2473531   -2.3504603   -7.2786317  
C    2.2127437   -2.8696592   -8.1788417  
N    2.4050796   -4.1887662   -7.8508462  
C    2.8036939   -2.0964478   -9.1826891  
C    2.4127453   -0.7751154   -9.2797383  
O    2.9578352    0.0246351  -10.2421784  
C    1.4512489   -0.2386736   -8.3905977  
O    1.1678701    1.0926552   -8.6155505  
C    0.8680465   -1.0008110   -7.3998672  
H    0.1633153   -3.3802392   -5.5976987  
H    3.0267792   -4.8196406   -8.3235676  
H    3.5401623   -2.4861629   -9.8718476  
H    2.5529216    0.8952048  -10.1353216  
H    0.5103630    1.3764358   -7.9730888  
H    1.6081606   -5.5172825   -6.3814424  
C   -0.2208272   -0.6524176   -5.1346212  
C   -1.2456329    0.0471727   -4.5828766  
C   -1.8635343    0.7999336   -5.6488900  
C   -1.1093182    0.4792271   -6.8757132  
N   -0.1268911   -0.4059223   -6.4959277  
C   -1.3831929    0.9908180   -8.1024863  
C   -2.4948521    1.9194408   -8.2225243  
O   -2.8209724    2.4343803   -9.2840247  
C   -3.3072325    2.2735258   -6.9362635  
O   -4.2451139    3.0544077   -7.0249352  
C   -2.9168444    1.6579633   -5.6703520  
H   -0.8175713    0.7423918   -8.9897665  
H   -3.4845597    1.9082094   -4.7844623  
H    0.4738209   -1.3271520   -4.6612429  
C    1.1243410    0.0099923   -0.7919003  
C    0.7474076    0.0234544   -2.1148543  
C   -0.6787381    0.0234490   -2.1414700  
C   -1.1201745    0.0098592   -0.7935546  
N    0.0000000    0.0000000    0.0000000  
C   -2.4730816    0.0063709   -0.4408240  
C   -3.3971958    0.0170982   -1.4675058  
O   -4.7313517    0.0146259   -1.1793471  
C   -2.9763648    0.0303504   -2.8186324  
O   -4.0166480    0.0395118   -3.7247624  
C   -1.6418562    0.0335260   -3.1673481  
H    1.4178717    0.0310972   -2.9571209  
H   -2.8160166   -0.0041111    0.5845966  
H   -5.1938818    0.0230867   -2.0274384  
H   -3.6464675    0.0482293   -4.6127343  
H    2.1062467    0.0052819   -0.3505407  
C    2.5285572    2.1210227    2.9438989  
C    1.9331703    1.6216660    4.0790748  
C    0.8903039    0.7472258    3.6520102  
C    0.8972198    0.7527806    2.2336141  
N    1.9028376    1.5986179    1.8362361  
C    0.0000000    0.0000000    1.4700000  
C   -0.9207814   -0.7726952    2.1506477  
O   -1.8198395   -1.5274828    1.4542253  
C   -0.9436862   -0.7911793    3.5655508  
O   -1.9197945   -1.6098497    4.0950179  
C   -0.0590329   -0.0485852    4.3195194  
H    2.2150357    1.8593692    5.0905303  
H    2.1533708    1.7953814    0.8841339  
H   -2.3621246   -1.9821033    2.1118817  
H   -1.8668290   -1.5649508    5.0545920  
H   -0.1007624   -0.0827977    5.4019087  
H    3.3491200    2.8096064    2.8367138  
