60

C    2.4843057   -2.1203328   -8.3036623  
C    3.4958086   -2.9706773   -8.6860802  
C    3.5096051   -2.9864331  -10.1123200  
C    2.4753905   -2.1190396  -10.5481598  
N    1.8715113   -1.6113118   -9.4247016  
C    2.1992359   -1.8906413  -11.8995893  
C    2.9815599   -2.5496458  -12.8279539  
O    2.7551757   -2.3625195  -14.1609004  
C    4.0179003   -3.4193620  -12.4127317  
O    4.7071554   -4.0009719  -13.4567633  
C    4.2907207   -3.6453651  -11.0796838  
H    4.1432747   -3.5137611   -8.0191160  
H    1.1092508   -0.9579185   -9.4205570  
H    1.4123363   -1.2308769  -12.2382667  
H    3.4025063   -2.9075260  -14.6269443  
H    5.3886732   -4.5726544  -13.0902709  
H    5.0909011   -4.3172082  -10.7919069  
C    2.5185221   -2.1418787   -5.7664414  
C    2.0285783   -1.7344769   -6.9604095  
C    0.9435064   -0.8236414   -6.6295056  
C    0.9168307   -0.7971605   -5.1512729  
N    1.8378570   -1.5679056   -4.6397540  
C   -0.0307352   -0.0004646   -4.4215603  
C   -0.9113598    0.7365841   -5.1361187  
O   -1.8501209    1.5254492   -4.5861549  
C   -0.9094199    0.7313056   -6.6288110  
O   -1.7398701    1.4264148   -7.2139569  
C    0.0724716   -0.0942330   -7.3542759  
H   -2.3197100    1.9176027   -5.3443463  
H    0.0410973   -0.0704051   -8.4353302  
H    3.3327629   -2.8241130   -5.5805887  
C    3.2573670   -0.0002920   -1.5109380  
C    2.5379468   -0.0001709   -0.3591961  
C    1.1435043    0.0000332   -0.7338500  
C    1.1092609   -0.0000082   -2.2088477  
N    2.4227562    0.0001909   -2.6182613  
C   -0.0265532   -0.0002522   -2.9515663  
C   -1.3003035   -0.0002639   -2.2514981  
O   -2.3786784   -0.0004131   -2.8306429  
C   -1.2877725    0.0000312   -0.6895608  
O   -2.3539958    0.0003307   -0.0892036  
C    0.0000000    0.0000000    0.0000000  
H    2.9384091   -0.0000369    0.6389239  
H    4.3270394   -0.0004765   -1.6439446  
H    2.7280494   -0.0013406   -3.5742113  
C    2.3971438    2.0127888    3.1728260  
C    1.9431056    1.6308205    1.9564670  
C    0.8496017    0.7127664    2.2356185  
C    0.7794028    0.6545384    3.7115134  
N    1.6840587    1.4146091    4.2663826  
C   -0.1885723   -0.1578550    4.3957118  
C   -1.0476298   -0.8789867    3.6398520  
O   -2.0015663   -1.6796266    4.1448486  
C   -1.0022026   -0.8410666    2.1483229  
O   -1.8147390   -1.5232959    1.5241687  
C    0.0000000    0.0000000    1.4700000  
H    2.3054237    1.9346118    0.9892483  
H   -0.2170646   -0.1815267    5.4753125  
H   -2.4487139   -2.0549881    3.3649027  
H    3.2048689    2.6911772    3.3971983  
