64

C   -0.1496419   -0.0015608   -4.3176960  
C    0.8570954   -0.0030494   -5.2552167  
C    0.2320380   -0.0039079   -6.5373640  
C   -1.1692068   -0.0025862   -6.3172802  
N   -1.3663830   -0.0031293   -4.9587010  
C   -2.0987845   -0.0026542   -7.3616339  
C   -1.6048148   -0.0037754   -8.6516611  
O   -2.4683522   -0.0035424   -9.7086928  
C   -0.2100868   -0.0054781   -8.8915533  
O    0.1236720   -0.0068615  -10.2301896  
C    0.7075430   -0.0056852   -7.8617567  
H    1.9121937   -0.0045704   -5.0413049  
H   -2.2604167    0.0081046   -4.5020188  
H   -1.9234611   -0.0047519  -10.5064126  
H    1.0828811   -0.0079362  -10.3044899  
H    1.7698133   -0.0071883   -8.0763680  
C    3.3003545    0.0005277   -1.4738989  
C    2.5232812    0.0003500   -2.6090747  
C    1.1623199   -0.0001317   -2.1820100  
C    1.1711884    0.0000584   -0.7636136  
N    2.4852300   -0.0014919   -0.3662361  
C    0.0000000    0.0000000    0.0000000  
C   -1.2020383    0.0000521   -0.6806475  
O   -2.3759249    0.0003495    0.0157745  
C   -1.2314659   -0.0005110   -2.0955509  
O   -2.5054394   -0.0008034   -2.6250176  
C   -0.0764520   -0.0007270   -2.8495192  
H    2.8919955   -0.0005617   -3.6205298  
H    2.8036268    0.0088181    0.5858662  
H   -3.0835640    0.0000349   -0.6418811  
H   -2.4360053   -0.0011523   -3.5845914  
H    4.3715548    0.0004896   -1.3667139  
C   -4.2155478    0.7181629   -6.1757916  
C   -3.5523787   -0.0014865   -7.1426311  
C   -4.5397170   -0.7298192   -7.8701573  
C   -5.7977345   -0.4117751   -7.2972991  
N   -5.5646547    0.4683252   -6.2698196  
C   -6.9998447   -0.9509961   -7.7652309  
C   -6.9307645   -1.8270081   -8.8310679  
O   -8.0743322   -2.3823921   -9.3278726  
C   -5.6849951   -2.1569868   -9.4158668  
O   -5.7824942   -3.0434014  -10.4685329  
C   -4.4986590   -1.6256203   -8.9545833  
H   -6.2706301    0.8783385   -5.6854664  
H   -7.9618816   -0.7127339   -7.3328910  
H   -7.8050128   -2.9549849  -10.0578524  
H   -4.8977307   -3.2131688  -10.8061373  
H   -3.5596728   -1.8971866   -9.4225955  
H   -3.8328109    1.3887935   -5.4256406  
C    0.0000000    0.0000000    1.4700000  
C    1.0541688    0.0001722    2.3260392  
C    0.5103138    0.0000454    3.6635956  
C   -0.9576371   -0.0002459    3.5155732  
N   -1.2018458    0.0001392    2.1615969  
C   -1.8348311   -0.0008317    4.5510609  
C   -1.2972847   -0.0009736    5.9014604  
O   -2.0050672   -0.0014265    6.9001319  
C    0.2542623   -0.0004184    6.0817573  
O    0.7184670   -0.0002256    7.2139121  
C    1.0974552   -0.0000873    4.8889129  
H    2.0940752    0.0005483    2.0517982  
H   -2.9081052   -0.0011668    4.4207061  
H    2.1707277    0.0000911    5.0223670  
H   -2.1128194   -0.0014912    1.7406791  
