60

C    6.0014247   -3.2665131   -7.4611408  
C    6.5837870   -2.4752238   -8.4240430  
C    6.1145693   -1.1453585   -8.2098171  
C    5.2415791   -1.1869231   -7.0926386  
N    5.1938515   -2.4900536   -6.6634651  
C    4.5938588   -0.0516111   -6.5963382  
C    4.8319875    1.1475573   -7.2393523  
O    4.2255601    2.2871442   -6.7959557  
C    5.6994309    1.2092159   -8.3558464  
O    5.8332219    2.4756401   -8.8865181  
C    6.3385499    0.0895561   -8.8461681  
H    7.2623579   -2.8149384   -9.1876715  
H    4.6629123   -2.8237786   -5.8794294  
H    4.5239010    2.9989878   -7.3769336  
H    6.4350406    2.4294575   -9.6357081  
H    6.9972444    0.1676508   -9.7031972  
H    6.0970993   -4.3235825   -7.2811174  
C    4.5533951   -2.1376040   -2.6578820  
C    4.9399045   -1.7283668   -3.8886195  
C    3.8940258   -0.8167856   -4.3264062  
C    2.9285541   -0.7919270   -3.2066609  
N    3.3097737   -1.5641892   -2.2257060  
C    1.7334695    0.0049281   -3.2500363  
C    1.5131091    0.7436790   -4.3613521  
O    0.4396992    1.5328950   -4.5373374  
C    2.4688038    0.7400642   -5.5079972  
O    2.2042974    1.4366798   -6.4877850  
C    3.6875675   -0.0856736   -5.4394565  
H    5.8254287   -2.0102063   -4.4322094  
H    0.5632906    1.9263769   -5.4199759  
H    5.0606861   -2.8208825   -1.9954926  
C    1.1319246    0.0015678   -0.8009268  
C    0.7969914    0.0034958   -2.1169401  
C   -0.6453340    0.0035696   -2.1842669  
C   -1.1266832    0.0015410   -0.7896025  
N    0.0000000    0.0000000    0.0000000  
C   -2.4346129    0.0013913   -0.4276292  
C   -3.4350111    0.0031335   -1.4820181  
O   -4.6384614    0.0030875   -1.2583914  
C   -2.9478961    0.0050442   -2.9661074  
O   -3.7809382    0.0062135   -3.8623773  
C   -1.5113825    0.0053055   -3.2312122  
H   -2.7664565    0.0000174    0.6013448  
H   -1.1823533    0.0068381   -4.2614848  
H    2.1104316    0.0009435   -0.3488059  
C    0.8175213    0.6860729    2.3021913  
C    0.0000000    0.0000000    1.4700000  
C   -0.8887526   -0.7456559    2.3478473  
C   -0.4549825   -0.3816753    3.7138435  
N    0.5448156    0.4573574    3.6934124  
C   -1.0945674   -0.9182058    4.8835240  
C   -2.1210866   -1.7789155    4.6970523  
O   -2.8083856   -2.3554314    5.6976972  
C   -2.5824069   -2.1655116    3.3310774  
O   -3.5227682   -2.9541547    3.2362962  
C   -1.9100805   -1.6015804    2.1470656  
H   -0.7567140   -0.6349833    5.8697035  
H   -3.4728268   -2.9124471    5.2533954  
H   -2.2742832   -1.9066565    1.1752040  
H    1.6189533    1.3585343    2.0405121  
