60

C    6.9437609   -1.8460483   -6.6468514  
C    8.0459561   -2.6652055   -6.7281805  
C    8.5299490   -2.5802543   -8.0672598  
C    7.6758681   -1.6863996   -8.7625981  
N    6.7224958   -1.2604552   -7.8713804  
C    7.8553886   -1.3637796  -10.1111075  
C    8.9166078   -1.9540222  -10.7695935  
O    9.1380402   -1.6737728  -12.0869551  
C    9.7795566   -2.8487351  -10.0931139  
O   10.7891572   -3.3538061  -10.8861808  
C    9.6028940   -3.1676758   -8.7628534  
H    8.4506190   -3.2526644   -5.9218717  
H    5.9852895   -0.6105528   -8.0766492  
H    7.2078811   -0.6833824  -10.6468279  
H    9.9164499   -2.1832019  -12.3473877  
H   11.3258145   -3.9485204  -10.3533413  
H   10.2800337   -3.8565025   -8.2714498  
C    6.1923727   -2.0934464   -4.2359234  
C    5.2191579   -1.6310079   -3.4094375  
C    4.3967568   -0.7348789   -4.1875409  
C    4.9747507   -0.7130129   -5.5448301  
N    6.0607564   -1.5568759   -5.5077365  
C    4.4832131    0.0165646   -6.5781804  
C    3.3064983    0.8350541   -6.3374474  
O    2.7884378    1.5278083   -7.2034761  
C    2.6779836    0.8273397   -4.9075121  
O    1.6873118    1.5127139   -4.6928207  
C    3.2973506   -0.0000934   -3.8752374  
H    5.0920135   -1.8881512   -2.3729405  
H    4.9222082    0.0183443   -7.5662029  
H    6.9947906   -2.7809152   -4.0228475  
C    3.3321174    0.0004714   -1.3379332  
C    2.6974186    0.0000115   -2.5332308  
C    1.2800441   -0.0002119   -2.2052838  
C    1.2395035    0.0000643   -0.7271293  
N    2.4394063    0.0005458   -0.2131034  
C    0.0000000    0.0000000    0.0000000  
C   -1.1468701    0.0000634   -0.7169542  
O   -2.3742201    0.0000072   -0.1695492  
C   -1.1388767    0.0001606   -2.2096354  
O   -2.2206229    0.0000903   -2.7970413  
C    0.1454526    0.0001815   -2.9324239  
H   -2.9844344    0.0001023   -0.9290168  
H    0.1083580    0.0003680   -4.0135594  
H    4.3940040    0.0007617   -1.1498630  
C    2.5128556    2.1077716    2.9199648  
C    1.9592212    1.6432552    4.0696553  
C    0.8915788    0.7479214    3.6910360  
C    0.8684491    0.7287414    2.2159470  
N    1.8754542    1.5738793    1.8102719  
C    0.0000000    0.0000000    1.4700000  
C   -0.9772830   -0.8200135    2.1664417  
O   -1.8021297   -1.5120829    1.5842315  
C   -0.9711318   -0.8147624    3.7284083  
O   -1.7894187   -1.5009653    4.3257297  
C    0.0140216    0.0115358    4.4216297  
H    2.2638494    1.8988021    5.0689105  
H    0.0117648    0.0094386    5.5031631  
H    3.3327358    2.7953732    2.7900019  
H    2.1123206    1.7707734    0.8551938  
