60

C    8.5659077    0.7215175   -3.2968040  
C    8.2934101    0.0026304   -2.1560093  
C    9.4765894   -0.7238962   -1.8291348  
C   10.4460163   -0.4055864   -2.8144340  
N    9.8596837    0.4729262   -3.6913872  
C   11.7366489   -0.9431758   -2.8069909  
C   12.0545356   -1.8177986   -1.7861279  
O   13.3008474   -2.3715599   -1.7307638  
C   11.1008311   -2.1480162   -0.7940484  
O   11.5695744   -3.0329210    0.1549328  
C    9.8273184   -1.6182595   -0.8009190  
H   10.3093754    0.8827315   -4.4900224  
H   12.4800544   -0.7047026   -3.5551098  
H   13.3112153   -2.9433852   -0.9521927  
H   10.8643522   -3.2029640    0.7868752  
H    9.1182420   -1.8899691   -0.0277032  
H    7.9392975    1.3908124   -3.8610405  
C    5.7595788    0.0007158   -2.0216249  
C    4.7795901    0.0008674   -1.0815733  
C    5.4318892    0.0011976    0.2065809  
C    6.8826348    0.0012557   -0.0619863  
N    7.0143611    0.0005548   -1.4314889  
C    7.8422287    0.0019360    0.8976401  
C    7.4178686    0.0024333    2.2877674  
O    8.2055925    0.0029965    3.2246729  
C    5.8864734    0.0021297    2.5953926  
O    5.5172082    0.0022369    3.7619705  
C    4.9477883    0.0016667    1.4761414  
H    8.9010988    0.0020958    0.6792261  
H    3.8891760    0.0016644    1.6976444  
H    5.6706931    0.0004913   -3.0958635  
C    3.3321168    0.0004716   -1.3379341  
C    2.6974177    0.0000118   -2.5332316  
C    1.2800432   -0.0002116   -2.2052842  
C    1.2395033    0.0000644   -0.7271298  
N    2.4394059    0.0005460   -0.2131041  
C    0.0000000    0.0000000    0.0000000  
C   -1.1468704    0.0000635   -0.7169542  
O   -2.3742206    0.0000074   -0.1695488  
C   -1.1388774    0.0001608   -2.2096352  
O   -2.2206238    0.0000906   -2.7970409  
C    0.1454514    0.0001818   -2.9324241  
H    3.1367978   -0.0000649   -3.5160956  
H   -2.9844350    0.0001027   -0.9290164  
H    0.1083567    0.0003684   -4.0135594  
C    0.8175213    0.6860729    2.3021913  
C    0.0000000    0.0000000    1.4700000  
C   -0.8887526   -0.7456559    2.3478473  
C   -0.4549825   -0.3816753    3.7138435  
N    0.5448156    0.4573574    3.6934124  
C   -1.0945674   -0.9182058    4.8835240  
C   -2.1210866   -1.7789155    4.6970523  
O   -2.8083856   -2.3554314    5.6976972  
C   -2.5824069   -2.1655116    3.3310774  
O   -3.5227682   -2.9541547    3.2362962  
C   -1.9100805   -1.6015804    2.1470656  
H   -0.7567140   -0.6349833    5.8697035  
H   -3.4728268   -2.9124471    5.2533954  
H   -2.2742832   -1.9066565    1.1752040  
H    1.6189533    1.3585343    2.0405121  
