64

C   -0.7776056    0.7820684   -9.2545468  
C    0.3021530   -0.0328724   -9.5044692  
C    0.5864389    0.0684877  -10.8985666  
C   -0.3607229    0.9675453  -11.4521963  
N   -1.1751128    1.3806745  -10.4271540  
C   -0.3793585    1.3057660  -12.8086802  
C    0.5757456    0.7260630  -13.6210211  
O    0.6031554    1.0216906  -14.9532614  
C    1.5289432   -0.1736155  -13.0873456  
O    2.4133212   -0.6667988  -14.0243569  
C    1.5477510   -0.5079441  -11.7492880  
H    0.8203804   -0.6281223   -8.7722728  
H   -1.9351533    2.0306558  -10.5157174  
H   -1.0986804    1.9902030  -13.2368427  
H    1.3361507    0.5175063  -15.3298006  
H    3.0224390   -1.2658536  -13.5819629  
H    2.2899664   -1.2002272  -11.3693685  
C   -0.1938788   -0.6741369   -5.1271799  
C   -0.0850124   -0.4444583   -6.4611480  
C   -1.1306712    0.4863340   -6.8147844  
C   -1.8628855    0.7822436   -5.5685542  
N   -1.2456329    0.0471727   -4.5828766  
C   -2.9252662    1.6222122   -5.4819268  
C   -3.3778764    2.2784577   -6.6972546  
O   -4.3258397    3.0524142   -6.7229073  
C   -2.6173792    1.9795700   -8.0284625  
O   -2.9895223    2.5259874   -9.0581215  
C   -1.4861958    1.0558677   -7.9960428  
H    0.6444290   -0.8777823   -7.1220255  
H   -3.4482325    1.8256055   -4.5577799  
H    0.4056119   -1.3098202   -4.4959842  
C    1.1243410    0.0099923   -0.7919003  
C    0.7474076    0.0234544   -2.1148543  
C   -0.6787381    0.0234490   -2.1414700  
C   -1.1201745    0.0098592   -0.7935546  
N    0.0000000    0.0000000    0.0000000  
C   -2.4730816    0.0063709   -0.4408240  
C   -3.3971958    0.0170982   -1.4675058  
O   -4.7313517    0.0146259   -1.1793471  
C   -2.9763648    0.0303504   -2.8186324  
O   -4.0166480    0.0395118   -3.7247624  
C   -1.6418562    0.0335260   -3.1673481  
H    1.4178717    0.0310972   -2.9571209  
H   -2.8160166   -0.0041111    0.5845966  
H   -5.1938818    0.0230867   -2.0274384  
H   -3.6464675    0.0482293   -4.6127343  
H    2.1062467    0.0052819   -0.3505407  
C    2.5285572    2.1210227    2.9438989  
C    1.9331703    1.6216660    4.0790748  
C    0.8903039    0.7472258    3.6520102  
C    0.8972198    0.7527806    2.2336141  
N    1.9028376    1.5986179    1.8362361  
C    0.0000000    0.0000000    1.4700000  
C   -0.9207814   -0.7726952    2.1506477  
O   -1.8198395   -1.5274828    1.4542253  
C   -0.9436862   -0.7911793    3.5655508  
O   -1.9197945   -1.6098497    4.0950179  
C   -0.0590329   -0.0485852    4.3195194  
H    2.2150357    1.8593692    5.0905303  
H    2.1533708    1.7953814    0.8841339  
H   -2.3621246   -1.9821033    2.1118817  
H   -1.8668290   -1.5649508    5.0545920  
H   -0.1007624   -0.0827977    5.4019087  
H    3.3491200    2.8096064    2.8367138  
