62

C    6.2649468    0.0094423    3.7162587  
C    6.9849883    0.0183673    4.8884051  
C    8.3653737    0.0091509    4.5291675  
C    8.4265845   -0.0051229    3.1121369  
N    7.1337807   -0.0065128    2.6503216  
C    9.6340563   -0.0167452    2.4073923  
C   10.8009963   -0.0135994    3.1465951  
O   12.0078445   -0.0241880    2.5090868  
C   10.7604901    0.0001997    4.5611571  
O   12.0067429    0.0012253    5.1529310  
C    9.5696477    0.0113971    5.2570713  
H    6.5667583    0.0289745    5.8803556  
H    9.6874721   -0.0277933    1.3274726  
H   12.6821267   -0.0200560    3.2008908  
H   11.8899902    0.0109037    6.1078544  
H    9.5700681    0.0216683    6.3407562  
H    5.2003563    0.0117495    3.5562567  
C    6.7370871   -0.0041643    1.2348608  
C    5.4910176   -0.0032946    0.6950591  
C    5.6537433   -0.0009388   -0.7396360  
C    7.1071780   -0.0005333   -0.9932456  
N    7.7077099   -0.0021561    0.2445947  
C    7.6723921    0.0010930   -2.2270342  
C    6.7903705    0.0027667   -3.3822703  
O    7.2023932    0.0043593   -4.5348916  
C    5.2477315    0.0026235   -3.1371782  
O    4.4952259    0.0043300   -4.1020582  
C    4.7577216    0.0005129   -1.7610467  
H    4.5636991   -0.0040178    1.2397541  
H    8.7410246    0.0012319   -2.3911492  
H    8.6984749   -0.0038798    0.4040586  
C    3.3041270    0.0001177   -1.5420435  
C    2.5845370   -0.0004780   -0.3695856  
C    1.2040004   -0.0000007   -0.7283590  
C    1.1422370    0.0006038   -2.1454373  
N    2.4348634    0.0026110   -2.6077469  
C   -0.0655187    0.0008799   -2.8497918  
C   -1.2321769    0.0002326   -2.1101398  
O   -2.4392822    0.0001149   -2.7472517  
C   -1.1911211   -0.0000007   -0.6955263  
O   -2.4371526   -0.0002319   -0.1032858  
C    0.0000000    0.0000000    0.0000000  
H    3.0031534   -0.0000661    0.6222578  
H    2.7054623   -0.0071098   -3.5745266  
H   -0.1193555    0.0014846   -3.9297472  
H   -3.1132992   -0.0000646   -2.0551783  
H   -2.3200279   -0.0004070    0.8516411  
C    0.0000000    0.0000000    1.4700000  
C    1.0662921    0.0000102    2.3034270  
C    0.4961870   -0.0000064    3.6418889  
C   -0.9663858    0.0000850    3.4240247  
N   -1.2632773    0.0000084    2.1528658  
C   -1.8985362    0.0000517    4.5177257  
C   -1.3925775   -0.0004564    5.7720543  
O   -2.1456383   -0.0005410    6.8851312  
C    0.0786232   -0.0009323    6.0245000  
O    0.4683759   -0.0012588    7.1921102  
C    1.0143166   -0.0008442    4.8859032  
H    2.1107198   -0.0000632    2.0421868  
H   -2.9622183    0.0003270    4.3293377  
H   -1.5042274   -0.0009692    7.6184419  
H    2.0724152   -0.0013148    5.1109744  
