60

C    9.8684409   -0.0005857    4.3179969  
C    9.0946014   -0.0004227    5.4553790  
C    7.7324304   -0.0001849    5.0321890  
C    7.7372627   -0.0005015    3.6137734  
N    9.0501680    0.0012112    3.2126581  
C    6.5639064   -0.0006886    2.8534948  
C    5.3638097   -0.0008606    3.5375607  
O    4.1879462   -0.0013976    2.8444812  
C    5.3384084   -0.0001743    4.9525416  
O    4.0659467   -0.0000262    5.4856311  
C    6.4955629    0.0002838    5.7032209  
H    9.4661919    0.0006355    6.4657816  
H    9.3658557   -0.0091367    2.2596545  
H    3.4821815   -0.0011305    3.5041482  
H    4.1381110    0.0004197    6.4450039  
H    6.4446851    0.0009880    6.7857584  
H   10.9393320   -0.0003958    4.2077638  
C    6.5597233   -0.0008210    1.3835008  
C    7.6114523   -0.0009113    0.5244653  
C    7.0637933   -0.0009871   -0.8115379  
C    5.5962695   -0.0009037   -0.6593392  
N    5.3559146   -0.0012037    0.6953265  
C    4.7161325   -0.0005435   -1.6923264  
C    5.2498343   -0.0004422   -3.0442502  
O    4.5392129   -0.0001860   -4.0409036  
C    6.8008622   -0.0007797   -3.2289611  
O    7.2618431   -0.0010045   -4.3624322  
C    7.6474456   -0.0008762   -2.0385208  
H    8.6521348   -0.0011060    0.7957464  
H    8.7203336   -0.0009048   -2.1750284  
H    4.4461421    0.0003272    1.1188347  
C    3.2573665   -0.0002920   -1.5109385  
C    2.5379463   -0.0001709   -0.3591964  
C    1.1435038    0.0000331   -0.7338500  
C    1.1092599   -0.0000083   -2.2088477  
N    2.4227553    0.0001909   -2.6182613  
C   -0.0265539   -0.0002524   -2.9515660  
C   -1.3003040   -0.0002640   -2.2514977  
O   -2.3786790   -0.0004133   -2.8306421  
C   -1.2877727    0.0000311   -0.6895603  
O   -2.3539959    0.0003306   -0.0892030  
C    0.0000000    0.0000000    0.0000000  
H    2.9384091   -0.0000367    0.6389234  
H   -0.0296303   -0.0004086   -4.0327229  
H    2.7280482   -0.0013407   -3.5742119  
C    0.0000000    0.0000000    1.4700000  
C    1.0541688    0.0001722    2.3260392  
C    0.5103138    0.0000454    3.6635956  
C   -0.9576371   -0.0002459    3.5155732  
N   -1.2018458    0.0001392    2.1615969  
C   -1.8348311   -0.0008317    4.5510609  
C   -1.2972847   -0.0009736    5.9014604  
O   -2.0050672   -0.0014265    6.9001319  
C    0.2542623   -0.0004184    6.0817573  
O    0.7184670   -0.0002256    7.2139121  
C    1.0974552   -0.0000873    4.8889129  
H    2.0940752    0.0005483    2.0517982  
H   -2.9081052   -0.0011668    4.4207061  
H    2.1707277    0.0000911    5.0223670  
H   -2.1128194   -0.0014912    1.7406791  
