60

C    5.8392102   -1.1103929   -6.2988424  
C    6.8064859   -1.9945659   -5.8804137  
C    7.6479193   -2.2530233   -7.0028174  
C    7.1408806   -1.4919984   -8.0871044  
N    6.0414505   -0.8114414   -7.6258977  
C    7.7253735   -1.5025466   -9.3571625  
C    8.8422404   -2.2955598   -9.5358129  
O    9.4526267   -2.3426927  -10.7557396  
C    9.3628190   -3.0623491   -8.4663046  
O   10.4785759   -3.8005647   -8.8031530  
C    8.7865561   -3.0526374   -7.2131674  
H    6.8941068   -2.4038569   -4.8885486  
H    5.4792225   -0.1811745   -8.1687087  
H    7.3436842   -0.9249152  -10.1877390  
H   10.2006276   -2.9470717  -10.6636241  
H   10.7664595   -4.2886327   -8.0256459  
H    9.2076187   -3.6506008   -6.4134023  
C    4.4169309   -0.7262692   -4.2519971  
C    4.7208615   -0.5096739   -5.5576722  
C    3.7394659    0.4171465   -6.0702171  
C    2.8323824    0.7249833   -4.9480643  
N    3.2973506   -0.0000934   -3.8752374  
C    1.7696619    1.5653070   -5.0267138  
C    1.5012132    2.2093745   -6.3017228  
O    0.5680988    2.9826342   -6.4739682  
C    2.4487563    1.8977358   -7.5037412  
O    2.2325066    2.4338409   -8.5822068  
C    3.5619542    0.9748830   -7.2964134  
H    1.1167873    1.7775543   -4.1914795  
H    4.2134827    0.7645654   -8.1336704  
H    4.9165185   -1.3554568   -3.5333701  
C    3.3321174    0.0004714   -1.3379332  
C    2.6974186    0.0000115   -2.5332308  
C    1.2800441   -0.0002119   -2.2052838  
C    1.2395035    0.0000643   -0.7271293  
N    2.4394063    0.0005458   -0.2131034  
C    0.0000000    0.0000000    0.0000000  
C   -1.1468701    0.0000634   -0.7169542  
O   -2.3742201    0.0000072   -0.1695492  
C   -1.1388767    0.0001606   -2.2096354  
O   -2.2206229    0.0000903   -2.7970413  
C    0.1454526    0.0001815   -2.9324239  
H   -2.9844344    0.0001023   -0.9290168  
H    0.1083580    0.0003680   -4.0135594  
H    4.3940040    0.0007617   -1.1498630  
C    2.3971438    2.0127888    3.1728260  
C    1.9431056    1.6308205    1.9564670  
C    0.8496017    0.7127664    2.2356185  
C    0.7794028    0.6545384    3.7115134  
N    1.6840587    1.4146091    4.2663826  
C   -0.1885723   -0.1578550    4.3957118  
C   -1.0476298   -0.8789867    3.6398520  
O   -2.0015663   -1.6796266    4.1448486  
C   -1.0022026   -0.8410666    2.1483229  
O   -1.8147390   -1.5232959    1.5241687  
C    0.0000000    0.0000000    1.4700000  
H    2.3054237    1.9346118    0.9892483  
H   -0.2170646   -0.1815267    5.4753125  
H   -2.4487139   -2.0549881    3.3649027  
H    3.2048689    2.6911772    3.3971983  
