62

C    6.3792222   -3.6912424   -2.1653475  
C    6.7401326   -4.5043490   -1.1160296  
C    5.7346336   -4.3623763   -0.1143237  
C    4.7774274   -3.4420112   -0.6129330  
N    5.2002476   -3.0525812   -1.8596024  
C    3.6433684   -3.0632901    0.1118215  
C    3.4723327   -3.6241158    1.3625809  
O    2.3822325   -3.2894956    2.1127297  
C    4.4165430   -4.5439778    1.8774956  
O    4.1053191   -5.0136750    3.1368080  
C    5.5356913   -4.9178462    1.1631737  
H    7.6204659   -5.1227949   -1.0768819  
H    2.9101712   -2.3622238   -0.2625185  
H    2.4559581   -3.7859943    2.9381506  
H    4.7926967   -5.6286562    3.4105122  
H    6.2415514   -5.6245204    1.5837117  
H    6.8702502   -3.5152411   -3.1070873  
C    4.4925596   -2.1138018   -2.7420827  
C    4.8565034   -1.6946783   -3.9763676  
C    3.8030381   -0.7794111   -4.3874593  
C    2.8583247   -0.7634593   -3.2499854  
N    3.2572738   -1.5436996   -2.2824868  
C    1.6628945    0.0339172   -3.2649299  
C    1.4223697    0.7816766   -4.3659923  
O    0.3461531    1.5724678   -4.5158194  
C    2.3568196    0.7871871   -5.5300085  
O    2.0745619    1.4917549   -6.4990988  
C    3.5763784   -0.0392785   -5.4905729  
H    5.7317950   -1.9722538   -4.5384111  
H    0.4536183    1.9730618   -5.3973683  
H    4.2275600   -0.0074308   -6.3538104  
C    1.1243410    0.0100105   -0.7919003  
C    0.7474072    0.0234665   -2.1148542  
C   -0.6787384    0.0234379   -2.1414698  
C   -1.1201748    0.0098411   -0.7935547  
N    0.0000000    0.0000000    0.0000000  
C   -2.4730818    0.0063307   -0.4408240  
C   -3.3971962    0.0170429   -1.4675058  
O   -4.7313520    0.0145490   -1.1793468  
C   -2.9763654    0.0303020   -2.8186325  
O   -4.0166484    0.0394464   -3.7247625  
C   -1.6418567    0.0334992   -3.1673480  
H   -2.8160166   -0.0041569    0.5845966  
H   -5.1938823    0.0230023   -2.0274386  
H   -3.6464680    0.0481700   -4.6127343  
H   -1.3497475    0.0435647   -4.2109234  
H    2.1062466    0.0053162   -0.3505405  
C    2.4951002    2.0940188    2.9809380  
C    1.9440701    1.6314916    1.8291961  
C    0.8759964    0.7350050    2.2038498  
C    0.8497377    0.7130254    3.6788474  
N    1.8560616    1.5571714    4.0882609  
C   -0.0205033   -0.0168748    4.4215661  
C   -0.9962600   -0.8356168    3.7214979  
O   -1.8224391   -1.5286685    4.3006425  
C   -0.9864710   -0.8277881    2.1595606  
O   -1.8030528   -1.5133726    1.5592035  
C    0.0000000    0.0000000    1.4700000  
H    2.2509283    1.8888011    0.8310761  
H   -0.0229599   -0.0187323    5.5027230  
H    3.3143982    2.7817323    3.1139444  
H    2.0889452    1.7545833    5.0442112  
