62

C   -1.0095868    0.5370405   -9.0356915  
C   -0.0172056   -0.3130638   -9.4657717  
C   -0.0700353   -0.3273995  -10.8911163  
C   -1.1233139    0.5405726  -11.2773212  
N   -1.6739722    1.0472647  -10.1263845  
C   -1.4622387    0.7703566  -12.6141519  
C   -0.7242475    0.1121688  -13.5786917  
O   -1.0126006    0.3006552  -14.8994267  
C    0.3301914   -0.7581058  -13.2131814  
O    0.9698280   -1.3387710  -14.2888396  
C    0.6649276   -0.9854759  -11.8945550  
H    0.6606010   -0.8569025   -8.8303109  
H   -2.4350857    1.7007603  -10.0859995  
H   -2.2639737    1.4305686  -12.9150586  
H   -0.3878430   -0.2439767  -15.3957322  
H    1.6676116   -1.9109141  -13.9551405  
H    1.4775495   -1.6577176  -11.6451261  
C    0.6364686   -0.6837593   -5.1902200  
C   -0.1387079    0.0017019   -4.3179684  
C   -1.0701780    0.7476899   -5.1500536  
C   -0.7049028    0.3845506   -6.5361590  
N    0.2947990   -0.4543147   -6.5660079  
C   -1.4020126    0.9216209   -7.6722400  
C   -2.4181041    1.7820427   -7.4344016  
O   -3.1544589    2.3589953   -8.3992581  
C   -2.8108996    2.1677924   -6.0469326  
O   -3.7454941    2.9562141   -5.9050021  
C   -2.0803713    1.6033193   -4.8981842  
H   -3.7960384    2.9156437   -7.9221097  
H   -2.3957800    1.9077869   -3.9092215  
H    1.4500367   -1.3562238   -4.9691500  
C    3.3041273    0.0001178   -1.5420428  
C    2.5845373   -0.0004780   -0.3695851  
C    1.2040007   -0.0000007   -0.7283589  
C    1.1422374    0.0006038   -2.1454372  
N    2.4348641    0.0026111   -2.6077464  
C   -0.0655179    0.0008799   -2.8497918  
C   -1.2321766    0.0002325   -2.1101402  
O   -2.4392814    0.0001148   -2.7472522  
C   -1.1911209   -0.0000007   -0.6955266  
O   -2.4371528   -0.0002320   -0.1032862  
C    0.0000000    0.0000000    0.0000000  
H    3.0031533   -0.0000660    0.6222584  
H    2.7054631   -0.0071097   -3.5745261  
H   -3.1132988   -0.0000648   -2.0551787  
H   -2.3200282   -0.0004072    0.8516409  
H    4.3686625    0.0004073   -1.7024290  
C    2.4951002    2.0940188    2.9809380  
C    1.9440701    1.6314916    1.8291961  
C    0.8759964    0.7350050    2.2038498  
C    0.8497377    0.7130254    3.6788474  
N    1.8560616    1.5571714    4.0882609  
C   -0.0205033   -0.0168748    4.4215661  
C   -0.9962600   -0.8356168    3.7214979  
O   -1.8224391   -1.5286685    4.3006425  
C   -0.9864710   -0.8277881    2.1595606  
O   -1.8030528   -1.5133726    1.5592035  
C    0.0000000    0.0000000    1.4700000  
H    2.2509283    1.8888011    0.8310761  
H   -0.0229599   -0.0187323    5.5027230  
H    3.3143982    2.7817323    3.1139444  
H    2.0889452    1.7545833    5.0442112  
