62

C    2.4346454    0.0066693   -7.4150431  
C    3.1424176    0.0023619   -6.2354213  
C    4.5264872    0.0007009   -6.5803121  
C    4.6024850    0.0044606   -7.9966932  
N    3.3145685    0.0060784   -8.4719657  
C    5.8172557    0.0043801   -8.6888797  
C    6.9764224    0.0007392   -7.9375495  
O    8.1898669    0.0008416   -8.5625030  
C    6.9211539   -0.0034186   -6.5234258  
O    8.1611707   -0.0071439   -5.9187036  
C    5.7231064   -0.0036149   -5.8399008  
H    2.7138560   -0.0004750   -5.2478384  
H    3.0537139    0.0193008   -9.4413775  
H    5.8819407    0.0070899   -9.7682354  
H    8.8568959   -0.0022910   -7.8636979  
H    8.0344578   -0.0097830   -4.9650054  
H    5.7122162   -0.0070316   -4.7562276  
C   -1.0641738    0.0073911   -4.6315339  
C    0.2077343    0.0068439   -5.1556687  
C    0.0728977    0.0090223   -6.5756738  
C   -1.3163589    0.0111410   -6.8618346  
N   -1.9782052    0.0081311   -5.6591012  
C   -1.8198407    0.0139141   -8.1661688  
C   -0.9041960    0.0148671   -9.2004659  
O   -1.3413922    0.0179081  -10.4934717  
C    0.4859172    0.0124114   -8.9351413  
O    1.2686364    0.0133366  -10.0712286  
C    0.9833259    0.0094019   -7.6486339  
H    1.1204513    0.0039851   -4.5847635  
H   -2.9756842    0.0192592   -5.5455510  
H   -2.8775175    0.0153947   -8.3909329  
H   -0.5510068    0.0177719  -11.0489487  
H    2.1928165    0.0115679   -9.8038491  
C    1.1319245    0.0015656   -0.8009271  
C    0.7969914    0.0034943   -2.1169404  
C   -0.6453340    0.0035712   -2.1842672  
C   -1.1266833    0.0015434   -0.7896027  
N    0.0000000    0.0000000    0.0000000  
C   -2.4346131    0.0013965   -0.4276296  
C   -3.4350110    0.0031409   -1.4820182  
O   -4.6384610    0.0030975   -1.2583916  
C   -2.9478961    0.0050507   -2.9661073  
O   -3.7809383    0.0062220   -3.8623773  
C   -1.5113824    0.0053091   -3.2312124  
H    1.4821237    0.0045409   -2.9459193  
H   -2.7664564    0.0000233    0.6013449  
H    2.1104315    0.0009392   -0.3488061  
C    2.4951002    2.0940188    2.9809380  
C    1.9440701    1.6314916    1.8291961  
C    0.8759964    0.7350050    2.2038498  
C    0.8497377    0.7130254    3.6788474  
N    1.8560616    1.5571714    4.0882609  
C   -0.0205033   -0.0168748    4.4215661  
C   -0.9962600   -0.8356168    3.7214979  
O   -1.8224391   -1.5286685    4.3006425  
C   -0.9864710   -0.8277881    2.1595606  
O   -1.8030528   -1.5133726    1.5592035  
C    0.0000000    0.0000000    1.4700000  
H    2.2509283    1.8888011    0.8310761  
H   -0.0229599   -0.0187323    5.5027230  
H    3.3143982    2.7817323    3.1139444  
H    2.0889452    1.7545833    5.0442112  
