60

C    9.3262642    0.0016990    0.1620907  
C    9.9148982    0.0032273   -1.0812817  
C   11.3261275    0.0036593   -0.8738412  
C   11.5407107    0.0020484    0.5282563  
N   10.3056331    0.0028370    1.1275878  
C   12.8175279    0.0016680    1.0979284  
C   13.8973961    0.0026298    0.2364989  
O   15.1662978    0.0019615    0.7393927  
C   13.7036655    0.0046158   -1.1653861  
O   14.8783764    0.0057909   -1.8888475  
C   12.4443401    0.0052654   -1.7280797  
H    9.3915193    0.0050481   -2.0220602  
H   10.1411273   -0.0085133    2.1179363  
H   12.9877896    0.0005868    2.1657362  
H   15.7615550    0.0031299   -0.0214838  
H   14.6587141    0.0070801   -2.8255173  
H   12.3271909    0.0069775   -2.8054617  
C    5.6664805    0.0014066   -2.2647026  
C    4.7390840    0.0009613   -1.2727298  
C    5.4604955    0.0006395   -0.0219696  
C    6.8944818    0.0009653   -0.3690625  
N    6.9515101    0.0010263   -1.7437034  
C    7.9048605    0.0011992    0.5369396  
C    7.5567542    0.0008992    1.9480942  
O    8.3942809    0.0010141    2.8407589  
C    6.0443622    0.0002997    2.3385743  
O    5.7391077   -0.0002635    3.5235130  
C    5.0461778    0.0003722    1.2720468  
H    4.0011833    0.0001603    1.5508121  
H    5.5192859    0.0017637   -3.3325148  
H    7.7964707    0.0027871   -2.2850761  
C    3.2798077    0.0005856   -1.4499661  
C    2.5571132    0.0005565   -2.5996564  
C    1.1637425    0.0001547   -2.2210366  
C    1.1336959   -0.0000200   -0.7459475  
N    2.4483509   -0.0001429   -0.3402730  
C    0.0000000    0.0000000    0.0000000  
C   -1.2757370   -0.0000187   -0.6964411  
O   -2.3524597   -0.0000640   -0.1142306  
C   -1.2676502   -0.0000874   -2.2584078  
O   -2.3355774   -0.0004102   -2.8557287  
C    0.0181551    0.0001758   -2.9516297  
H    2.9547342    0.0006074   -3.5989118  
H    0.0150776    0.0003317   -4.0331632  
H    2.7563626    0.0012823    0.6148051  
C    0.0000000    0.0000000    1.4700000  
C    1.0662921    0.0000102    2.3034270  
C    0.4961870   -0.0000064    3.6418889  
C   -0.9663858    0.0000850    3.4240247  
N   -1.2632773    0.0000084    2.1528658  
C   -1.8985362    0.0000517    4.5177257  
C   -1.3925775   -0.0004564    5.7720543  
O   -2.1456383   -0.0005410    6.8851312  
C    0.0786232   -0.0009323    6.0245000  
O    0.4683759   -0.0012588    7.1921102  
C    1.0143166   -0.0008442    4.8859032  
H    2.1107198   -0.0000632    2.0421868  
H   -2.9622183    0.0003270    4.3293377  
H   -1.5042274   -0.0009692    7.6184419  
H    2.0724152   -0.0013148    5.1109744  
