60

C    0.8704607   -0.7166978   -5.2245476  
C    0.0139746    0.0003883   -4.4216235  
C   -0.8565292    0.7277033   -5.2863984  
C   -0.4806003    0.4117082   -6.6170942  
N    0.5722077   -0.4662428   -6.5435119  
C   -1.1267213    0.9506226   -7.7337360  
C   -2.1715667    1.8242144   -7.5028414  
O   -2.8373735    2.3791914   -8.5572204  
C   -2.5611818    2.1521250   -6.1824277  
O   -3.6183169    3.0362509   -6.1181717  
C   -1.9240431    1.6210600   -5.0803612  
H    1.0434888   -0.8745196   -7.3303952  
H   -0.8449224    0.7139142   -8.7504759  
H   -3.5192187    2.9499905   -8.1796760  
H   -3.8180642    3.2047228   -5.1922548  
H   -2.2446704    1.8910067   -4.0809587  
H    1.6714293   -1.3858893   -4.9607472  
C    3.2798087    0.0005858   -1.4499643  
C    2.5571149    0.0005569   -2.5996548  
C    1.1637440    0.0001551   -2.2210358  
C    1.1336966   -0.0000198   -0.7459468  
N    2.4483512   -0.0001426   -0.3402714  
C    0.0000000    0.0000000    0.0000000  
C   -1.2757369   -0.0000185   -0.6964416  
O   -2.3524599   -0.0000639   -0.1142315  
C   -1.2676492   -0.0000870   -2.2584080  
O   -2.3355760   -0.0004099   -2.8557298  
C    0.0181565    0.0001762   -2.9516296  
H    2.9547360    0.0006079   -3.5989102  
H    2.7563627    0.0012824    0.6148067  
C    6.8068836    0.0035028   -4.1746982  
C    5.5278600    0.0022336   -3.7323449  
C    5.6328285    0.0014355   -2.2813170  
C    7.0869596    0.0022994   -2.0128312  
N    7.7802417    0.0035931   -3.1188818  
C    7.6138029    0.0019137   -0.6758484  
C    6.7282250    0.0011080    0.3464464  
O    7.0793816    0.0006626    1.6436474  
C    5.2547115    0.0005953    0.1078717  
O    4.5071908   -0.0002581    1.0858453  
C    4.7390849    0.0009618   -1.2727274  
H    4.6247057    0.0019725   -4.3183375  
H    8.6810612    0.0023580   -0.5089097  
H    6.2347352    0.0001400    2.1291635  
H    7.1567966    0.0044022   -5.1947641  
C    0.8400945    0.7047457    2.2710304  
C    0.0000000    0.0000000    1.4700000  
C   -0.8844236   -0.7423113    2.3369512  
C   -0.4878984   -0.4098547    3.7186280  
N    0.5629682    0.4714286    3.6095011  
C   -1.0836927   -0.9095027    4.8308716  
C   -2.1891196   -1.8367527    4.6554461  
O   -2.7906899   -2.3413415    5.5944904  
C   -2.6257283   -2.2031529    3.2011665  
O   -3.5549479   -2.9829990    3.0410059  
C   -1.9068976   -1.5999348    2.0816745  
H   -0.7774656   -0.6525820    5.8354244  
H   -2.2155208   -1.8586617    1.0779135  
H    1.6384792    1.3747609    1.9961646  
H    1.0518368    0.8833920    4.3830260  
