62

C    5.0533580   -2.4171681   -4.7820505  
C    6.2992310   -2.6404019   -5.3209692  
C    6.7162354   -1.4179154   -5.9261416  
C    5.6750547   -0.4763941   -5.7226578  
N    4.6798623   -1.1163603   -5.0264875  
C    5.7446085    0.8403476   -6.1875689  
C    6.8861513    1.2135119   -6.8700694  
O    7.0064020    2.4873234   -7.3454180  
C    7.9356387    0.2883781   -7.0834252  
O    9.0051060    0.8119858   -7.7801443  
C    7.8675874   -1.0108575   -6.6252963  
H    6.8403981   -3.5703131   -5.2835792  
H    4.9544387    1.5627198   -6.0358722  
H    7.8660576    2.5352430   -7.7835520  
H    9.6689707    0.1230125   -7.8811546  
H    8.6872100   -1.6969713   -6.8040280  
H    4.4009968   -3.0833260   -4.2438894  
C    2.7995515   -0.7227058   -3.3688293  
C    1.6478437   -0.0100096   -3.2702997  
C    1.5004231    0.7245491   -4.5046115  
C    2.6690165    0.3788788   -5.3362923  
N    3.4177244   -0.5018748   -4.5902369  
C    2.8986522    0.8683245   -6.5810469  
C    1.9303400    1.7977535   -7.1387824  
O    2.0476279    2.2937754   -8.2516643  
C    0.6853852    2.1780709   -6.2755031  
O   -0.1364814    2.9598682   -6.7344027  
C    0.5468489    1.5850649   -4.9477216  
H    3.7622164    0.6017885   -7.1744480  
H   -0.3180857    1.8534007   -4.3564451  
H    3.2488297   -1.3905090   -2.6518373  
C    1.1188642    0.0008224   -0.8003808  
C    0.0000000    0.0000000    0.0000000  
C   -1.1323861    0.0008899   -0.8673529  
C   -0.6382661    0.0019681   -2.1969282  
N    0.7324017    0.0038483   -2.1202240  
C   -1.4770912    0.0027320   -3.3154810  
C   -2.8395474    0.0020946   -3.0876860  
O   -3.7039199    0.0024426   -4.1440353  
C   -3.3517867    0.0013927   -1.7684331  
O   -4.7300496    0.0012363   -1.7073125  
C   -2.5248543    0.0009121   -0.6644818  
H   -1.1067568    0.0036992   -4.3313814  
H   -4.5940031    0.0021828   -3.7685133  
H   -4.9934602    0.0007260   -0.7819919  
H   -2.9462579    0.0005600    0.3339656  
H    2.1619896    0.0009357   -0.5342065  
C    0.8400945    0.7047457    2.2710304  
C    0.0000000    0.0000000    1.4700000  
C   -0.8844236   -0.7423113    2.3369512  
C   -0.4878984   -0.4098547    3.7186280  
N    0.5629682    0.4714286    3.6095011  
C   -1.0836927   -0.9095027    4.8308716  
C   -2.1891196   -1.8367527    4.6554461  
O   -2.7906899   -2.3413415    5.5944904  
C   -2.6257283   -2.2031529    3.2011665  
O   -3.5549479   -2.9829990    3.0410059  
C   -1.9068976   -1.5999348    2.0816745  
H   -0.7774656   -0.6525820    5.8354244  
H   -2.2155208   -1.8586617    1.0779135  
H    1.6384792    1.3747609    1.9961646  
H    1.0518368    0.8833920    4.3830260  
