62

C    2.4938363   -2.1214411   -5.9023410  
C    1.8951707   -1.6223093   -7.0358905  
C    0.8534333   -0.7479144   -6.6059867  
C    0.8643852   -0.7532636   -5.1876156  
N    1.8712166   -1.5989406   -4.7929780  
C   -0.0307359   -0.0004648   -4.4215606  
C   -0.9535297    0.7720375   -5.0996971  
O   -1.8506809    1.5268333   -4.4008284  
C   -0.9804619    0.7903148   -6.5145319  
O   -1.9581565    1.6088082   -7.0413378  
C   -0.0978807    0.0477026   -7.2709075  
H    2.1741817   -1.8601301   -8.0481094  
H    2.1244781   -1.7955407   -3.8415642  
H   -2.3948814    1.9813032   -5.0570047  
H   -1.9079166    1.5637762   -8.0010520  
H   -0.1426932    0.0817546   -8.3531784  
H    3.3147713   -2.8099247   -5.7973913  
C    3.2573667   -0.0002920   -1.5109386  
C    2.5379466   -0.0001709   -0.3591965  
C    1.1435040    0.0000332   -0.7338503  
C    1.1092604   -0.0000083   -2.2088478  
N    2.4227557    0.0001908   -2.6182616  
C   -0.0265538   -0.0002523   -2.9515663  
C   -1.3003040   -0.0002641   -2.2514979  
O   -2.3786787   -0.0004133   -2.8306426  
C   -1.2877728    0.0000312   -0.6895607  
O   -2.3539959    0.0003306   -0.0892033  
C    0.0000000    0.0000000    0.0000000  
H    2.9384091   -0.0000368    0.6389234  
H    2.7280486   -0.0013408   -3.5742120  
C    4.7161330   -0.0005435   -1.6923266  
C    5.6747634   -0.0008964   -0.7370224  
C    6.9326495   -0.0010019   -1.4679276  
C    6.5359790   -0.0007817   -2.8924402  
N    5.2379003   -0.0004318   -3.0302108  
C    7.5063007   -0.0007607   -3.9524221  
C    8.8134760   -0.0005622   -3.6051057  
O    9.8251244   -0.0005268   -4.4897576  
C    9.2455282   -0.0004055   -2.1762981  
O   10.4523081   -0.0003519   -1.9335989  
C    8.2310911   -0.0004742   -1.1072604  
H    5.5443950   -0.0009742    0.3316590  
H    7.1881014   -0.0008042   -4.9847297  
H   10.6319768   -0.0003444   -3.9437340  
H    8.5850041   -0.0002407   -0.0850202  
C    0.8576279    0.7185626    2.2703808  
C    0.0000000    0.0000000    1.4700000  
C   -0.8668858   -0.7285659    2.3373528  
C   -0.4876752   -0.4117774    3.6669281  
N    0.5635254    0.4678311    3.5902241  
C   -1.1297612   -0.9515493    4.7854808  
C   -2.1738724   -1.8268314    4.5576857  
O   -2.8357962   -2.3827064    5.6140350  
C   -2.5667212   -2.1555554    3.2384331  
O   -3.6226318   -3.0413663    3.1773122  
C   -1.9335634   -1.6236449    2.1344818  
H    1.0363952    0.8769718    4.3757045  
H   -0.8454472   -0.7142436    5.8013813  
H   -3.5178062   -2.9546422    5.2385129  
H   -3.8247440   -3.2102924    2.2519915  
H   -2.2566033   -1.8942483    1.1360343  
H    1.6567807    1.3889844    2.0042067  
