60

C   -0.3584581   -0.6908959   -9.5289349  
C   -0.0692645   -0.6447750  -10.8730730  
C   -0.2743762    0.7015912  -11.2971328  
C   -0.6914948    1.4375906  -10.1586064  
N   -0.7338938    0.5615265   -9.1025138  
C   -0.9843439    2.8038605  -10.2069194  
C   -0.8534423    3.4387735  -11.4267262  
O   -1.1263160    4.7721345  -11.5301761  
C   -0.4389001    2.7214851  -12.5741012  
O   -0.3570280    3.4948881  -13.7136129  
C   -0.1500908    1.3735539  -12.5272324  
H    0.2491711   -1.4791536  -11.4742431  
H   -1.3028589    3.3704863   -9.3428093  
H   -0.9738922    5.0111813  -12.4536961  
H   -0.0706785    2.9346959  -14.4414823  
H    0.1650333    0.8507358  -13.4226854  
H   -0.3280033   -1.5183843   -8.8409718  
C    0.9070721   -0.7042925   -5.2310448  
C    0.0950446    0.0004351   -4.4015596  
C   -0.8184768    0.7430225   -5.2375492  
C   -0.4696132    0.4107475   -6.6320662  
N    0.5842462   -0.4707050   -6.5591865  
C   -1.1031226    0.9106725   -7.7231417  
C   -2.2017459    1.8380503   -7.5097580  
O   -2.8350879    2.3428870   -8.4275373  
C   -2.5881745    2.2042621   -6.0413008  
O   -3.5112398    2.9842135   -5.8492396  
C   -1.8314683    1.6007480   -4.9472170  
H   -2.1054515    1.8593460   -3.9334203  
H    1.7143130   -1.3744693   -4.9838303  
H    1.0462412   -0.8826050   -7.3490886  
C    3.3321173    0.0004713   -1.3379338  
C    2.6974181    0.0000116   -2.5332314  
C    1.2800438   -0.0002119   -2.2052841  
C    1.2395034    0.0000643   -0.7271299  
N    2.4394062    0.0005460   -0.2131038  
C    0.0000000    0.0000000    0.0000000  
C   -1.1468702    0.0000634   -0.7169543  
O   -2.3742203    0.0000074   -0.1695487  
C   -1.1388770    0.0001607   -2.2096355  
O   -2.2206234    0.0000905   -2.7970411  
C    0.1454522    0.0001815   -2.9324241  
H    3.1367984   -0.0000653   -3.5160950  
H   -2.9844346    0.0001026   -0.9290167  
H    4.3940038    0.0007618   -1.1498640  
C    2.4951002    2.0940188    2.9809380  
C    1.9440701    1.6314916    1.8291961  
C    0.8759964    0.7350050    2.2038498  
C    0.8497377    0.7130254    3.6788474  
N    1.8560616    1.5571714    4.0882609  
C   -0.0205033   -0.0168748    4.4215661  
C   -0.9962600   -0.8356168    3.7214979  
O   -1.8224391   -1.5286685    4.3006425  
C   -0.9864710   -0.8277881    2.1595606  
O   -1.8030528   -1.5133726    1.5592035  
C    0.0000000    0.0000000    1.4700000  
H    2.2509283    1.8888011    0.8310761  
H   -0.0229599   -0.0187323    5.5027230  
H    3.3143982    2.7817323    3.1139444  
H    2.0889452    1.7545833    5.0442112  
