64

C    6.8376860   -1.8262263   -2.4456797  
C    7.5945807   -2.6330641   -1.6280059  
C    8.9458033   -2.5254280   -2.0720891  
C    8.9521051   -1.6310670   -3.1730003  
N    7.6557684   -1.2266585   -3.3744470  
C   10.1191675   -1.2887418   -3.8626144  
C   11.3014495   -1.8594333   -3.4328477  
O   12.4705193   -1.5594642   -4.0702695  
C   11.3154750   -2.7543114   -2.3365753  
O   12.5704958   -3.2385736   -2.0303785  
C   10.1644815   -3.0926859   -1.6559567  
H    7.2188501   -3.2270836   -0.8125540  
H    7.3522775   -0.5815560   -4.0813537  
H   10.1306416   -0.6078477   -4.7025275  
H   13.1637517   -2.0575025   -3.6178847  
H   12.4915545   -3.8348772   -1.2795163  
H   10.2063031   -3.7811198   -0.8200214  
C    4.4878226   -2.1225243   -1.5677351  
C    3.2260915   -1.6607473   -1.8631397  
C    3.3567347   -0.7724508   -2.9714996  
C    4.7330248   -0.7316536   -3.3122138  
N    5.3917970   -1.5611584   -2.4389681  
C    5.2292372    0.0455299   -4.3631890  
C    4.3194783    0.7949499   -5.0835267  
O    4.7499702    1.5713844   -6.1202723  
C    2.9423430    0.7677547   -4.7586014  
O    2.1641572    1.5685999   -5.5687981  
C    2.4521483    0.0014840   -3.7217481  
H    2.3228223   -1.9300608   -1.3429786  
H    6.2770470    0.0810834   -4.6278253  
H    3.9654403    2.0043827   -6.4812289  
H    1.2487978    1.4927308   -5.2825018  
H    4.8146445   -2.8067987   -0.8035913  
C    0.0000000    0.0000000    0.0000000  
C    1.0662923   -0.0000101   -0.8334270  
C    0.4961873    0.0000065   -2.1718887  
C   -0.9663854   -0.0000848   -1.9540250  
N   -1.2632773   -0.0000083   -0.6828660  
C   -1.8985359   -0.0000514   -3.0477261  
C   -1.3925770    0.0004566   -4.3020547  
O   -2.1456378    0.0005414   -5.4151314  
C    0.0786240    0.0009326   -4.5545000  
O    0.4683767    0.0012591   -5.7221100  
C    1.0143171    0.0008444   -3.4159031  
H    2.1107200    0.0000633   -0.5721865  
H   -2.9622181   -0.0003268   -2.8593381  
H   -1.5042265    0.0009697   -6.1484419  
C    3.3041272   -0.0001177    3.0120429  
C    2.5845372    0.0004780    1.8395852  
C    1.2040006    0.0000008    2.1983588  
C    1.1422373   -0.0006037    3.6154372  
N    2.4348639   -0.0026109    4.0777464  
C   -0.0655181   -0.0008797    4.3197917  
C   -1.2321768   -0.0002324    3.5801400  
O   -2.4392816   -0.0001146    4.2172520  
C   -1.1911209    0.0000007    2.1655264  
O   -2.4371527    0.0002320    1.5732860  
C    0.0000000    0.0000000    1.4700000  
H    3.0031534    0.0000661    0.8477417  
H    2.7054629    0.0071099    5.0445261  
H   -0.1193549   -0.0014844    5.3997470  
H   -3.1132988    0.0000648    3.5251786  
H   -2.3200282    0.0004071    0.6183591  
H    4.3686625   -0.0004071    3.1724291  
