62

C    0.0000000    0.0000000    0.0000000  
C    0.6154222    0.8534110   -0.8862352  
C    0.2881311    0.3984604   -2.1979138  
C   -0.5367946   -0.7456160   -2.0478679  
N   -0.6902839   -0.9611196   -0.7007910  
C   -1.0492055   -1.4566438   -3.1372086  
C   -0.7231641   -1.0043178   -4.4010419  
O   -1.1969255   -1.6611201   -5.4997570  
C    0.0988352    0.1350595   -4.5711967  
O    0.3330068    0.4593429   -5.8915556  
C    0.6049157    0.8368351   -3.4969899  
H    1.2261283    1.6990943   -0.6200576  
H   -1.2340958   -1.6978872   -0.2891818  
H   -1.6783529   -2.3294470   -3.0295501  
H   -0.8551944   -1.1876246   -6.2693586  
H    0.8956543    1.2392990   -5.9180054  
C    2.5643923    2.3803956   -3.0311638  
C    1.4555851    2.0155202   -3.7159937  
C    1.2818616    3.0480336   -4.7260616  
C    2.4051127    3.9829018   -4.5004217  
N    3.1603601    3.5967033   -3.5082311  
C    2.5914559    5.1572359   -5.3074540  
C    1.6965816    5.3869807   -6.2952554  
O    1.7485447    6.4433936   -7.1243100  
C    0.5526151    4.4620250   -6.5481547  
O   -0.2232893    4.7335594   -7.4643762  
C    0.3830368    3.2641332   -5.7065944  
H    0.9821310    6.3325693   -7.7154788  
H   -0.4583351    2.6192539   -5.9221265  
H    3.0277584    1.8741916   -2.1992847  
C    4.9931241    5.7366710   -4.7283459  
C    3.7204570    6.0634757   -5.0525320  
C    3.7060592    7.5175756   -5.0959655  
C    5.0912988    7.9141080   -4.7636135  
N    5.8503740    6.8744211   -4.5471762  
C    5.4941353    9.2921375   -4.7016304  
C    4.5558692   10.2313284   -4.9603017  
O    4.7919390   11.5541369   -4.9381667  
C    3.1495818    9.8628459   -5.2990326  
O    2.3483678   10.7701778   -5.5226959  
C    2.7610671    8.4423859   -5.3562492  
H    6.5131868    9.5531910   -4.4560810  
H    3.9361424   11.9625014   -5.1617807  
H    1.7327395    8.2170914   -5.6052773  
H    5.4131381    4.7520921   -4.5973254  
C    1.1188642   -0.0008217    2.2703808  
C    0.0000000    0.0000000    1.4700000  
C   -1.1323862   -0.0008904    2.3373528  
C   -0.6382662   -0.0019682    3.6669281  
N    0.7324016   -0.0038477    3.5902241  
C   -1.4770914   -0.0027325    4.7854808  
C   -2.8395474   -0.0020958    4.5576857  
O   -3.7039201   -0.0024443    5.6140350  
C   -3.3517868   -0.0013946    3.2384331  
O   -4.7300496   -0.0012389    3.1773122  
C   -2.5248543   -0.0009135    2.1344818  
H    1.3576314    0.0056174    4.3757045  
H   -1.1067570   -0.0036993    5.8013813  
H   -4.5940033   -0.0021850    5.2385129  
H   -4.9934601   -0.0007286    2.2519915  
H   -2.9462578   -0.0005617    1.1360343  
H    2.1619896   -0.0009344    2.0042067  
