62

C    0.8391157   -0.0046478   -7.7586928  
C   -0.2161348   -0.0031137   -6.8761330  
C   -1.4107663   -0.0039878   -7.6555266  
C   -1.0184271   -0.0063645   -9.0186072  
N    0.3541201   -0.0047562   -9.0455989  
C   -1.9392991   -0.0080847  -10.0706442  
C   -3.2806708   -0.0076999   -9.7406463  
O   -4.2223220   -0.0096734  -10.7287273  
C   -3.6918570   -0.0049661   -8.3864910  
O   -5.0615735   -0.0045072   -8.2214994  
C   -2.7839464   -0.0029948   -7.3481177  
H   -0.1348639   -0.0004511   -5.8026428  
H    0.9182684   -0.0163742   -9.8760114  
H   -1.6467124   -0.0097551  -11.1116017  
H   -5.0815162   -0.0087048  -10.2870844  
H   -5.2543794   -0.0026404   -7.2789358  
H   -3.1287741   -0.0007356   -6.3207096  
C    3.0267439   -0.0008952   -3.9901698  
C    4.3139890   -0.0013046   -4.4079961  
C    4.2367748   -0.0025853   -5.8607646  
C    2.7880405   -0.0029129   -6.1569950  
N    2.0737437   -0.0018452   -5.0643975  
C    2.2868486   -0.0040739   -7.5038028  
C    3.1918041   -0.0044824   -8.5089851  
O    2.8655066   -0.0055571   -9.8126599  
C    4.6604883   -0.0037972   -8.2422898  
O    5.4265656   -0.0043474   -9.2057970  
C    5.1496323   -0.0026520   -6.8520872  
H    5.2057783   -0.0007094   -3.8048486  
H    3.7192782   -0.0055654  -10.2819432  
H    6.2208236   -0.0020677   -6.7011578  
C    3.3003547    0.0005275   -1.4738985  
C    2.5232817    0.0003496   -2.6090745  
C    1.1623204   -0.0001319   -2.1820101  
C    1.1711885    0.0000583   -0.7636140  
N    2.4852303   -0.0014920   -0.3662357  
C    0.0000000    0.0000000    0.0000000  
C   -1.2020382    0.0000520   -0.6806479  
O   -2.3759248    0.0003494    0.0157744  
C   -1.2314653   -0.0005113   -2.0955511  
O   -2.5054389   -0.0008038   -2.6250185  
C   -0.0764511   -0.0007273   -2.8495194  
H    2.8036269    0.0088181    0.5858664  
H   -3.0835637    0.0000348   -0.6418823  
H   -2.4360044   -0.0011528   -3.5845926  
H   -0.1304090   -0.0013422   -3.9319089  
H    4.3715553    0.0004894   -1.3667132  
C    2.5528530    2.1414826    2.8079335  
C    2.0663498    1.7338582    4.0032312  
C    0.9804344    0.8229586    3.6752840  
C    0.9495562    0.7966882    2.1971295  
N    1.8690446    1.5676019    1.6831036  
C    0.0000000    0.0000000    1.4700000  
C   -0.8785127   -0.7372425    2.1869543  
O   -1.8187535   -1.5261249    1.6395491  
C   -0.8723269   -0.7321790    3.6796354  
O   -1.7010379   -1.4274584    4.2670412  
C    0.1115397    0.0933559    4.4024240  
H    2.4028853    2.0163452    4.9860947  
H   -2.2861435   -1.9184361    2.3990168  
H    0.0832434    0.0693689    5.4835595  
H    3.3664920    2.8238276    2.6198634  
