62

C   -0.7182089   -0.7320058   -9.5193974  
C   -1.0937623    0.5315566   -9.1259044  
C   -1.0004768    1.3706250  -10.2756270  
C   -0.5594305    0.5566369  -11.3502561  
N   -0.3958508   -0.7137134  -10.8562223  
C   -0.3563473    1.0532967  -12.6413314  
C   -0.6032827    2.3960708  -12.8514721  
O   -0.4215060    2.9330247  -14.0931046  
C   -1.0434920    3.2244937  -11.7918738  
O   -1.2452104    4.5385221  -12.1606321  
C   -1.2437905    2.7352625  -10.5178807  
H   -0.1003006   -1.5106322  -11.3905932  
H   -0.0201820    0.4381682  -13.4646241  
H   -0.6464347    3.8697658  -14.0210873  
H   -1.5411645    5.0292813  -11.3878642  
H   -1.5812951    3.3940370   -9.7263091  
H   -0.6534112   -1.6445392   -8.9519094  
C    0.4920766   -0.6868682   -5.2544637  
C   -0.2963293   -0.0005341   -4.3948471  
C   -1.2145546    0.7451069   -5.2418306  
C   -0.8279327    0.3808331   -6.6218351  
N    0.1718580   -0.4583450   -6.6355552  
C   -1.5071739    0.9172630   -7.7689881  
C   -2.5265720    1.7781564   -7.5475751  
O   -3.2476973    2.3546071   -8.5241627  
C   -2.9407254    2.1650499   -6.1666507  
O   -3.8771709    2.9538489   -6.0398159  
C   -2.2282744    1.6012170   -5.0062929  
H   -3.8964326    2.9117963   -8.0574343  
H   -2.5588935    1.9065102   -4.0225665  
H    1.3019141   -1.3594050   -5.0203042  
C    3.1301146   -0.0010313   -1.7028256  
C    2.5367765   -0.0002766   -0.4864669  
C    1.1089901    0.0001027   -0.7656184  
C    1.0177865   -0.0004150   -2.2415133  
N    2.1993571   -0.0011612   -2.7963824  
C   -0.2459219   -0.0002879   -2.9257116  
C   -1.3675326   -0.0000606   -2.1698520  
O   -2.6129318    0.0000865   -2.6748483  
C   -1.3083588    0.0000910   -0.6783229  
O   -2.3693264    0.0004206   -0.0541685  
C    0.0000000    0.0000000    0.0000000  
H    3.0096016   -0.0001007    0.4807518  
H   -3.1967444    0.0002093   -1.8949026  
H    4.1849275   -0.0015114   -1.9271979  
C    2.5311839    2.1237619    3.0120429  
C    1.9795631    1.6616747    1.8395852  
C    0.9223175    0.7739173    2.1983588  
C    0.8753926    0.7337535    3.6154372  
N    1.8668922    1.5631002    4.0777464  
C   -0.0496243   -0.0427881    4.3197917  
C   -0.9437528   -0.7922060    3.5801400  
O   -1.8685244   -1.5680278    4.2172520  
C   -0.9124520   -0.7656372    2.1655264  
O   -1.8671164   -1.5663939    1.5732860  
C    0.0000000    0.0000000    1.4700000  
H    2.3005065    1.9304404    0.8477417  
H    2.0679347    1.7444845    5.0445261  
H   -0.0904770   -0.0778569    5.3997470  
H   -2.3849669   -2.0011402    3.5251786  
H   -1.7775064   -1.4909735    0.6183591  
H    3.3468514    2.8078103    3.1724291  
