62

C    3.8151575    0.7025592   -7.9358752  
C    3.7330841    0.4521942   -9.2860789  
C    4.7838320   -0.4580692   -9.6053733  
C    5.4796832   -0.7299657   -8.3996419  
N    4.8668237   -0.0077438   -7.4059541  
C    6.5795787   -1.5909701   -8.3388878  
C    6.9842027   -2.1886148   -9.5167149  
O    8.0523150   -3.0384040   -9.5141530  
C    6.3029854   -1.9296095  -10.7298421  
O    6.8269427   -2.6002509  -11.8156831  
C    5.2180019   -1.0801096  -10.7905677  
H    3.0060763    0.8746282   -9.9583905  
H    7.1143089   -1.8022439   -7.4231217  
H    8.1636553   -3.3397641  -10.4252231  
H    6.3098029   -2.3702889  -12.5936864  
H    4.7163809   -0.9009443  -11.7343663  
H    3.2076149    1.3327193   -7.3091787  
C    2.4861703   -0.0045381   -3.7159920  
C    3.4897069   -0.0059405   -2.8011220  
C    4.7313105   -0.0078380   -3.5381791  
C    4.3662423   -0.0073938   -4.9676949  
N    2.9909945   -0.0057667   -5.0074606  
C    5.2594871   -0.0083964   -5.9893680  
C    6.6748999   -0.0102475   -5.6590057  
O    7.5569791   -0.0113202   -6.5076729  
C    7.0843360   -0.0110000   -4.1516348  
O    8.2730121   -0.0128630   -3.8612809  
C    6.0304251   -0.0095091   -3.1401398  
H    3.3734534   -0.0058582   -1.7319639  
H    6.3222878   -0.0098369   -2.0987274  
H    2.4390587   -0.0035497   -5.8455586  
C    0.0000000    0.0000000    0.0000000  
C    1.0521669   -0.0011901   -0.8862341  
C    0.4917220   -0.0011956   -2.1979132  
C   -0.9187428    0.0003148   -2.0478684  
N   -1.1833170   -0.0009411   -0.7007915  
C   -1.7951699    0.0010351   -3.1372091  
C   -1.2375836    0.0005225   -4.4010425  
O   -2.0474210    0.0015361   -5.4997584  
C    0.1673583   -0.0013566   -4.5711960  
O    0.5673528   -0.0020686   -5.8915549  
C    1.0325772   -0.0023411   -3.4969890  
H    2.0953059   -0.0030648   -0.6200562  
H   -2.0989777    0.0102372   -0.2891825  
H   -2.8710931    0.0020419   -3.0295515  
H   -1.4634882    0.0006497   -6.2693594  
H    1.5290713   -0.0033151   -5.9180046  
C    1.0965515   -0.0001358    2.2710304  
C    0.0000000    0.0000000    1.4700000  
C   -1.1546562   -0.0001469    2.3369512  
C   -0.6372014   -0.0003519    3.7186280  
N    0.7342871   -0.0007337    3.6095011  
C   -1.4147739   -0.0001353    4.8308716  
C   -2.8576048    0.0001048    4.6554461  
O   -3.6427778    0.0002493    5.5944904  
C   -3.4275839    0.0000726    3.2011665  
O   -4.6406829   -0.0000333    3.0410059  
C   -2.4891866    0.0001091    2.0816745  
H   -1.0150448   -0.0001615    5.8354244  
H   -2.8919121    0.0002919    1.0779135  
H    2.1388271   -0.0000662    1.9961646  
H    1.3735872    0.0006099    4.3830260  
