62

C   -0.7452176    2.1231618   -5.9066527  
C    0.5378298    1.6611891   -6.0878616  
C    0.5070414    0.7736795   -7.2040958  
C   -0.8330951    0.7335421   -7.6670755  
N   -1.5674286    1.5626651   -6.8559489  
C   -1.2331008   -0.0427785   -8.7589133  
C   -0.2625090   -0.7919980   -9.3951511  
O   -0.5983386   -1.5675994  -10.4669146  
C    1.0798833   -0.7654523   -8.9478311  
O    1.9274922   -1.5659949   -9.6854177  
C    1.4751621   -0.0000331   -7.8706057  
H    1.3907969    1.9298697   -5.4884863  
H   -2.5504946    1.7440134   -6.9490830  
H   -2.2529153   -0.0778261   -9.1166163  
H    0.2153316   -2.0006005  -10.7562504  
H    2.8134564   -1.4906059   -9.3180112  
H   -1.1391802    2.8070237   -5.1744743  
C    3.2973507   -0.0000930   -3.8752373  
C    4.6090968    0.0000004   -4.2265165  
C    4.6584750   -0.0001366   -5.6695683  
C    3.2579285   -0.0002894   -6.1335298  
N    2.4824025   -0.0006537   -4.9971105  
C    2.8797120   -0.0000493   -7.4368546  
C    3.9215751    0.0001631   -8.4502930  
O    3.6829943    0.0003255   -9.6508680  
C    5.4116105    0.0000756   -7.9816786  
O    6.2974484   -0.0000538   -8.8258060  
C    5.6945666    0.0000909   -6.5485740  
H    5.4465358   -0.0000338   -3.5517507  
H    6.7288538    0.0002355   -6.2323876  
H    1.4789637    0.0007244   -4.9846260  
C    3.3321175    0.0004715   -1.3379331  
C    2.6974186    0.0000117   -2.5332308  
C    1.2800441   -0.0002117   -2.2052838  
C    1.2395036    0.0000644   -0.7271292  
N    2.4394065    0.0005460   -0.2131033  
C    0.0000000    0.0000000    0.0000000  
C   -1.1468701    0.0000635   -0.7169542  
O   -2.3742199    0.0000073   -0.1695491  
C   -1.1388766    0.0001607   -2.2096354  
O   -2.2206227    0.0000905   -2.7970412  
C    0.1454526    0.0001817   -2.9324239  
H   -2.9844344    0.0001026   -0.9290168  
H    0.1083579    0.0003683   -4.0135594  
H    4.3940038    0.0007619   -1.1498630  
C    0.0000000    0.0000000    1.4700000  
C    1.0521667    0.0011902    2.3562342  
C    0.4917218    0.0011957    3.6679131  
C   -0.9187428   -0.0003148    3.5178682  
N   -1.1833171    0.0009411    2.1707914  
C   -1.7951701   -0.0010350    4.6072090  
C   -1.2375837   -0.0005224    5.8710424  
O   -2.0474215   -0.0015360    6.9697579  
C    0.1673580    0.0013566    6.0411963  
O    0.5673524    0.0020687    7.3615553  
C    1.0325770    0.0023412    4.9669890  
H    2.0953057    0.0030649    2.0900562  
H   -2.0989778   -0.0102372    1.7591824  
H   -2.8710934   -0.0020419    4.4995513  
H   -1.4634884   -0.0006497    7.7393593  
H    1.5290710    0.0033153    7.3880045  
H    2.1042148    0.0039609    5.1284455  
