64

C   -1.1259122    0.6245985   -8.9717929  
C   -0.1609988   -0.2063614   -9.4922887  
C   -0.2903165   -0.1565807  -10.9119356  
C   -1.3597972    0.7289719  -11.2016482  
N   -1.8461197    1.1840127  -10.0012132  
C   -1.7691992    1.0189481  -12.5066743  
C   -1.0863335    0.4039927  -13.5380343  
O   -1.4445160    0.6519370  -14.8315725  
C   -0.0168133   -0.4829312  -13.2691312  
O    0.5621439   -1.0153465  -14.4025716  
C    0.3874374   -0.7696738  -11.9819313  
H    0.5480562   -0.7789147   -8.9192115  
H   -2.6017010    1.8358310   -9.8907072  
H   -2.5836411    1.6928542  -12.7341359  
H   -0.8491913    0.1295017  -15.3846684  
H    1.2748495   -1.6026368  -14.1328604  
H    1.2099451   -1.4532955  -11.8069443  
C    0.6672009   -0.7204489   -5.1593827  
C   -0.1496415   -0.0015615   -4.3176961  
C   -1.0587669    0.7263815   -5.1412191  
C   -0.7461682    0.4088957   -6.4878484  
N    0.3077049   -0.4705108   -6.4630860  
C   -1.4432461    0.9479361   -7.5733466  
C   -2.4748769    1.8231899   -7.2943381  
O   -3.1886740    2.3783660   -8.3167318  
C   -2.8016130    2.1526034   -5.9573462  
O   -3.8533292    3.0382897   -5.8442236  
C   -2.1141808    1.6214147   -4.8859911  
H    0.7409530   -0.8800259   -7.2709071  
H   -3.8512432    2.9504117   -7.9080382  
H   -4.0091502    3.2077104   -4.9100822  
H   -2.3871567    1.8925360   -3.8728496  
H    1.4787349   -1.3905992   -4.9329532  
C    3.3003543    0.0005276   -1.4738987  
C    2.5232814    0.0003497   -2.6090747  
C    1.1623200   -0.0001320   -2.1820103  
C    1.1711883    0.0000582   -0.7636140  
N    2.4852300   -0.0014919   -0.3662360  
C    0.0000000    0.0000000    0.0000000  
C   -1.2020384    0.0000519   -0.6806477  
O   -2.3759249    0.0003493    0.0157743  
C   -1.2314656   -0.0005115   -2.0955510  
O   -2.5054392   -0.0008039   -2.6250180  
C   -0.0764516   -0.0007274   -2.8495195  
H    2.8919955   -0.0005620   -3.6205304  
H    2.8036267    0.0088183    0.5858662  
H   -3.0835638    0.0000347   -0.6418818  
H   -2.4360047   -0.0011529   -3.5845921  
H    4.3715549    0.0004895   -1.3667136  
C    0.8175213    0.6860729    2.3021913  
C    0.0000000    0.0000000    1.4700000  
C   -0.8887526   -0.7456559    2.3478473  
C   -0.4549825   -0.3816753    3.7138435  
N    0.5448156    0.4573574    3.6934124  
C   -1.0945674   -0.9182058    4.8835240  
C   -2.1210866   -1.7789155    4.6970523  
O   -2.8083856   -2.3554314    5.6976972  
C   -2.5824069   -2.1655116    3.3310774  
O   -3.5227682   -2.9541547    3.2362962  
C   -1.9100805   -1.6015804    2.1470656  
H   -0.7567140   -0.6349833    5.8697035  
H   -3.4728268   -2.9124471    5.2533954  
H   -2.2742832   -1.9066565    1.1752040  
H    1.6189533    1.3585343    2.0405121  
