66

C    9.8601854   -0.7024491   -2.4117605  
C   11.2125357   -0.4505620   -2.4248089  
C   11.4561342    0.4600588   -3.4953364  
C   10.2041527    0.7305945   -4.1046647  
N    9.2568295    0.0072539   -3.4235078  
C   10.0652429    1.5915276   -5.1974995  
C   11.2110317    2.1904994   -5.6838930  
O   11.1324162    3.0402828   -6.7491163  
C   12.4693456    1.9328631   -5.0896813  
O   13.5149020    2.6047273   -5.6886401  
C   12.6071669    1.0834345   -4.0117193  
H   11.9347760   -0.8722360   -1.7469058  
H    9.1139074    1.8017679   -5.6664996  
H   12.0330645    3.3426699   -6.9242182  
H   14.3275997    2.3756436   -5.2275019  
H   13.5840994    0.9053341   -3.5777155  
H    9.2784673   -1.3333144   -1.7617050  
C    5.7158606   -0.0000955   -0.7739113  
C    4.7577216    0.0005129   -1.7610467  
C    5.4466896    0.0033016   -3.0100126  
C    6.8350414    0.0040102   -2.7194886  
N    6.9633987    0.0038536   -1.3526887  
C    7.8161411    0.0063086   -3.7155941  
C    7.3879062    0.0076141   -5.0289071  
O    8.3036910    0.0095175   -6.0410086  
C    6.0070627    0.0073116   -5.3388861  
O    5.7412875    0.0091659   -6.6926599  
C    5.0386296    0.0053176   -4.3567148  
H    7.8332611   -0.0063197   -0.8514735  
H    7.7997538    0.0104659   -6.8652120  
H    4.7870501    0.0087940   -6.8152753  
H    3.9885435    0.0053171   -4.6246649  
H    5.6080642   -0.0015882    0.2972267  
C    3.3041270    0.0001177   -1.5420435  
C    2.5845370   -0.0004780   -0.3695856  
C    1.2040004   -0.0000007   -0.7283590  
C    1.1422370    0.0006038   -2.1454373  
N    2.4348634    0.0026110   -2.6077469  
C   -0.0655187    0.0008799   -2.8497918  
C   -1.2321769    0.0002326   -2.1101398  
O   -2.4392822    0.0001149   -2.7472517  
C   -1.1911211   -0.0000007   -0.6955263  
O   -2.4371526   -0.0002319   -0.1032858  
C    0.0000000    0.0000000    0.0000000  
H    3.0031534   -0.0000661    0.6222578  
H    2.7054623   -0.0071098   -3.5745266  
H   -0.1193555    0.0014846   -3.9297472  
H   -3.1132992   -0.0000646   -2.0551783  
H   -2.3200279   -0.0004070    0.8516411  
C    2.5285572    2.1210227    2.9438989  
C    1.9331703    1.6216660    4.0790748  
C    0.8903039    0.7472258    3.6520102  
C    0.8972198    0.7527806    2.2336141  
N    1.9028376    1.5986179    1.8362361  
C    0.0000000    0.0000000    1.4700000  
C   -0.9207814   -0.7726952    2.1506477  
O   -1.8198395   -1.5274828    1.4542253  
C   -0.9436862   -0.7911793    3.5655508  
O   -1.9197945   -1.6098497    4.0950179  
C   -0.0590329   -0.0485852    4.3195194  
H    2.2150357    1.8593692    5.0905303  
H    2.1533708    1.7953814    0.8841339  
H   -2.3621246   -1.9821033    2.1118817  
H   -1.8668290   -1.5649508    5.0545920  
H   -0.1007624   -0.0827977    5.4019087  
H    3.3491200    2.8096064    2.8367138  
