64

C    6.0651568   -0.7129897   -1.0162955  
C    6.7940735   -0.4646223    0.1236441  
C    7.8324978    0.4447245   -0.2360279  
C    7.6853970    0.7181465   -1.6200538  
N    6.6040902   -0.0023257   -2.0631269  
C    8.5397274    1.5787858   -2.3159050  
C    9.5609780    2.1744902   -1.6015105  
O   10.4238669    3.0238399   -2.2316240  
C    9.7242779    1.9139422   -0.2201108  
O   10.7879179    2.5827323    0.3497419  
C    8.8819984    1.0648012    0.4669490  
H    6.6017480   -0.8877662    1.0947017  
H    8.4330398    1.7912158   -3.3707474  
H   11.0506369    3.3237831   -1.5604625  
H   10.8276909    2.3518141    1.2828549  
H    9.0319927    0.8844240    1.5249871  
H    5.2043318   -1.3419548   -1.1657692  
C    2.4521485    0.0014838   -3.7217479  
C    3.5379007    0.0003034   -2.8769945  
C    4.7042704    0.0010689   -3.6980798  
C    4.2640505    0.0030183   -5.0464602  
N    2.8914059    0.0012707   -5.0249751  
C    5.1472042    0.0045259   -6.1303535  
C    6.4993915    0.0043639   -5.8479195  
O    7.4055691    0.0061451   -6.8686304  
C    6.9581315    0.0020568   -4.5091255  
O    8.3328189    0.0017762   -4.3925955  
C    6.0874477    0.0002954   -3.4393439  
H    3.4945818   -0.0020601   -1.8013036  
H    2.2982903    0.0125971   -5.8349547  
H    4.8180480    0.0058704   -7.1603320  
H    8.2798215    0.0053853   -6.4575981  
H    8.5587829    0.0001975   -3.4574264  
C    0.0000000    0.0000000    0.0000000  
C    1.0662924   -0.0000102   -0.8334267  
C    0.4961874    0.0000064   -2.1718888  
C   -0.9663853   -0.0000849   -1.9540250  
N   -1.2632772   -0.0000084   -0.6828660  
C   -1.8985357   -0.0000515   -3.0477261  
C   -1.3925767    0.0004566   -4.3020548  
O   -2.1456375    0.0005411   -5.4151316  
C    0.0786242    0.0009324   -4.5545000  
O    0.4683770    0.0012590   -5.7221099  
C    1.0143173    0.0008443   -3.4159029  
H    2.1107200    0.0000632   -0.5721862  
H   -2.9622180   -0.0003269   -2.8593382  
H   -1.5042262    0.0009694   -6.1484423  
C    1.1188642   -0.0008217    2.2703808  
C    0.0000000    0.0000000    1.4700000  
C   -1.1323862   -0.0008904    2.3373528  
C   -0.6382662   -0.0019682    3.6669281  
N    0.7324016   -0.0038477    3.5902241  
C   -1.4770914   -0.0027325    4.7854808  
C   -2.8395474   -0.0020958    4.5576857  
O   -3.7039201   -0.0024443    5.6140350  
C   -3.3517868   -0.0013946    3.2384331  
O   -4.7300496   -0.0012389    3.1773122  
C   -2.5248543   -0.0009135    2.1344818  
H    1.3576314    0.0056174    4.3757045  
H   -1.1067570   -0.0036993    5.8013813  
H   -4.5940033   -0.0021850    5.2385129  
H   -4.9934601   -0.0007286    2.2519915  
H   -2.9462578   -0.0005617    1.1360343  
H    2.1619896   -0.0009344    2.0042067  
