64

C    1.2159527   -1.0676903   -7.6952661  
C    2.2676896   -1.9534862   -7.7362745  
C    2.5432937   -2.2091700   -9.1122351  
C    1.6199646   -1.4448588   -9.8706671  
N    0.8274510   -0.7650948   -8.9793421  
C    1.6004920   -1.4520991  -11.2686504  
C    2.5302457   -2.2451229  -11.9127384  
O    2.5556724   -2.2891012  -13.2767148  
C    3.4594209   -3.0151634  -11.1734901  
O    4.3201324   -3.7529437  -11.9597461  
C    3.4790327   -3.0087155   -9.7943241  
H    2.7732604   -2.3656105   -6.8798025  
H    0.0872932   -0.1330409   -9.2256246  
H    0.8992567   -0.8719534  -11.8525189  
H    3.2694373   -2.8940840  -13.5171348  
H    4.9139979   -4.2433332  -11.3831659  
H    4.2025002   -3.6091245   -9.2552672  
C    0.8246863   -0.7190548   -5.2242741  
C   -0.0307352   -0.0004646   -4.4215603  
C   -0.9001599    0.7278870   -5.2865486  
C   -0.5247006    0.4109453   -6.6171514  
N    0.5268045   -0.4685443   -6.5433115  
C   -1.1700219    0.9504898   -7.7339512  
C   -2.2135710    1.8256978   -7.5033123  
O   -2.8785543    2.3813521   -8.5578538  
C   -2.6026991    2.1545720   -6.1829954  
O   -3.6585226    3.0402833   -6.1189984  
C   -1.9663483    1.6228859   -5.0807725  
H   -0.8885748    0.7130665   -8.7506223  
H   -3.5595519    2.9532719   -8.1804769  
H   -3.8580189    3.2093225   -5.1931309  
H   -2.2865745    1.8936005   -4.0814492  
H    1.6246620   -1.3893560   -4.9602777  
C    3.2573670   -0.0002920   -1.5109380  
C    2.5379468   -0.0001709   -0.3591961  
C    1.1435043    0.0000332   -0.7338500  
C    1.1092609   -0.0000082   -2.2088477  
N    2.4227562    0.0001909   -2.6182613  
C   -0.0265532   -0.0002522   -2.9515663  
C   -1.3003035   -0.0002639   -2.2514981  
O   -2.3786784   -0.0004131   -2.8306429  
C   -1.2877725    0.0000312   -0.6895608  
O   -2.3539958    0.0003307   -0.0892036  
C    0.0000000    0.0000000    0.0000000  
H    2.9384091   -0.0000369    0.6389239  
H    4.3270394   -0.0004765   -1.6439446  
H    2.7280494   -0.0013406   -3.5742113  
C    0.0000000    0.0000000    1.4700000  
C    1.0521667    0.0011902    2.3562342  
C    0.4917218    0.0011957    3.6679131  
C   -0.9187428   -0.0003148    3.5178682  
N   -1.1833171    0.0009411    2.1707914  
C   -1.7951701   -0.0010350    4.6072090  
C   -1.2375837   -0.0005224    5.8710424  
O   -2.0474215   -0.0015360    6.9697579  
C    0.1673580    0.0013566    6.0411963  
O    0.5673524    0.0020687    7.3615553  
C    1.0325770    0.0023412    4.9669890  
H    2.0953057    0.0030649    2.0900562  
H   -2.0989778   -0.0102372    1.7591824  
H   -2.8710934   -0.0020419    4.4995513  
H   -1.4634884   -0.0006497    7.7393593  
H    1.5290710    0.0033153    7.3880045  
H    2.1042148    0.0039609    5.1284455  
