62

C    3.1039866   -0.7092125   -7.5156731  
C    4.3101828   -0.4583542   -8.1277417  
C    4.0533151    0.4491728   -9.1977942  
C    2.6608110    0.7189687   -9.1895149  
N    2.1141631   -0.0018212   -8.1569191  
C    2.0512333    1.5770280  -10.1098077  
C    2.8621996    2.1738340  -11.0554994  
O    2.3189143    3.0207743  -11.9777501  
C    4.2536698    1.9168911  -11.0801724  
O    4.9248436    2.5863568  -12.0825131  
C    4.8556701    1.0702966  -10.1727590  
H    5.2583690   -0.8787128   -7.8392354  
H    0.9904588    1.7866904  -10.1089008  
H    3.0483597    3.3220231  -12.5349071  
H    5.8578791    2.3579317  -12.0289366  
H    5.9238521    0.8926605  -10.2164739  
H    2.8711912   -1.3378803   -6.6733300  
C   -0.1496416   -0.0015616   -4.3176961  
C    0.8738328   -0.0018845   -5.2031790  
C    0.2377942   -0.0027133   -6.5115952  
C   -1.2121173   -0.0029014   -6.2211816  
N   -1.4453512   -0.0021480   -4.9368177  
C   -2.1975659   -0.0036293   -7.2671154  
C   -1.7546864   -0.0037566   -8.5450793  
O   -2.5622322   -0.0044170   -9.6192816  
C   -0.2978792   -0.0032025   -8.8704624  
O    0.0332557   -0.0034801  -10.0560299  
C    0.6933431   -0.0025036   -7.7798645  
H    1.9299719   -0.0015054   -4.9942638  
H   -3.2505493   -0.0039578   -7.0260012  
H   -1.9581274   -0.0043089  -10.3836182  
C    3.3003544    0.0005274   -1.4738988  
C    2.5232813    0.0003494   -2.6090747  
C    1.1623199   -0.0001321   -2.1820103  
C    1.1711883    0.0000582   -0.7636141  
N    2.4852299   -0.0014920   -0.3662360  
C    0.0000000    0.0000000    0.0000000  
C   -1.2020383    0.0000519   -0.6806477  
O   -2.3759250    0.0003494    0.0157744  
C   -1.2314656   -0.0005115   -2.0955510  
O   -2.5054391   -0.0008040   -2.6250180  
C   -0.0764517   -0.0007275   -2.8495195  
H    2.8919953   -0.0005622   -3.6205304  
H    2.8036267    0.0088182    0.5858661  
H   -3.0835639    0.0000346   -0.6418817  
H   -2.4360050   -0.0011531   -3.5845921  
H    4.3715546    0.0004893   -1.3667137  
C    0.0000000    0.0000000    1.4700000  
C    1.0662921    0.0000102    2.3034270  
C    0.4961870   -0.0000064    3.6418889  
C   -0.9663858    0.0000850    3.4240247  
N   -1.2632773    0.0000084    2.1528658  
C   -1.8985362    0.0000517    4.5177257  
C   -1.3925775   -0.0004564    5.7720543  
O   -2.1456383   -0.0005410    6.8851312  
C    0.0786232   -0.0009323    6.0245000  
O    0.4683759   -0.0012588    7.1921102  
C    1.0143166   -0.0008442    4.8859032  
H    2.1107198   -0.0000632    2.0421868  
H   -2.9622183    0.0003270    4.3293377  
H   -1.5042274   -0.0009692    7.6184419  
H    2.0724152   -0.0013148    5.1109744  
