60

C   -3.2941079    0.0012875   -2.9038234  
C   -4.0470176    0.0024419   -1.7524792  
C   -5.4167001    0.0030193   -2.1506872  
C   -5.4378084    0.0018787   -3.5689535  
N   -4.1324585    0.0027951   -3.9940136  
C   -6.6248732    0.0017548   -4.3076459  
C   -7.8122590    0.0024946   -3.6017475  
O   -9.0006013    0.0020606   -4.2732058  
C   -7.8117785    0.0040117   -2.1865389  
O   -9.0742772    0.0050151   -1.6302675  
C   -6.6410880    0.0044080   -1.4571485  
H   -3.6570098    0.0039262   -0.7490426  
H   -3.8342571   -0.0082406   -4.9526250  
H   -6.6477250    0.0010321   -5.3887009  
H   -9.6941844    0.0030131   -3.6007419  
H   -8.9845805    0.0059860   -0.6723754  
H   -6.6721590    0.0057614   -0.3738613  
C    0.0000000    0.0000000    0.0000000  
C    1.0541686   -0.0001722   -0.8560393  
C    0.5103131   -0.0000453   -2.1935957  
C   -0.9576377    0.0002459   -2.0455727  
N   -1.2018463   -0.0001391   -0.6915965  
C   -1.8348318    0.0008318   -3.0810604  
C   -1.2972856    0.0009738   -4.4314602  
O   -2.0050684    0.0014267   -5.4301314  
C    0.2542612    0.0004186   -4.6117571  
O    0.7184659    0.0002259   -5.7439120  
C    1.0974545    0.0000875   -3.4189131  
H    2.0940750   -0.0005483   -0.5817985  
H   -2.1128195    0.0014912   -0.2706785  
C    2.5562205   -0.0001551   -3.6003010  
C    3.5357952   -0.0006720   -2.6598176  
C    4.7960218   -0.0006609   -3.3645618  
C    4.4679954   -0.0000619   -4.8030293  
N    3.0942327   -0.0001764   -4.8783005  
C    5.3873301    0.0005224   -5.8012916  
C    6.7937392    0.0003377   -5.4344834  
O    7.6974433    0.0007624   -6.2600859  
C    7.1641083   -0.0005467   -3.9170410  
O    8.3448903   -0.0010159   -3.5960839  
C    6.0844240   -0.0008437   -2.9331030  
H    3.3919667   -0.0012035   -1.5940190  
H    5.1255373    0.0010861   -6.8502787  
H    6.3492928   -0.0012513   -1.8845000  
H    2.5641241    0.0016992   -5.7303736  
C    1.1319247   -0.0015655    2.2709268  
C    0.7969915   -0.0034943    3.5869401  
C   -0.6453339   -0.0035710    3.6542670  
C   -1.1266833   -0.0015433    2.2596025  
N    0.0000000    0.0000000    1.4700000  
C   -2.4346130   -0.0013964    1.8976294  
C   -3.4350110   -0.0031408    2.9520183  
O   -4.6384611   -0.0030974    2.7283916  
C   -2.9478959   -0.0050506    4.4361073  
O   -3.7809380   -0.0062218    5.3323774  
C   -1.5113823   -0.0053090    4.7012123  
H    1.4821238   -0.0045407    4.4159191  
H   -2.7664565   -0.0000232    0.8686553  
H   -1.1823530   -0.0068408    5.7314848  
H    2.1104316   -0.0009391    1.8188057  
