62

C   -8.3998844    0.9861977   -2.2167635  
C   -9.7106381    0.5719335   -2.1640493  
C   -9.7147812   -0.8306228   -2.4236993  
C   -8.3663382   -1.2199124   -2.6288380  
N   -7.5942802   -0.0923311   -2.4980583  
C   -7.9940555   -2.5379980   -2.9096309  
C   -9.0013393   -3.4803190   -2.9844052  
O   -8.6935835   -4.7821765   -3.2554532  
C  -10.3526862   -3.1113208   -2.7831159  
O  -11.2381969   -4.1637696   -2.8906596  
C  -10.7207085   -1.8111361   -2.5063370  
H  -10.5594967    1.2032101   -1.9642457  
H   -6.9681347   -2.8411150   -3.0671363  
H   -9.5304032   -5.2648249   -3.2623810  
H  -12.1277821   -3.8292584   -2.7411773  
H  -11.7639525   -1.5584658   -2.3570837  
H   -7.9760425    1.9659370   -2.0773795  
C   -4.4516595    2.1220212   -0.2154637  
C   -5.6505107    1.6231922   -0.6697670  
C   -5.3526002    0.7489274   -1.7567400  
C   -3.9437154    0.7540403   -1.9208883  
N   -3.4276993    1.5994574   -0.9703020  
C   -3.2941076    0.0012878   -2.9038237  
C   -4.0810730   -0.7709245   -3.7360201  
O   -3.4983895   -1.5256626   -4.7126798  
C   -5.4884225   -0.7889632   -3.5881685  
O   -6.1319969   -1.6071811   -4.4935277  
C   -6.1299739   -0.0463964   -2.6188736  
H   -6.6205221    1.8611255   -0.2679466  
H   -2.4522687    1.7958517   -0.8363407  
H   -4.2167867   -1.9799191   -5.1718316  
H   -7.0781690   -1.5620006   -4.3252420  
H   -4.2460849    2.8103292    0.5863658  
C    0.0000000    0.0000000    0.0000000  
C    1.0541688   -0.0001723   -0.8560392  
C    0.5103136   -0.0000455   -2.1935956  
C   -0.9576373    0.0002461   -2.0455730  
N   -1.2018460   -0.0001389   -0.6915968  
C   -1.8348314    0.0008319   -3.0810607  
C   -1.2972851    0.0009739   -4.4314603  
O   -2.0050676    0.0014268   -5.4301316  
C    0.2542619    0.0004184   -4.6117572  
O    0.7184666    0.0002257   -5.7439122  
C    1.0974551    0.0000873   -3.4189129  
H    2.0940752   -0.0005484   -0.5817983  
H    2.1707276   -0.0000912   -3.5523673  
H   -2.1128194    0.0014915   -0.2706789  
C    0.0000000    0.0000000    1.4700000  
C    1.0541688    0.0001722    2.3260392  
C    0.5103138    0.0000454    3.6635956  
C   -0.9576371   -0.0002459    3.5155732  
N   -1.2018458    0.0001392    2.1615969  
C   -1.8348311   -0.0008317    4.5510609  
C   -1.2972847   -0.0009736    5.9014604  
O   -2.0050672   -0.0014265    6.9001319  
C    0.2542623   -0.0004184    6.0817573  
O    0.7184670   -0.0002256    7.2139121  
C    1.0974552   -0.0000873    4.8889129  
H    2.0940752    0.0005483    2.0517982  
H   -2.9081052   -0.0011668    4.4207061  
H    2.1707277    0.0000911    5.0223670  
H   -2.1128194   -0.0014912    1.7406791  
