62

C    7.6459001   -3.5708239   -3.1071905  
C    8.7649471   -4.3442091   -3.3123186  
C    9.1409292   -4.1784965   -4.6782526  
C    8.2066257   -3.2848140   -5.2616364  
N    7.3114481   -2.9366623   -4.2807876  
C    8.2706390   -2.8925926   -6.6021038  
C    9.2966924   -3.4117628   -7.3675153  
O    9.4062752   -3.0617661   -8.6822427  
C   10.2384026   -4.3050867   -6.8036258  
O   11.1998060   -4.7347865   -7.6949196  
C   10.1757052   -4.6926697   -5.4813655  
H    9.2498858   -4.9537783   -2.5691808  
H    7.5615615   -2.2119281   -7.0527771  
H   10.1786165   -3.5294213   -9.0258300  
H   11.7953759   -5.3338566   -7.2344672  
H   10.9111630   -5.3785709   -5.0774868  
H    7.0590087   -3.4225098   -2.2169545  
C    6.1812375   -2.0122607   -4.4510957  
C    5.2702188   -1.6303464   -3.5260198  
C    4.3856204   -0.7126512   -4.2273193  
C    4.9238573   -0.6545505   -5.6033678  
N    5.9763887   -1.4143802   -5.7405728  
C    4.3191911    0.1574940   -6.6231955  
C    3.2262696    0.8784133   -6.2838834  
O    2.5612872    1.6787216   -7.1343811  
C    2.6590324    0.8406139   -4.9036757  
O    1.6623426    1.5226358   -4.6656076  
C    3.2973506   -0.0000934   -3.8752374  
H    5.2063280   -1.9339561   -2.4950908  
H    4.7337770    0.1810798   -7.6204273  
H    1.8346683    2.0540003   -6.6049059  
C    3.3321174    0.0004714   -1.3379332  
C    2.6974186    0.0000115   -2.5332308  
C    1.2800441   -0.0002119   -2.2052838  
C    1.2395035    0.0000643   -0.7271293  
N    2.4394063    0.0005458   -0.2131034  
C    0.0000000    0.0000000    0.0000000  
C   -1.1468701    0.0000634   -0.7169542  
O   -2.3742201    0.0000072   -0.1695492  
C   -1.1388767    0.0001606   -2.2096354  
O   -2.2206229    0.0000903   -2.7970413  
C    0.1454526    0.0001815   -2.9324239  
H   -2.9844344    0.0001023   -0.9290168  
H    0.1083580    0.0003680   -4.0135594  
H    4.3940040    0.0007617   -1.1498630  
C    2.5285572    2.1210227    2.9438989  
C    1.9331703    1.6216660    4.0790748  
C    0.8903039    0.7472258    3.6520102  
C    0.8972198    0.7527806    2.2336141  
N    1.9028376    1.5986179    1.8362361  
C    0.0000000    0.0000000    1.4700000  
C   -0.9207814   -0.7726952    2.1506477  
O   -1.8198395   -1.5274828    1.4542253  
C   -0.9436862   -0.7911793    3.5655508  
O   -1.9197945   -1.6098497    4.0950179  
C   -0.0590329   -0.0485852    4.3195194  
H    2.2150357    1.8593692    5.0905303  
H    2.1533708    1.7953814    0.8841339  
H   -2.3621246   -1.9821033    2.1118817  
H   -1.8668290   -1.5649508    5.0545920  
H   -0.1007624   -0.0827977    5.4019087  
H    3.3491200    2.8096064    2.8367138  
