62

C    4.3853755   -2.6132503   -9.1373656  
C    4.8837219   -2.0515198  -10.2900046  
C    4.5602937   -0.6628533  -10.2500059  
C    3.8587525   -0.4336198   -9.0387180  
N    3.7682899   -1.6390477   -8.3880433  
C    3.3845708    0.8278798   -8.6664819  
C    3.6231988    1.8771399   -9.5326737  
O    3.1823791    3.1300537   -9.2181914  
C    4.3210030    1.6683192  -10.7460497  
O    4.4785692    2.8124785  -11.5006454  
C    4.7888452    0.4240390  -11.1140389  
H    5.4140486   -2.5781005  -11.0648974  
H    3.3317869   -1.7856515   -7.4958812  
H    3.4498144    3.7046105   -9.9473185  
H    4.9591665    2.5843496  -12.3022606  
H    5.3199239    0.2946927  -12.0498298  
H    4.4200347   -3.6320158   -8.7911377  
C    3.9370510   -0.7184256   -4.5079536  
C    4.0728530   -0.4678097   -5.8537679  
C    3.0407725    0.4489881   -6.2127829  
C    2.3004121    0.7244272   -5.0346798  
N    2.8699641   -0.0020530   -4.0185824  
C    1.2042089    1.5920522   -5.0158721  
C    0.8491098    2.1927979   -6.2080079  
O   -0.2131497    3.0490482   -6.2461266  
C    1.5752116    1.9303427   -7.3940558  
O    1.0977498    2.6047551   -8.4988369  
C    2.6565828    1.0743119   -7.4134046  
H    4.8227831   -0.8942698   -6.4977637  
H    0.6357060    1.8060551   -4.1213280  
H   -0.2873078    3.3515868   -7.1605858  
H    1.6432278    2.3720959   -9.2564162  
H    4.5160563   -1.3526089   -3.8587048  
C    3.2573670   -0.0002921   -1.5109382  
C    2.5379468   -0.0001711   -0.3591962  
C    1.1435043    0.0000330   -0.7338498  
C    1.1092608   -0.0000085   -2.2088474  
N    2.4227562    0.0001906   -2.6182610  
C   -0.0265533   -0.0002525   -2.9515663  
C   -1.3003033   -0.0002641   -2.2514979  
O   -2.3786785   -0.0004132   -2.8306425  
C   -1.2877724    0.0000310   -0.6895608  
O   -2.3539956    0.0003306   -0.0892035  
C    0.0000000    0.0000000    0.0000000  
H    2.9384091   -0.0000370    0.6389240  
H   -0.0296290   -0.0004088   -4.0327231  
H    4.3270394   -0.0004767   -1.6439445  
C    2.5528530    2.1414826    2.8079335  
C    2.0663498    1.7338582    4.0032312  
C    0.9804344    0.8229586    3.6752840  
C    0.9495562    0.7966882    2.1971295  
N    1.8690446    1.5676019    1.6831036  
C    0.0000000    0.0000000    1.4700000  
C   -0.8785127   -0.7372425    2.1869543  
O   -1.8187535   -1.5261249    1.6395491  
C   -0.8723269   -0.7321790    3.6796354  
O   -1.7010379   -1.4274584    4.2670412  
C    0.1115397    0.0933559    4.4024240  
H    2.4028853    2.0163452    4.9860947  
H   -2.2861435   -1.9184361    2.3990168  
H    0.0832434    0.0693689    5.4835595  
H    3.3664920    2.8238276    2.6198634  
