62

C    4.4474965    0.6890244   -8.4343945  
C    5.5514253   -0.1278711   -8.5149499  
C    6.0375754   -0.0401042   -9.8530661  
C    5.1829620    0.8530585  -10.5486392  
N    4.2272158    1.2758989   -9.6584868  
C    5.3641940    1.1779146  -11.8963837  
C    6.4277032    0.5906608  -12.5538473  
O    6.6508748    0.8731840  -13.8704285  
C    7.2912185   -0.3033164  -11.8771176  
O    8.3031766   -0.8053111  -12.6691319  
C    7.1128691   -0.6244616  -10.5476131  
H    5.9558324   -0.7156689   -7.7087607  
H    3.4891021    1.9246514   -9.8641298  
H    4.7162922    1.8577989  -12.4322773  
H    7.4307271    0.3656358  -14.1302184  
H    8.8400664   -1.3997246  -12.1361916  
H    7.7904962   -1.3126562  -10.0559949  
C    4.4169312   -0.7262694   -4.2519975  
C    4.7208617   -0.5096739   -5.5576727  
C    3.7394659    0.4171465   -6.0702171  
C    2.8323825    0.7249833   -4.9480648  
N    3.2973506   -0.0000934   -3.8752374  
C    1.7696619    1.5653070   -5.0267138  
C    1.5012130    2.2093743   -6.3017228  
O    0.5680989    2.9826340   -6.4739687  
C    2.4487560    1.8977358   -7.5037413  
O    2.2325065    2.4338408   -8.5822068  
C    3.5619541    0.9748829   -7.2964135  
H    5.5390513   -0.9491631   -6.0999166  
H    1.1167870    1.7775543   -4.1914796  
H    4.9165188   -1.3554571   -3.5333699  
C    3.3321174    0.0004714   -1.3379332  
C    2.6974186    0.0000115   -2.5332308  
C    1.2800441   -0.0002119   -2.2052838  
C    1.2395035    0.0000643   -0.7271293  
N    2.4394063    0.0005458   -0.2131034  
C    0.0000000    0.0000000    0.0000000  
C   -1.1468701    0.0000634   -0.7169542  
O   -2.3742201    0.0000072   -0.1695492  
C   -1.1388767    0.0001606   -2.2096354  
O   -2.2206229    0.0000903   -2.7970413  
C    0.1454526    0.0001815   -2.9324239  
H   -2.9844344    0.0001023   -0.9290168  
H    0.1083580    0.0003680   -4.0135594  
H    4.3940040    0.0007617   -1.1498630  
C    2.5311839    2.1237619    3.0120429  
C    1.9795631    1.6616747    1.8395852  
C    0.9223175    0.7739173    2.1983588  
C    0.8753926    0.7337535    3.6154372  
N    1.8668922    1.5631002    4.0777464  
C   -0.0496243   -0.0427881    4.3197917  
C   -0.9437528   -0.7922060    3.5801400  
O   -1.8685244   -1.5680278    4.2172520  
C   -0.9124520   -0.7656372    2.1655264  
O   -1.8671164   -1.5663939    1.5732860  
C    0.0000000    0.0000000    1.4700000  
H    2.3005065    1.9304404    0.8477417  
H    2.0679347    1.7444845    5.0445261  
H   -0.0904770   -0.0778569    5.3997470  
H   -2.3849669   -2.0011402    3.5251786  
H   -1.7775064   -1.4909735    0.6183591  
H    3.3468514    2.8078103    3.1724291  
