64

C   -9.0702353    3.2632273   -1.8209914  
C  -10.2125010    2.4970157   -1.8457733  
C   -9.8093778    1.1575240   -2.1247941  
C   -8.3975773    1.1676416   -2.2613390  
N   -7.9811351    2.4621167   -2.0728495  
C   -7.6564181    0.0152630   -2.5397184  
C   -8.3531257   -1.1689549   -2.6825635  
O   -7.6788477   -2.3241194   -2.9545139  
C   -9.7618153   -1.1992461   -2.5503035  
O  -10.3092509   -2.4540795   -2.7207467  
C  -10.4936612   -0.0627350   -2.2759487  
H  -11.2133043    2.8591995   -1.6838773  
H   -7.0274636    2.7747601   -2.1001378  
H   -8.3447666   -3.0214642   -3.0138948  
H  -11.2631720   -2.3866134   -2.6154556  
H  -11.5718200   -0.1168375   -2.1804254  
H   -8.9463580    4.3180454   -1.6450038  
C   -4.4484552    2.1114132   -0.3461920  
C   -5.6479912    1.6480085   -0.7825916  
C   -5.3783932    0.7523819   -1.8825939  
C   -3.9129550    0.7318187   -2.0524731  
N   -3.4082403    1.5765167   -1.0908924  
C   -3.2578655    0.0024282   -2.9908505  
C   -4.0489186   -0.8168743   -3.8939083  
O   -3.5523768   -1.5094417   -4.7725987  
C   -5.6025059   -0.8101576   -3.7322731  
O   -6.2789756   -1.4957519   -4.4869982  
C   -6.1934212    0.0167335   -2.6830241  
H   -6.6117108    1.9044755   -0.3799967  
H   -4.2368622    2.7988447    0.4566508  
H   -2.4341398    1.7725006   -0.9503004  
C    0.0000000    0.0000000    0.0000000  
C    1.0521666   -0.0011982   -0.8862343  
C    0.4917215   -0.0011996   -2.1979132  
C   -0.9187429    0.0003215   -2.0478682  
N   -1.1833171   -0.0009323   -0.7007913  
C   -1.7951703    0.0010483   -3.1372089  
C   -1.2375841    0.0005313   -4.4010422  
O   -2.0474218    0.0015510   -5.4997578  
C    0.1673576   -0.0013585   -4.5711963  
O    0.5673520   -0.0020735   -5.8915554  
C    1.0325768   -0.0023493   -3.4969892  
H    2.0953056   -0.0030808   -0.6200564  
H   -2.0989778    0.0102529   -0.2891822  
H   -1.4634888    0.0006601   -6.2693595  
H    1.5290707   -0.0033271   -5.9180047  
H    2.1042146   -0.0039770   -3.6584456  
C    1.1188642   -0.0008217    2.2703808  
C    0.0000000    0.0000000    1.4700000  
C   -1.1323862   -0.0008904    2.3373528  
C   -0.6382662   -0.0019682    3.6669281  
N    0.7324016   -0.0038477    3.5902241  
C   -1.4770914   -0.0027325    4.7854808  
C   -2.8395474   -0.0020958    4.5576857  
O   -3.7039201   -0.0024443    5.6140350  
C   -3.3517868   -0.0013946    3.2384331  
O   -4.7300496   -0.0012389    3.1773122  
C   -2.5248543   -0.0009135    2.1344818  
H    1.3576314    0.0056174    4.3757045  
H   -1.1067570   -0.0036993    5.8013813  
H   -4.5940033   -0.0021850    5.2385129  
H   -4.9934601   -0.0007286    2.2519915  
H   -2.9462578   -0.0005617    1.1360343  
H    2.1619896   -0.0009344    2.0042067  
