62

C    1.8832478   -1.9477862   -8.4618227  
C    2.8553852   -2.7794187   -8.9675929  
C    2.7463768   -2.7311283  -10.3889953  
C    1.6812703   -1.8457506  -10.6949022  
N    1.1779047   -1.3893751   -9.5020228  
C    1.2906022   -1.5571084  -12.0059528  
C    1.9880519   -2.1732433  -13.0267945  
O    1.6484278   -1.9266273  -14.3255822  
C    3.0534957   -3.0600151  -12.7416946  
O    3.6485179   -3.5937051  -13.8661802  
C    3.4392679   -3.3454412  -11.4485441  
H    3.5560972   -3.3514519   -8.3838342  
H    0.4209127   -0.7373455   -9.4030187  
H    0.4795888   -0.8833423  -12.2457437  
H    2.2515235   -2.4497239  -14.8695597  
H    4.3572136   -4.1807977  -13.5856875  
H    4.2590954   -4.0289801  -11.2610979  
C    2.1798966   -2.1221801   -5.9542194  
C    1.5460052   -1.6229249   -7.0683974  
C    0.5185215   -0.7482580   -6.6059748  
C    0.5740703   -0.7535762   -5.1886487  
N    1.5926023   -1.5994968   -4.8258419  
C   -0.2963293   -0.0005341   -4.3948471  
C   -1.2397986    0.7721842   -5.0436536  
O   -2.1143392    1.5272221   -4.3169415  
C   -1.3112052    0.7904346   -6.4569424  
O   -2.3047783    1.6091616   -6.9527679  
C   -0.4530326    0.0475825   -7.2406751  
H    1.8756083   -1.7961379   -3.8828567  
H   -2.6787918    1.9818131   -4.9556944  
H   -2.2847547    1.5640939   -7.9135863  
H   -0.5318484    0.0816199   -8.3210024  
H    3.0035538   -2.8108680   -5.8751160  
C    3.1301146   -0.0010313   -1.7028256  
C    2.5367765   -0.0002766   -0.4864669  
C    1.1089901    0.0001027   -0.7656184  
C    1.0177865   -0.0004150   -2.2415133  
N    2.1993571   -0.0011612   -2.7963824  
C   -0.2459219   -0.0002879   -2.9257116  
C   -1.3675326   -0.0000606   -2.1698520  
O   -2.6129318    0.0000865   -2.6748483  
C   -1.3083588    0.0000910   -0.6783229  
O   -2.3693264    0.0004206   -0.0541685  
C    0.0000000    0.0000000    0.0000000  
H    3.0096016   -0.0001007    0.4807518  
H   -3.1967444    0.0002093   -1.8949026  
H    4.1849275   -0.0015114   -1.9271979  
C    2.5128556    2.1077716    2.9199648  
C    1.9592212    1.6432552    4.0696553  
C    0.8915788    0.7479214    3.6910360  
C    0.8684491    0.7287414    2.2159470  
N    1.8754542    1.5738793    1.8102719  
C    0.0000000    0.0000000    1.4700000  
C   -0.9772830   -0.8200135    2.1664417  
O   -1.8021297   -1.5120829    1.5842315  
C   -0.9711318   -0.8147624    3.7284083  
O   -1.7894187   -1.5009653    4.3257297  
C    0.0140216    0.0115358    4.4216297  
H    2.2638494    1.8988021    5.0689105  
H    0.0117648    0.0094386    5.5031631  
H    3.3327358    2.7953732    2.7900019  
H    2.1123206    1.7707734    0.8551938  
