60

C    7.3890685   -0.7050419   -5.5227494  
C    8.7404677   -0.4538022   -5.5781313  
C    8.9512230    0.4543827   -6.6576594  
C    7.6811158    0.7241683   -7.2285977  
N    6.7550130    0.0027404   -6.5169157  
C    7.5088367    1.5827920   -8.3184944  
C    8.6392803    2.1801832   -8.8413686  
O    8.5281159    3.0276894   -9.9055061  
C    9.9152557    1.9232610   -8.2857641  
O   10.9420667    2.5933463   -8.9182117  
C   10.0859913    1.0761100   -7.2107244  
H    9.4831482   -0.8743349   -4.9219514  
H    6.5435443    1.7924498   -8.7583302  
H    9.4230408    3.3292840  -10.1090151  
H   11.7685358    2.3648917   -8.4819079  
H   11.0758010    0.8985048   -6.8067300  
H    6.8274708   -1.3342293   -4.8536528  
C    3.1006060    0.0006268   -3.9654947  
C    4.3994796    0.0008532   -4.3456353  
C    4.3646297    0.0008278   -5.8000368  
C    2.9251424    0.0004555   -6.1383559  
N    2.1793122    0.0004169   -5.0670359  
C    2.4634074    0.0003681   -7.4991967  
C    3.3972679    0.0010295   -8.4775822  
O    3.1090964    0.0010277   -9.7902125  
C    4.8575580    0.0017896   -8.1682052  
O    5.6513847    0.0022435   -9.1089813  
C    5.3059855    0.0018205   -6.7643397  
H    5.2733153    0.0011075   -3.7167578  
H    1.4054439   -0.0001129   -7.7174243  
H    3.9761797    0.0016090  -10.2344188  
C    3.2798085    0.0005859   -1.4499648  
C    2.5571146    0.0005569   -2.5996553  
C    1.1637437    0.0001551   -2.2210359  
C    1.1336966   -0.0000198   -0.7459471  
N    2.4483513   -0.0001427   -0.3402720  
C    0.0000000    0.0000000    0.0000000  
C   -1.2757366   -0.0000185   -0.6964416  
O   -2.3524595   -0.0000640   -0.1142313  
C   -1.2676493   -0.0000870   -2.2584084  
O   -2.3355759   -0.0004098   -2.8557296  
C    0.0181563    0.0001763   -2.9516295  
H    0.0150795    0.0003323   -4.0331630  
H    4.3498549    0.0008614   -1.3200020  
H    2.7563627    0.0012824    0.6148062  
C    0.0000000    0.0000000    1.4700000  
C    1.0662921    0.0000102    2.3034270  
C    0.4961870   -0.0000064    3.6418889  
C   -0.9663858    0.0000850    3.4240247  
N   -1.2632773    0.0000084    2.1528658  
C   -1.8985362    0.0000517    4.5177257  
C   -1.3925775   -0.0004564    5.7720543  
O   -2.1456383   -0.0005410    6.8851312  
C    0.0786232   -0.0009323    6.0245000  
O    0.4683759   -0.0012588    7.1921102  
C    1.0143166   -0.0008442    4.8859032  
H    2.1107198   -0.0000632    2.0421868  
H   -2.9622183    0.0003270    4.3293377  
H   -1.5042274   -0.0009692    7.6184419  
H    2.0724152   -0.0013148    5.1109744  
