66

C   -8.0056944   -0.6220565   -3.2627695  
C   -8.3763265    0.2091699   -2.2311873  
C   -9.7994149    0.1599127   -2.1475538  
C  -10.2455465   -0.7256100   -3.1618231  
N   -9.1311257   -1.1811372   -3.8215024  
C  -11.5971063   -1.0151262   -3.3721936  
C  -12.5150000   -0.3997333   -2.5433742  
O  -13.8475542   -0.6472183   -2.7048136  
C  -12.0894392    0.4871683   -1.5259657  
O  -13.1237843    1.0200518   -0.7846763  
C  -10.7562754    0.7734576   -1.3180329  
H   -7.7038033    0.7815603   -1.6154972  
H   -9.1346556   -1.8330524   -4.5850306  
H  -11.9436092   -1.6890070   -4.1435716  
H  -14.3055966   -0.1245316   -2.0337989  
H  -12.7506915    1.6072936   -0.1201823  
H  -10.4604562    1.4570741   -0.5308622  
C   -3.9682054    0.7216918   -2.0578207  
C   -3.2578655    0.0024282   -2.9908505  
C   -4.2079031   -0.7252728   -3.7670463  
C   -5.4928184   -0.4072582   -3.2573538  
N   -5.3110076    0.4722167   -2.2190445  
C   -6.6702479   -0.9459424   -3.7848634  
C   -6.5483633   -1.8213770   -4.8464353  
O   -7.6658888   -2.3762215   -5.3998768  
C   -5.2750889   -2.1513164   -5.3686701  
O   -5.3202344   -3.0371228   -6.4253884  
C   -4.1130836   -1.6204794   -4.8485906  
H   -6.0451197    0.8820670   -1.6703337  
H   -7.3606741   -2.9484699   -6.1158662  
H   -4.4197934   -3.2069057   -6.7186186  
H   -3.1520148   -1.8920011   -5.2694247  
H   -3.6231571    1.3918169   -1.2891636  
C    0.0000000    0.0000000    0.0000000  
C    1.0521666   -0.0011982   -0.8862343  
C    0.4917215   -0.0011996   -2.1979132  
C   -0.9187429    0.0003215   -2.0478682  
N   -1.1833171   -0.0009323   -0.7007913  
C   -1.7951703    0.0010483   -3.1372089  
C   -1.2375841    0.0005313   -4.4010422  
O   -2.0474218    0.0015510   -5.4997578  
C    0.1673576   -0.0013585   -4.5711963  
O    0.5673520   -0.0020735   -5.8915554  
C    1.0325768   -0.0023493   -3.4969892  
H    2.0953056   -0.0030808   -0.6200564  
H   -2.0989778    0.0102529   -0.2891822  
H   -1.4634888    0.0006601   -6.2693595  
H    1.5290707   -0.0033271   -5.9180047  
H    2.1042146   -0.0039770   -3.6584456  
C    0.0000000    0.0000000    1.4700000  
C    1.0521667    0.0011902    2.3562342  
C    0.4917218    0.0011957    3.6679131  
C   -0.9187428   -0.0003148    3.5178682  
N   -1.1833171    0.0009411    2.1707914  
C   -1.7951701   -0.0010350    4.6072090  
C   -1.2375837   -0.0005224    5.8710424  
O   -2.0474215   -0.0015360    6.9697579  
C    0.1673580    0.0013566    6.0411963  
O    0.5673524    0.0020687    7.3615553  
C    1.0325770    0.0023412    4.9669890  
H    2.0953057    0.0030649    2.0900562  
H   -2.0989778   -0.0102372    1.7591824  
H   -2.8710934   -0.0020419    4.4995513  
H   -1.4634884   -0.0006497    7.7393593  
H    1.5290710    0.0033153    7.3880045  
H    2.1042148    0.0039609    5.1284455  
