62

C   -1.1788604    0.6938462   -8.9030146  
C   -0.2313622   -0.1228467   -9.4754892  
C   -0.4042094   -0.0341710  -10.8885923  
C   -1.4810726    0.8593117  -11.1209281  
N   -1.9297335    1.2814606   -9.8940988  
C   -1.9300711    1.1850406  -12.4043182  
C   -1.2799456    0.5983468  -13.4726367  
O   -1.6774439    0.8817290  -14.7472751  
C   -0.2036840   -0.2959372  -13.2611330  
O    0.3395384   -0.7972944  -14.4259923  
C    0.2396210   -0.6179434  -11.9953062  
H    0.4943182   -0.7110960   -8.9403787  
H   -2.6808094    1.9302408   -9.7426064  
H   -2.7503452    1.8651728  -12.5880909  
H   -1.1000072    0.3744516  -15.3325119  
H    1.0595237   -1.3919693  -14.1945034  
H    1.0663334   -1.3063540  -11.8644775  
C    0.6885583   -0.7240830   -5.1615367  
C    0.3679852   -0.5066242   -6.4630818  
C   -0.7389724    0.4203835   -6.4747905  
C   -1.0391591    0.7273895   -5.0632572  
N   -0.1387079    0.0017019   -4.3179684  
C   -2.0220472    1.5676164   -4.6513660  
C   -2.8389205    2.2124490   -5.6659811  
O   -3.7486836    2.9856885   -5.3962918  
C   -2.5388500    1.9016971   -7.1670464  
O   -3.2201592    2.4384507   -8.0301654  
C   -1.4526760    0.9788669   -7.4871444  
H    0.8516397   -0.9456597   -7.3174468  
H   -2.2256208    1.7792484   -3.6108470  
H    1.4594120   -1.3536539   -4.7476342  
C    3.3041273    0.0001178   -1.5420428  
C    2.5845373   -0.0004780   -0.3695851  
C    1.2040007   -0.0000007   -0.7283589  
C    1.1422374    0.0006038   -2.1454372  
N    2.4348641    0.0026111   -2.6077464  
C   -0.0655179    0.0008799   -2.8497918  
C   -1.2321766    0.0002325   -2.1101402  
O   -2.4392814    0.0001148   -2.7472522  
C   -1.1911209   -0.0000007   -0.6955266  
O   -2.4371528   -0.0002320   -0.1032862  
C    0.0000000    0.0000000    0.0000000  
H    3.0031533   -0.0000660    0.6222584  
H    2.7054631   -0.0071097   -3.5745261  
H   -3.1132988   -0.0000648   -2.0551787  
H   -2.3200282   -0.0004072    0.8516409  
H    4.3686625    0.0004073   -1.7024290  
C    2.5128556    2.1077716    2.9199648  
C    1.9592212    1.6432552    4.0696553  
C    0.8915788    0.7479214    3.6910360  
C    0.8684491    0.7287414    2.2159470  
N    1.8754542    1.5738793    1.8102719  
C    0.0000000    0.0000000    1.4700000  
C   -0.9772830   -0.8200135    2.1664417  
O   -1.8021297   -1.5120829    1.5842315  
C   -0.9711318   -0.8147624    3.7284083  
O   -1.7894187   -1.5009653    4.3257297  
C    0.0140216    0.0115358    4.4216297  
H    2.2638494    1.8988021    5.0689105  
H    0.0117648    0.0094386    5.5031631  
H    3.3327358    2.7953732    2.7900019  
H    2.1123206    1.7707734    0.8551938  
