64

C   -7.0268235    1.8305750   -0.2727870  
C   -7.4767947    2.6372078    0.7466917  
C   -8.8990906    2.5307262    0.7650077  
C   -9.2629974    1.6372483   -0.2747980  
N   -8.1024927    1.2322334   -0.8861971  
C  -10.5909562    1.2961648   -0.5486154  
C  -11.5693572    1.8672129    0.2418366  
O  -12.8822453    1.5684449    0.0180628  
C  -11.2261827    2.7612236    1.2838504  
O  -12.3135525    3.2459842    1.9809712  
C   -9.9163453    3.0983732    1.5543707  
H   -6.8563161    3.2303535    1.3964447  
H   -8.0453214    0.5875158   -1.6536941  
H  -10.8748934    0.6159483   -1.3397459  
H  -13.3907772    2.0665323    0.6711858  
H  -11.9947612    3.8416414    2.6659299  
H   -9.6841038    3.7861641    2.3590356  
C   -4.5189885    2.1247807   -0.2046393  
C   -3.4217515    1.6624927   -0.8937164  
C   -3.9056841    0.7751588   -1.9002191  
C   -5.3180961    0.7354485   -1.7759557  
N   -5.6572032    1.5646458   -0.7357369  
C   -6.1291078   -0.0406017   -2.6094993  
C   -5.5029133   -0.7899850   -3.5864759  
O   -6.2471435   -1.5653363   -4.4278833  
C   -4.0948368   -0.7638645   -3.7259559  
O   -3.6222951   -1.5645230   -4.7452666  
C   -3.2941076    0.0012878   -2.9038237  
H   -2.3983557    1.9308560   -0.6946316  
H   -7.2061221   -0.0753236   -2.5198535  
H   -5.6225344   -1.9985110   -5.0241121  
H   -2.6635044   -1.4894251   -4.7714260  
H   -4.5796252    2.8086382    0.6245905  
C    0.0000000    0.0000000    0.0000000  
C    1.0541688   -0.0001723   -0.8560392  
C    0.5103136   -0.0000455   -2.1935956  
C   -0.9576373    0.0002461   -2.0455730  
N   -1.2018460   -0.0001389   -0.6915968  
C   -1.8348314    0.0008319   -3.0810607  
C   -1.2972851    0.0009739   -4.4314603  
O   -2.0050676    0.0014268   -5.4301316  
C    0.2542619    0.0004184   -4.6117572  
O    0.7184666    0.0002257   -5.7439122  
C    1.0974551    0.0000873   -3.4189129  
H    2.0940752   -0.0005484   -0.5817983  
H    2.1707276   -0.0000912   -3.5523673  
H   -2.1128194    0.0014915   -0.2706789  
C    3.3041272   -0.0001177    3.0120429  
C    2.5845372    0.0004780    1.8395852  
C    1.2040006    0.0000008    2.1983588  
C    1.1422373   -0.0006037    3.6154372  
N    2.4348639   -0.0026109    4.0777464  
C   -0.0655181   -0.0008797    4.3197917  
C   -1.2321768   -0.0002324    3.5801400  
O   -2.4392816   -0.0001146    4.2172520  
C   -1.1911209    0.0000007    2.1655264  
O   -2.4371527    0.0002320    1.5732860  
C    0.0000000    0.0000000    1.4700000  
H    3.0031534    0.0000661    0.8477417  
H    2.7054629    0.0071099    5.0445261  
H   -0.1193549   -0.0014844    5.3997470  
H   -3.1132988    0.0000648    3.5251786  
H   -2.3200282    0.0004071    0.6183591  
H    4.3686625   -0.0004071    3.1724291  
