62

C    4.7483931   -1.0487395   -4.9628833  
C    5.5833340   -1.9336180   -4.3207527  
C    6.6888548   -2.1691336   -5.1907844  
C    6.4718462   -1.3940321   -6.3587102  
N    5.2838612   -0.7275187   -6.1882155  
C    7.3648878   -1.3808727   -7.4343934  
C    8.4977827   -2.1642128   -7.3290159  
O    9.4032394   -2.1882747   -8.3500857  
C    8.7317482   -2.9447614   -6.1719419  
O    9.9039269   -3.6708046   -6.2188943  
C    7.8510398   -2.9584389   -5.1104852  
H    5.4156082   -2.3580898   -3.3457220  
H    4.8748534   -0.0920958   -6.8492236  
H    7.2051891   -0.7924174   -8.3273764  
H   10.1079552   -2.7895313   -8.0759851  
H    9.9858451   -4.1694299   -5.4001969  
H    8.0569383   -3.5664963   -4.2373594  
C    2.8434023   -0.7174912   -3.3295519  
C    3.4705478   -0.4666169   -4.5279747  
C    2.6462885    0.4502266   -5.2453271  
C    1.5204619    0.7254262   -4.4275826  
N    1.6707636   -0.0012343   -3.2725974  
C    0.4960079    1.5930242   -4.8181681  
C    0.6102992    2.1939882   -6.0566983  
O   -0.3614539    3.0502227   -6.4874790  
C    1.7258502    1.9317735   -6.8871241  
O    1.6940432    2.6063856   -8.0901332  
C    2.7367383    1.0757699   -6.5025614  
H   -0.3647271    1.8068448   -4.1996074  
H   -0.0897940    3.3529327   -7.3637399  
H    2.4824109    2.3738811   -8.5901557  
H    3.5788507    0.8942786   -7.1601222  
H    3.1390696   -1.3517850   -2.5114985  
C    1.0965514    0.0001358   -0.8010306  
C    0.0000000    0.0000000    0.0000000  
C   -1.1546565    0.0001470   -0.8669508  
C   -0.6372019    0.0003520   -2.2486278  
N    0.7342867    0.0007338   -2.1395012  
C   -1.4147744    0.0001354   -3.3608712  
C   -2.8576052   -0.0001047   -3.1854454  
O   -3.6427785   -0.0002490   -4.1244896  
C   -3.4275841   -0.0000727   -1.7311660  
O   -4.6406832    0.0000333   -1.5710049  
C   -2.4891868   -0.0001090   -0.6116739  
H   -1.0150456    0.0001617   -4.3654239  
H   -2.8919122   -0.0002919    0.3920871  
H    2.1388270    0.0000663   -0.5261650  
C    2.5528530    2.1414826    2.8079335  
C    2.0663498    1.7338582    4.0032312  
C    0.9804344    0.8229586    3.6752840  
C    0.9495562    0.7966882    2.1971295  
N    1.8690446    1.5676019    1.6831036  
C    0.0000000    0.0000000    1.4700000  
C   -0.8785127   -0.7372425    2.1869543  
O   -1.8187535   -1.5261249    1.6395491  
C   -0.8723269   -0.7321790    3.6796354  
O   -1.7010379   -1.4274584    4.2670412  
C    0.1115397    0.0933559    4.4024240  
H    2.4028853    2.0163452    4.9860947  
H   -2.2861435   -1.9184361    2.3990168  
H    0.0832434    0.0693689    5.4835595  
H    3.3664920    2.8238276    2.6198634  
