60

C    1.7359507    2.1252121   -8.1198735  
C    1.9310568    1.6270153   -9.3872334  
C    3.0565321    0.7531157   -9.3223835  
C    3.5102155    0.7577894   -7.9784808  
N    2.6874967    1.6026060   -7.2756039  
C    4.6070604    0.0052291   -7.5479313  
C    5.2575812   -0.7663357   -8.4911636  
O    6.3343644   -1.5208599   -8.1247689  
C    4.8201618   -0.7839283   -9.8369619  
O    5.5720935   -1.6015188  -10.6551830  
C    3.7383381   -0.0415510  -10.2624735  
H    1.3361276    1.8651261  -10.2523090  
H    2.7593443    1.7985883   -6.2935602  
H    6.6341595   -1.9746562   -8.9231773  
H    5.2106162   -1.5560684  -11.5456169  
H    3.4266248   -0.0750631  -11.2998686  
H    0.9941993    2.8130964   -7.7516641  
C    2.4521485    0.0014838   -3.7217479  
C    3.5087829    0.0013018   -2.8687536  
C    4.7039153    0.0022077   -3.6789965  
C    4.2537130    0.0029670   -5.0840257  
N    2.8785571    0.0020815   -5.0411852  
C    5.0840330    0.0043213   -6.1574650  
C    6.5167217    0.0048560   -5.9126433  
O    7.3462788    0.0060000   -6.8127180  
C    7.0158850    0.0038165   -4.4325618  
O    8.2198463    0.0039481   -4.2140696  
C    6.0245775    0.0026607   -3.3596402  
H    3.4569042    0.0004294   -1.7945464  
H    6.3784142    0.0021512   -2.3376213  
H    2.2773147    0.0038590   -5.8446475  
C    0.0000000    0.0000000    0.0000000  
C    1.0662924   -0.0000102   -0.8334267  
C    0.4961874    0.0000064   -2.1718888  
C   -0.9663853   -0.0000849   -1.9540250  
N   -1.2632772   -0.0000084   -0.6828660  
C   -1.8985357   -0.0000515   -3.0477261  
C   -1.3925767    0.0004566   -4.3020548  
O   -2.1456375    0.0005411   -5.4151316  
C    0.0786242    0.0009324   -4.5545000  
O    0.4683770    0.0012590   -5.7221099  
C    1.0143173    0.0008443   -3.4159029  
H    2.1107200    0.0000632   -0.5721862  
H   -2.9622180   -0.0003269   -2.8593382  
H   -1.5042262    0.0009694   -6.1484423  
C    0.0000000    0.0000000    1.4700000  
C    1.0662921    0.0000102    2.3034270  
C    0.4961870   -0.0000064    3.6418889  
C   -0.9663858    0.0000850    3.4240247  
N   -1.2632773    0.0000084    2.1528658  
C   -1.8985362    0.0000517    4.5177257  
C   -1.3925775   -0.0004564    5.7720543  
O   -2.1456383   -0.0005410    6.8851312  
C    0.0786232   -0.0009323    6.0245000  
O    0.4683759   -0.0012588    7.1921102  
C    1.0143166   -0.0008442    4.8859032  
H    2.1107198   -0.0000632    2.0421868  
H   -2.9622183    0.0003270    4.3293377  
H   -1.5042274   -0.0009692    7.6184419  
H    2.0724152   -0.0013148    5.1109744  
