64

C   -0.5931375   -2.6044741   -9.7285289  
C   -0.5119550   -2.0410492  -10.9808981  
C   -0.8029298   -0.6525621  -10.8324500  
C   -1.0556379   -0.4251790   -9.4553654  
N   -0.9218163   -1.6314883   -8.8138614  
C   -1.3767052    0.8356502   -8.9434915  
C   -1.4435908    1.8861301   -9.8380277  
O   -1.7526908    3.1384616   -9.3917802  
C   -1.1951032    1.6791611  -11.2157934  
O   -1.3007349    2.8243632  -11.9778277  
C   -0.8785741    0.4355433  -11.7215104  
H   -0.2735466   -2.5664142  -11.8898237  
H   -1.0324421   -1.7794234   -7.8270190  
H   -1.7463345    3.7140715  -10.1676010  
H   -1.1181285    2.5974653  -12.8947651  
H   -0.6936052    0.3076223  -12.7816521  
H   -0.4439970   -3.6236760   -9.4155707  
C    0.5436212   -0.7158536   -5.2159133  
C    0.2183625   -0.4634326   -6.5285279  
C   -0.8742712    0.4534301   -6.5178236  
C   -1.1747021    0.7270468   -5.1588525  
N   -0.2963293   -0.0005341   -4.3948471  
C   -2.2005010    1.5942198   -4.7708634  
C   -2.9362258    2.1963789   -5.7730069  
O   -3.9492321    3.0522648   -5.4500647  
C   -2.6518952    1.9357510   -7.1346407  
O   -3.4734197    2.6114157   -8.0132297  
C   -1.6402436    1.0801671   -7.5181290  
H    0.7076327   -0.8887619   -7.3880062  
H   -2.4345909    1.8068364   -3.7368431  
H   -4.3269456    3.3559650   -6.2857461  
H   -3.2148938    2.3799551   -8.9105556  
H    1.3073801   -1.3506562   -4.8003930  
C    3.1301146   -0.0010313   -1.7028256  
C    2.5367765   -0.0002766   -0.4864669  
C    1.1089901    0.0001027   -0.7656184  
C    1.0177865   -0.0004150   -2.2415133  
N    2.1993571   -0.0011612   -2.7963824  
C   -0.2459219   -0.0002879   -2.9257116  
C   -1.3675326   -0.0000606   -2.1698520  
O   -2.6129318    0.0000865   -2.6748483  
C   -1.3083588    0.0000910   -0.6783229  
O   -2.3693264    0.0004206   -0.0541685  
C    0.0000000    0.0000000    0.0000000  
H    3.0096016   -0.0001007    0.4807518  
H   -3.1967444    0.0002093   -1.8949026  
H    4.1849275   -0.0015114   -1.9271979  
C    2.5285572    2.1210227    2.9438989  
C    1.9331703    1.6216660    4.0790748  
C    0.8903039    0.7472258    3.6520102  
C    0.8972198    0.7527806    2.2336141  
N    1.9028376    1.5986179    1.8362361  
C    0.0000000    0.0000000    1.4700000  
C   -0.9207814   -0.7726952    2.1506477  
O   -1.8198395   -1.5274828    1.4542253  
C   -0.9436862   -0.7911793    3.5655508  
O   -1.9197945   -1.6098497    4.0950179  
C   -0.0590329   -0.0485852    4.3195194  
H    2.2150357    1.8593692    5.0905303  
H    2.1533708    1.7953814    0.8841339  
H   -2.3621246   -1.9821033    2.1118817  
H   -1.8668290   -1.5649508    5.0545920  
H   -0.1007624   -0.0827977    5.4019087  
H    3.3491200    2.8096064    2.8367138  
