60

C    9.8923007    0.7200250   -0.4016059  
C    9.2819200    0.0021532    0.6006729  
C   10.3067608   -0.7254663    1.2751147  
C   11.5322090   -0.4088389    0.6348409  
N   11.2444299    0.4697663   -0.3799761  
C   12.7575939   -0.9478396    1.0382024  
C   12.7457182   -1.8221700    2.1075867  
O   13.9141942   -2.3772642    2.5429574  
C   11.5331389   -2.1507182    2.7591426  
O   11.6868886   -3.0355418    3.8064212  
C   10.3238617   -1.6195687    2.3615828  
H   11.9180494    0.8785766   -1.0021431  
H   13.6950316   -0.7106516    0.5543072  
H   13.6843846   -2.9486118    3.2872785  
H   10.8215339   -3.2044140    4.1914492  
H    9.4113509   -1.8900148    2.8799087  
H    9.4699468    1.3896530   -1.1311084  
C    5.7595788    0.0007157   -2.0216249  
C    4.7795901    0.0008674   -1.0815733  
C    5.4318897    0.0011976    0.2065809  
C    6.8826349    0.0012556   -0.0619866  
N    7.0143612    0.0005548   -1.4314891  
C    7.8422292    0.0019359    0.8976400  
C    7.4178692    0.0024333    2.2877672  
O    8.2055926    0.0029965    3.2246726  
C    5.8864735    0.0021297    2.5953924  
O    5.5172086    0.0022369    3.7619706  
C    4.9477888    0.0016668    1.4761415  
H    3.8891764    0.0016642    1.6976445  
H    5.6706931    0.0004912   -3.0958635  
H    7.8875232    0.0019717   -1.9260937  
C    3.3321168    0.0004716   -1.3379341  
C    2.6974177    0.0000118   -2.5332316  
C    1.2800432   -0.0002116   -2.2052842  
C    1.2395033    0.0000644   -0.7271298  
N    2.4394059    0.0005460   -0.2131041  
C    0.0000000    0.0000000    0.0000000  
C   -1.1468704    0.0000635   -0.7169542  
O   -2.3742206    0.0000074   -0.1695488  
C   -1.1388774    0.0001608   -2.2096352  
O   -2.2206238    0.0000906   -2.7970409  
C    0.1454514    0.0001818   -2.9324241  
H    3.1367978   -0.0000649   -3.5160956  
H   -2.9844350    0.0001027   -0.9290164  
H    0.1083567    0.0003684   -4.0135594  
C    2.4951002    2.0940188    2.9809380  
C    1.9440701    1.6314916    1.8291961  
C    0.8759964    0.7350050    2.2038498  
C    0.8497377    0.7130254    3.6788474  
N    1.8560616    1.5571714    4.0882609  
C   -0.0205033   -0.0168748    4.4215661  
C   -0.9962600   -0.8356168    3.7214979  
O   -1.8224391   -1.5286685    4.3006425  
C   -0.9864710   -0.8277881    2.1595606  
O   -1.8030528   -1.5133726    1.5592035  
C    0.0000000    0.0000000    1.4700000  
H    2.2509283    1.8888011    0.8310761  
H   -0.0229599   -0.0187323    5.5027230  
H    3.3143982    2.7817323    3.1139444  
H    2.0889452    1.7545833    5.0442112  
