62

C    7.0012384   -2.9390989   -4.6766398  
C    7.4926006   -3.6369836   -3.5977572  
C    8.6127797   -4.3877516   -4.0626731  
C    8.7584158   -4.1051925   -5.4450182  
N    7.7627094   -3.2237321   -5.7859164  
C    9.7652052   -4.6736516   -6.2311583  
C   10.6411131   -5.5429562   -5.6104573  
O   11.6430235   -6.1259168   -6.3311170  
C   10.5118606   -5.8377146   -4.2323328  
O   11.4606135   -6.7218320   -3.7616474  
C    9.5187136   -5.2774922   -3.4562309  
H    7.0921676   -3.6093024   -2.5988175  
H    7.6199306   -2.8348468   -6.7004453  
H    9.8814799   -4.4624994   -7.2852452  
H   12.1308307   -6.6881194   -5.7152929  
H   11.3023971   -6.8669442   -2.8238230  
H    9.4445518   -5.5223853   -2.4031379  
C    5.8620742   -2.0144359   -4.7672089  
C    5.0189108   -1.6315682   -3.7802605  
C    4.0871662   -0.7140654   -4.4178657  
C    4.5266955   -0.6571076   -5.8285938  
N    5.5666613   -1.4173876   -6.0393882  
C    3.8516110    0.1544275   -6.8036620  
C    2.7856471    0.8759519   -6.3883810  
O    2.0623763    1.6758896   -7.1902661  
C    2.3174901    0.8393081   -4.9714660  
O    1.3403412    1.5218320   -4.6639569  
C    3.0267438   -0.0008951   -3.9901699  
H    5.0280462   -1.9344358   -2.7471761  
H    4.1945960    0.1771766   -7.8277483  
H    1.3751545    2.0517830   -6.6109711  
C    3.3003547    0.0005277   -1.4738986  
C    2.5232816    0.0003497   -2.6090746  
C    1.1623203   -0.0001319   -2.1820102  
C    1.1711884    0.0000584   -0.7636141  
N    2.4852301   -0.0014919   -0.3662359  
C    0.0000000    0.0000000    0.0000000  
C   -1.2020383    0.0000520   -0.6806479  
O   -2.3759248    0.0003493    0.0157745  
C   -1.2314655   -0.0005115   -2.0955511  
O   -2.5054388   -0.0008040   -2.6250184  
C   -0.0764513   -0.0007274   -2.8495195  
H    2.8036266    0.0088183    0.5858662  
H   -3.0835639    0.0000346   -0.6418822  
H   -2.4360043   -0.0011529   -3.5845924  
H   -0.1304091   -0.0013423   -3.9319089  
H    4.3715553    0.0004897   -1.3667133  
C    0.8175213    0.6860729    2.3021913  
C    0.0000000    0.0000000    1.4700000  
C   -0.8887526   -0.7456559    2.3478473  
C   -0.4549825   -0.3816753    3.7138435  
N    0.5448156    0.4573574    3.6934124  
C   -1.0945674   -0.9182058    4.8835240  
C   -2.1210866   -1.7789155    4.6970523  
O   -2.8083856   -2.3554314    5.6976972  
C   -2.5824069   -2.1655116    3.3310774  
O   -3.5227682   -2.9541547    3.2362962  
C   -1.9100805   -1.6015804    2.1470656  
H   -0.7567140   -0.6349833    5.8697035  
H   -3.4728268   -2.9124471    5.2533954  
H   -2.2742832   -1.9066565    1.1752040  
H    1.6189533    1.3585343    2.0405121  
