60

C    7.3890685   -0.7050419   -5.5227494  
C    8.7404677   -0.4538022   -5.5781313  
C    8.9512230    0.4543827   -6.6576594  
C    7.6811158    0.7241683   -7.2285977  
N    6.7550130    0.0027404   -6.5169157  
C    7.5088367    1.5827920   -8.3184944  
C    8.6392803    2.1801832   -8.8413686  
O    8.5281159    3.0276894   -9.9055061  
C    9.9152557    1.9232610   -8.2857641  
O   10.9420667    2.5933463   -8.9182117  
C   10.0859913    1.0761100   -7.2107244  
H    9.4831482   -0.8743349   -4.9219514  
H    6.5435443    1.7924498   -8.7583302  
H    9.4230408    3.3292840  -10.1090151  
H   11.7685358    2.3648917   -8.4819079  
H   11.0758010    0.8985048   -6.8067300  
H    6.8274708   -1.3342293   -4.8536528  
C    3.1006060    0.0006268   -3.9654947  
C    4.3994796    0.0008532   -4.3456353  
C    4.3646297    0.0008278   -5.8000368  
C    2.9251424    0.0004555   -6.1383559  
N    2.1793122    0.0004169   -5.0670359  
C    2.4634074    0.0003681   -7.4991967  
C    3.3972679    0.0010295   -8.4775822  
O    3.1090964    0.0010277   -9.7902125  
C    4.8575580    0.0017896   -8.1682052  
O    5.6513847    0.0022435   -9.1089813  
C    5.3059855    0.0018205   -6.7643397  
H    5.2733153    0.0011075   -3.7167578  
H    1.4054439   -0.0001129   -7.7174243  
H    3.9761797    0.0016090  -10.2344188  
C    3.2798085    0.0005859   -1.4499648  
C    2.5571146    0.0005569   -2.5996553  
C    1.1637437    0.0001551   -2.2210359  
C    1.1336966   -0.0000198   -0.7459471  
N    2.4483513   -0.0001427   -0.3402720  
C    0.0000000    0.0000000    0.0000000  
C   -1.2757366   -0.0000185   -0.6964416  
O   -2.3524595   -0.0000640   -0.1142313  
C   -1.2676493   -0.0000870   -2.2584084  
O   -2.3355759   -0.0004098   -2.8557296  
C    0.0181563    0.0001763   -2.9516295  
H    0.0150795    0.0003323   -4.0331630  
H    4.3498549    0.0008614   -1.3200020  
H    2.7563627    0.0012824    0.6148062  
C    0.0000000    0.0000000    1.4700000  
C    1.0541688    0.0001722    2.3260392  
C    0.5103138    0.0000454    3.6635956  
C   -0.9576371   -0.0002459    3.5155732  
N   -1.2018458    0.0001392    2.1615969  
C   -1.8348311   -0.0008317    4.5510609  
C   -1.2972847   -0.0009736    5.9014604  
O   -2.0050672   -0.0014265    6.9001319  
C    0.2542623   -0.0004184    6.0817573  
O    0.7184670   -0.0002256    7.2139121  
C    1.0974552   -0.0000873    4.8889129  
H    2.0940752    0.0005483    2.0517982  
H   -2.9081052   -0.0011668    4.4207061  
H    2.1707277    0.0000911    5.0223670  
H   -2.1128194   -0.0014912    1.7406791  
