60

C    9.0494870    0.0024126   -3.8726011  
C    9.6381213    0.0029821   -5.1159740  
C   11.0493506    0.0038834   -4.9085340  
C   11.2639333    0.0035339   -3.5064355  
N   10.0288548    0.0045897   -2.9071051  
C   12.5407502    0.0039098   -2.9367623  
C   13.6206196    0.0043452   -3.7981922  
O   14.8895201    0.0043736   -3.2952980  
C   13.4268875    0.0050742   -5.2000783  
O   14.6015986    0.0058620   -5.9235402  
C   12.1675624    0.0049771   -5.7627730  
H    9.1147429    0.0038786   -6.0567542  
H    9.8643516   -0.0059345   -1.9167472  
H   12.7110117    0.0037907   -1.8689546  
H   15.4847775    0.0050035   -4.0561749  
H   14.3819366    0.0062930   -6.8602107  
H   12.0504136    0.0057298   -6.8401558  
C    6.5739142    0.0018719   -4.3537915  
C    7.6280828    0.0019468   -3.4977523  
C    7.0842285    0.0017735   -2.1601955  
C    5.6162780    0.0015610   -2.3082178  
N    5.3720684    0.0020314   -3.6621941  
C    4.7390840    0.0009613   -1.2727298  
C    5.2766310    0.0007200    0.0776697  
O    4.5688485    0.0002470    1.0763412  
C    6.8281783    0.0011905    0.2579661  
O    7.2923836    0.0012994    1.3901206  
C    7.6713704    0.0015457   -0.9348786  
H    8.7446430    0.0016651   -0.8014249  
H    6.5739141    0.0019305   -5.4317008  
H    4.4610946    0.0004679   -4.0831113  
C    3.2798077    0.0005856   -1.4499661  
C    2.5571132    0.0005565   -2.5996564  
C    1.1637425    0.0001547   -2.2210366  
C    1.1336959   -0.0000200   -0.7459475  
N    2.4483509   -0.0001429   -0.3402730  
C    0.0000000    0.0000000    0.0000000  
C   -1.2757370   -0.0000187   -0.6964411  
O   -2.3524597   -0.0000640   -0.1142306  
C   -1.2676502   -0.0000874   -2.2584078  
O   -2.3355774   -0.0004102   -2.8557287  
C    0.0181551    0.0001758   -2.9516297  
H    2.9547342    0.0006074   -3.5989118  
H    0.0150776    0.0003317   -4.0331632  
H    2.7563626    0.0012823    0.6148051  
C    2.5528530    2.1414826    2.8079335  
C    2.0663498    1.7338582    4.0032312  
C    0.9804344    0.8229586    3.6752840  
C    0.9495562    0.7966882    2.1971295  
N    1.8690446    1.5676019    1.6831036  
C    0.0000000    0.0000000    1.4700000  
C   -0.8785127   -0.7372425    2.1869543  
O   -1.8187535   -1.5261249    1.6395491  
C   -0.8723269   -0.7321790    3.6796354  
O   -1.7010379   -1.4274584    4.2670412  
C    0.1115397    0.0933559    4.4024240  
H    2.4028853    2.0163452    4.9860947  
H   -2.2861435   -1.9184361    2.3990168  
H    0.0832434    0.0693689    5.4835595  
H    3.3664920    2.8238276    2.6198634  
