62

C   -8.4593962    1.0836942   -2.1048491  
C   -7.6862934   -0.0167344   -2.3943933  
C   -8.5692694   -1.1331229   -2.4872941  
C   -9.8798571   -0.6486427   -2.2432389  
N   -9.7770619    0.7007757   -2.0127605  
C  -11.0066280   -1.4763056   -2.2556303  
C  -10.8067595   -2.8174269   -2.5194959  
O  -11.8723034   -3.6700850   -2.5440841  
C   -9.5067260   -3.3198286   -2.7651044  
O   -9.4726109   -4.6768317   -3.0115206  
C   -8.3946527   -2.5039458   -2.7527706  
H  -10.5460822    1.3169589   -1.8206482  
H  -12.0081423   -1.1132511   -2.0702637  
H  -11.5166000   -4.5459380   -2.7431342  
H   -8.5589252   -4.9348096   -3.1671802  
H   -7.4113794   -2.9174173   -2.9443280  
H   -8.1749790    2.1111700   -1.9553206  
C   -4.4924717    2.0950385   -0.2442177  
C   -3.4157280    1.6323169   -0.9302108  
C   -3.9167334    0.7362617   -1.9455502  
C   -5.3841445    0.7147473   -1.7937831  
N   -5.6689495    1.5587231   -0.7452222  
C   -6.2266195   -0.0146657   -2.5683130  
C   -5.6495861   -0.8333367   -3.6215676  
O   -6.3243554   -1.5259649   -4.3720696  
C   -4.0978604   -0.8259954   -3.8001700  
O   -3.6005729   -1.5115249   -4.6833547  
C   -3.2941076    0.0012878   -2.9038237  
H   -2.3878033    1.8892264   -0.7458682  
H   -4.5254896    2.7825514    0.5853157  
H   -6.5897791    1.7563628   -0.3987286  
C    0.0000000    0.0000000    0.0000000  
C    1.0541688   -0.0001723   -0.8560392  
C    0.5103136   -0.0000455   -2.1935956  
C   -0.9576373    0.0002461   -2.0455730  
N   -1.2018460   -0.0001389   -0.6915968  
C   -1.8348314    0.0008319   -3.0810607  
C   -1.2972851    0.0009739   -4.4314603  
O   -2.0050676    0.0014268   -5.4301316  
C    0.2542619    0.0004184   -4.6117572  
O    0.7184666    0.0002257   -5.7439122  
C    1.0974551    0.0000873   -3.4189129  
H    2.0940752   -0.0005484   -0.5817983  
H    2.1707276   -0.0000912   -3.5523673  
H   -2.1128194    0.0014915   -0.2706789  
C    3.3003543   -0.0005276    2.9438989  
C    2.5232812   -0.0003497    4.0790748  
C    1.1623199    0.0001319    3.6520102  
C    1.1711883   -0.0000583    2.2336141  
N    2.4852299    0.0014920    1.8362361  
C    0.0000000    0.0000000    1.4700000  
C   -1.2020384   -0.0000520    2.1506477  
O   -2.3759250   -0.0003494    1.4542253  
C   -1.2314658    0.0005113    3.5655508  
O   -2.5054393    0.0008037    4.0950179  
C   -0.0764518    0.0007272    4.3195194  
H    2.8919952    0.0005619    5.0905303  
H    2.8036267   -0.0088181    0.8841339  
H   -3.0835639   -0.0000348    2.1118817  
H   -2.4360050    0.0011527    5.0545920  
H   -0.1304098    0.0013421    5.4019087  
H    4.3715549   -0.0004895    2.8367138  
