64

C   -3.9681781    0.7212692   -2.0574928  
C   -3.2578657    0.0024038   -2.9908501  
C   -4.2079312   -0.7249070   -3.7673780  
C   -5.4928337   -0.4070758   -3.2575406  
N   -5.3109899    0.4719187   -2.2188306  
C   -6.6702840   -0.9454748   -3.7852959  
C   -6.5484325   -1.8204302   -4.8472676  
O   -7.6659791   -2.3749797   -5.4009617  
C   -5.2751705   -2.1501798   -5.3696517  
O   -5.3203493   -3.0355026   -6.4267734  
C   -4.1131455   -1.6196243   -4.8493302  
H   -6.0450863    0.8815467   -1.6699334  
H   -7.6525968   -0.7073695   -3.4011482  
H   -7.3607867   -2.9469131   -6.1172116  
H   -4.4199147   -3.2051863   -6.7200807  
H   -3.1520870   -1.8909908   -5.2702876  
H   -3.6231050    1.3910304   -1.2885303  
C    0.0000000    0.0000000    0.0000000  
C    1.0521666   -0.0011902   -0.8862342  
C    0.4917215   -0.0011958   -2.1979130  
C   -0.9187431    0.0003147   -2.0478680  
N   -1.1833172   -0.0009412   -0.7007911  
C   -1.7951703    0.0010349   -3.1372087  
C   -1.2375842    0.0005222   -4.4010418  
O   -2.0474221    0.0015357   -5.4997576  
C    0.1673575   -0.0013569   -4.5711960  
O    0.5673518   -0.0020691   -5.8915554  
C    1.0325767   -0.0023415   -3.4969891  
H    2.0953058   -0.0030650   -0.6200564  
H   -2.0989777    0.0102372   -0.2891820  
H   -1.4634890    0.0006494   -6.2693593  
H    1.5290704   -0.0033156   -5.9180047  
C    4.5241608   -2.0197580   -1.5987494  
C    3.2542960   -1.6359934   -1.8666080  
C    3.3687699   -0.7184087   -2.9897436  
C    4.8178193   -0.6623899   -3.2790562  
N    5.5001549   -1.4232467   -2.4669573  
C    5.3513654    0.1489347   -4.3383802  
C    4.4770185    0.8711551   -5.0754351  
O    4.8354373    1.6709947   -6.0941762  
C    3.0088489    0.8354664   -4.8082940  
O    2.2716113    1.5185898   -5.5189582  
C    2.4861699   -0.0045385   -3.7159923  
H    2.3514045   -1.9383218   -1.3641537  
H    6.4147066    0.1709915   -4.5274016  
H    3.9981318    2.0475007   -6.4202367  
H    4.8653671   -2.6984432   -0.8332837  
C    3.3041272   -0.0001177    3.0120429  
C    2.5845372    0.0004780    1.8395852  
C    1.2040006    0.0000008    2.1983588  
C    1.1422373   -0.0006037    3.6154372  
N    2.4348639   -0.0026109    4.0777464  
C   -0.0655181   -0.0008797    4.3197917  
C   -1.2321768   -0.0002324    3.5801400  
O   -2.4392816   -0.0001146    4.2172520  
C   -1.1911209    0.0000007    2.1655264  
O   -2.4371527    0.0002320    1.5732860  
C    0.0000000    0.0000000    1.4700000  
H    3.0031534    0.0000661    0.8477417  
H    2.7054629    0.0071099    5.0445261  
H   -0.1193549   -0.0014844    5.3997470  
H   -3.1132988    0.0000648    3.5251786  
H   -2.3200282    0.0004071    0.6183591  
H    4.3686625   -0.0004071    3.1724291  
