64

C   -1.6631884    0.0132351   -3.2649299  
C   -3.0377500    0.0531543   -3.3030573  
C   -3.4163511    0.0513446   -4.6782877  
C   -2.2200871    0.0088650   -5.4392565  
N   -1.1743081   -0.0114765   -4.5501278  
C   -2.2131798   -0.0048390   -6.8373100  
C   -3.4361816    0.0245745   -7.4788534  
O   -3.4871877    0.0125355   -8.8427692  
C   -4.6406396    0.0674804   -6.7370601  
O   -5.7756116    0.0932887   -7.5209695  
C   -4.6481996    0.0812952   -5.3578289  
H   -3.6875895    0.0813502   -2.4452074  
H   -0.2023312   -0.0525611   -4.7982288  
H   -4.4230066    0.0378454   -9.0812401  
H   -6.5440340    0.1216697   -6.9427607  
H   -5.5866322    0.1145426   -4.8167951  
C   -1.1241732    0.0218656   -0.7919004  
C   -0.7477726   -0.0022700   -2.1148544  
C    0.6778007   -0.0426689   -2.1414702  
C    1.1194454   -0.0415911   -0.7935547  
N    0.0000000    0.0000000    0.0000000  
C    2.4719083   -0.0764335   -0.4408242  
C    3.3953471   -0.1133377   -1.4675068  
O    4.7290384   -0.1486647   -1.1793476  
C    2.9743095   -0.1146623   -2.8186328  
O    4.0139149   -0.1532922   -3.7247631  
C    1.6402470   -0.0800283   -3.1673483  
H    2.8150026   -0.0756715    0.5845959  
H    5.1911421   -0.1702262   -2.0274391  
H    3.6436362   -0.1515186   -4.6127351  
H    1.3479693   -0.0818092   -4.2109238  
H   -2.1055512    0.0543928   -0.3505404  
C   -0.9783670   -0.0485968   -7.6336911  
C    0.3360948   -0.0842240   -7.2294770  
C    1.1342735   -0.1189828   -8.4111297  
C    0.2441049   -0.1022061   -9.5153234  
N   -1.0308310   -0.0613368   -9.0078943  
C    0.6843438   -0.1272016  -10.8421068  
C    2.0480531   -0.1696044  -11.0581510  
O    2.5322529   -0.1950956  -12.3340486  
C    2.9521105   -0.1873057   -9.9694891  
O    4.2779149   -0.2303837  -10.3486069  
C    2.5185041   -0.1629391   -8.6603221  
H    0.6776084   -0.0861622   -6.2085181  
H   -1.8723547   -0.0308997   -9.5546057  
H    0.0110165   -0.1147517  -11.6880848  
H    3.4950673   -0.2233618  -12.2601924  
H    4.8211441   -0.2397814   -9.5546186  
H    3.2346827   -0.1775702   -7.8470865  
C    0.0000000    0.0000000    1.4700000  
C    1.0541688    0.0001722    2.3260392  
C    0.5103138    0.0000454    3.6635956  
C   -0.9576371   -0.0002459    3.5155732  
N   -1.2018458    0.0001392    2.1615969  
C   -1.8348311   -0.0008317    4.5510609  
C   -1.2972847   -0.0009736    5.9014604  
O   -2.0050672   -0.0014265    6.9001319  
C    0.2542623   -0.0004184    6.0817573  
O    0.7184670   -0.0002256    7.2139121  
C    1.0974552   -0.0000873    4.8889129  
H    2.0940752    0.0005483    2.0517982  
H   -2.9081052   -0.0011668    4.4207061  
H    2.1707277    0.0000911    5.0223670  
H   -2.1128194   -0.0014912    1.7406791  
