62

C    9.8231487   -0.6981328   -2.5164354  
C   11.1737376   -0.4456035   -2.5842867  
C   11.3733974    0.4645327   -3.6642811  
C   10.0976685    0.7341245   -4.2226384  
N    9.1790244    0.0107119   -3.5033455  
C    9.9142560    1.5943767   -5.3094299  
C   11.0391409    2.1936255   -5.8420762  
O   10.9170948    3.0427724   -6.9037099  
C   12.3205791    1.9369273   -5.2990856  
O   13.3407281    2.6089568   -5.9401919  
C   12.5022973    1.0881708   -4.2271173  
H   11.9230083   -0.8665498   -1.9359105  
H    8.9446309    1.8038969   -5.7396971  
H   11.8097750    3.3454934   -7.1152466  
H   14.1715199    2.3805226   -5.5121652  
H   13.4960699    0.9107833   -3.8328704  
H    9.2685067   -1.3289120   -1.8430502  
C    5.7183463    0.0006305   -0.7610766  
C    6.9697737    0.0034050   -1.2883305  
C    6.8214692    0.0056190   -2.7245883  
C    5.3706567    0.0039237   -2.9927890  
N    4.7577216    0.0005129   -1.7610467  
C    4.8178656    0.0056010   -4.2321933  
C    5.7114461    0.0090985   -5.3785080  
O    5.3110227    0.0107630   -6.5352100  
C    7.2515438    0.0106914   -5.1179285  
O    8.0137027    0.0133273   -6.0751993  
C    7.7277051    0.0089107   -3.7369435  
H    7.8915736    0.0036677   -0.7343463  
H    3.7509358    0.0044388   -4.4070369  
H    5.4170512   -0.0015549    0.2738659  
C    3.3041270    0.0001177   -1.5420435  
C    2.5845370   -0.0004780   -0.3695856  
C    1.2040004   -0.0000007   -0.7283590  
C    1.1422370    0.0006038   -2.1454373  
N    2.4348634    0.0026110   -2.6077469  
C   -0.0655187    0.0008799   -2.8497918  
C   -1.2321769    0.0002326   -2.1101398  
O   -2.4392822    0.0001149   -2.7472517  
C   -1.1911211   -0.0000007   -0.6955263  
O   -2.4371526   -0.0002319   -0.1032858  
C    0.0000000    0.0000000    0.0000000  
H    3.0031534   -0.0000661    0.6222578  
H    2.7054623   -0.0071098   -3.5745266  
H   -0.1193555    0.0014846   -3.9297472  
H   -3.1132992   -0.0000646   -2.0551783  
H   -2.3200279   -0.0004070    0.8516411  
C    0.8400945    0.7047457    2.2710304  
C    0.0000000    0.0000000    1.4700000  
C   -0.8844236   -0.7423113    2.3369512  
C   -0.4878984   -0.4098547    3.7186280  
N    0.5629682    0.4714286    3.6095011  
C   -1.0836927   -0.9095027    4.8308716  
C   -2.1891196   -1.8367527    4.6554461  
O   -2.7906899   -2.3413415    5.5944904  
C   -2.6257283   -2.2031529    3.2011665  
O   -3.5549479   -2.9829990    3.0410059  
C   -1.9068976   -1.5999348    2.0816745  
H   -0.7774656   -0.6525820    5.8354244  
H   -2.2155208   -1.8586617    1.0779135  
H    1.6384792    1.3747609    1.9961646  
H    1.0518368    0.8833920    4.3830260  
