62

C   -3.6689293    0.7189088   -8.1669882  
C   -2.6509565    0.0011012   -8.7508984  
C   -3.2237289   -0.7266427   -9.8357576  
C   -4.6060745   -0.4101539   -9.8654669  
N   -4.8431689    0.4684921   -8.8376612  
C   -5.4852384   -0.9493005  -10.8094903  
C   -4.9592942   -1.8236372  -11.7406712  
O   -5.7731680   -2.3788708  -12.6853076  
C   -3.5827868   -2.1520484  -11.7270484  
O   -3.2126124   -3.0368971  -12.7186919  
C   -2.7149377   -1.6207549  -10.7958715  
H   -5.7333017    0.8772284   -8.6172548  
H   -6.5398552   -0.7122184  -10.8373859  
H   -5.2129922   -2.9501968  -13.2266522  
H   -2.2688132   -3.2056712  -12.6389229  
H   -1.6655621   -1.8910983  -10.8101567  
H   -3.6505690    1.3885913   -7.3242861  
C   -0.8287671    0.0000935   -4.7555305  
C    0.4829789    0.0003528   -5.1068098  
C    0.5323568    0.0005977   -6.5498617  
C   -0.8681897    0.0004883   -7.0138230  
N   -1.6437154   -0.0002181   -5.8774035  
C   -1.2464066    0.0010497   -8.3171476  
C   -0.2045436    0.0015868   -9.3305861  
O   -0.4431247    0.0020513  -10.5311609  
C    1.2854921    0.0014598   -8.8619719  
O    2.1713296    0.0016018   -9.7060996  
C    1.5684483    0.0011143   -7.4288675  
H    1.3204182    0.0001882   -4.4320442  
H    2.6027354    0.0012339   -7.1126813  
H   -2.6471544    0.0011004   -5.8649186  
C    1.0672566   -0.0000698   -0.8321912  
C    0.0000000    0.0000000    0.0000000  
C   -1.1601226   -0.0000736   -0.8778472  
C   -0.5938732   -0.0000770   -2.2438435  
N    0.7113365   -0.0001555   -2.2234123  
C   -1.4286989   -0.0001880   -3.4135239  
C   -2.7683117   -0.0006800   -3.2270522  
O   -3.6653907   -0.0008306   -4.2276967  
C   -3.3702026   -0.0010611   -1.8610771  
O   -4.5974909   -0.0013781   -1.7662957  
C   -2.4926826   -0.0008944   -0.6770655  
H   -4.5324249   -0.0012263   -3.7833950  
H   -2.9677773   -0.0012975    0.2947963  
H    2.1134390   -0.0000546   -0.5705121  
C    2.5285572    2.1210227    2.9438989  
C    1.9331703    1.6216660    4.0790748  
C    0.8903039    0.7472258    3.6520102  
C    0.8972198    0.7527806    2.2336141  
N    1.9028376    1.5986179    1.8362361  
C    0.0000000    0.0000000    1.4700000  
C   -0.9207814   -0.7726952    2.1506477  
O   -1.8198395   -1.5274828    1.4542253  
C   -0.9436862   -0.7911793    3.5655508  
O   -1.9197945   -1.6098497    4.0950179  
C   -0.0590329   -0.0485852    4.3195194  
H    2.2150357    1.8593692    5.0905303  
H    2.1533708    1.7953814    0.8841339  
H   -2.3621246   -1.9821033    2.1118817  
H   -1.8668290   -1.5649508    5.0545920  
H   -0.1007624   -0.0827977    5.4019087  
H    3.3491200    2.8096064    2.8367138  
