62

C    0.2914229    0.0049628   -8.8402516  
C    1.3278998   -0.6688445   -9.4437140  
C    1.3145292   -0.3044372  -10.8227099  
C    0.2387591    0.6022437  -11.0031965  
N   -0.3626010    0.7667109   -9.7801147  
C   -0.0724149    1.1694351  -12.2426536  
C    0.7169586    0.8151137  -13.3194661  
O    0.4574876    1.3397871  -14.5525138  
C    1.7945413   -0.0882344  -13.1594854  
O    2.4856442   -0.3412880  -14.3263995  
C    2.1019329   -0.6483780  -11.9370817  
H    2.0090576   -1.3412463   -8.9508722  
H   -1.1497070    1.3620803   -9.5957754  
H   -0.8910620    1.8609764  -12.3868423  
H    1.1165232    0.9665959  -15.1522347  
H    3.1960935   -0.9599248  -14.1310681  
H    2.9333309   -1.3374552  -11.8452788  
C    1.7704314   -2.0997834   -5.2515180  
C    1.5928583   -1.6333171   -6.5144322  
C    0.4607459   -0.7379013   -6.4771945  
C   -0.0100423   -0.7207978   -5.0790327  
N    0.8257126   -1.5670941   -4.3875221  
C   -1.0641734    0.0073898   -4.6315339  
C   -1.7831600    0.8289562   -5.5910244  
O   -2.7459474    1.5206786   -5.2862925  
C   -1.3021138    0.8259146   -7.0770896  
O   -1.8998116    1.5134379   -7.8939923  
C   -0.1528623    0.0000279   -7.4390070  
H    2.1870132   -1.8876247   -7.3740374  
H    2.5118287   -2.7880443   -4.8793388  
H    0.7607706   -1.7654786   -3.4059556  
C    1.1319248    0.0015675   -0.8009270  
C    0.7969916    0.0034959   -2.1169404  
C   -0.6453336    0.0035703   -2.1842672  
C   -1.1266831    0.0015415   -0.7896027  
N    0.0000000    0.0000000    0.0000000  
C   -2.4346129    0.0013924   -0.4276297  
C   -3.4350110    0.0031352   -1.4820184  
O   -4.6384610    0.0030897   -1.2583919  
C   -2.9478958    0.0050460   -2.9661075  
O   -3.7809377    0.0062160   -3.8623775  
C   -1.5113821    0.0053068   -3.2312125  
H    1.4821240    0.0045436   -2.9459192  
H   -2.7664565    0.0000185    0.6013447  
H    2.1104318    0.0009428   -0.3488058  
C    2.5285572    2.1210227    2.9438989  
C    1.9331703    1.6216660    4.0790748  
C    0.8903039    0.7472258    3.6520102  
C    0.8972198    0.7527806    2.2336141  
N    1.9028376    1.5986179    1.8362361  
C    0.0000000    0.0000000    1.4700000  
C   -0.9207814   -0.7726952    2.1506477  
O   -1.8198395   -1.5274828    1.4542253  
C   -0.9436862   -0.7911793    3.5655508  
O   -1.9197945   -1.6098497    4.0950179  
C   -0.0590329   -0.0485852    4.3195194  
H    2.2150357    1.8593692    5.0905303  
H    2.1533708    1.7953814    0.8841339  
H   -2.3621246   -1.9821033    2.1118817  
H   -1.8668290   -1.5649508    5.0545920  
H   -0.1007624   -0.0827977    5.4019087  
H    3.3491200    2.8096064    2.8367138  
