62

C   -0.2848505   -0.0565840   -8.7177416  
C    0.4506126   -0.7123452   -9.6777101  
C   -0.0769122   -0.3229982  -10.9444876  
C   -1.1416498    0.5795975  -10.6923355  
N   -1.2422686    0.7177491   -9.3302027  
C   -1.8931343    1.1671579  -11.7145062  
C   -1.5635754    0.8377840  -13.0149232  
O   -2.2647325    1.3830636  -14.0512910  
C   -0.5048176   -0.0610942  -13.2867069  
O   -0.3000203   -0.2882372  -14.6319970  
C    0.2367898   -0.6413230  -12.2787989  
H    1.2661971   -1.3890316   -9.4882093  
H   -1.9031040    1.3043840   -8.8536130  
H   -2.7059411    1.8557145  -11.5289328  
H   -1.8777875    1.0252683  -14.8609342  
H    0.4315836   -0.9055581  -14.7283014  
H    1.0418485   -1.3263774  -12.5176691  
C    2.3446870   -2.1385759   -5.7825615  
C    1.7992133   -1.7303703   -6.9519228  
C    0.7308355   -0.8198482   -6.5697989  
C    0.7735874   -0.7944098   -5.0919259  
N    1.7176446   -1.5654466   -4.6247547  
C   -0.1387079    0.0017019   -4.3179684  
C   -1.0519385    0.7391882   -4.9898753  
O   -1.9638772    1.5275963   -4.3958873  
C   -1.1200789    0.7349605   -6.4810151  
O   -1.9771130    1.4304202   -7.0260375  
C   -0.1732951   -0.0899942   -7.2523616  
H    2.0864380   -2.0122474   -7.9504831  
H   -2.4685600    1.9202488   -5.1309198  
H    3.1667835   -2.8208806   -5.6356224  
C    3.3041273    0.0001178   -1.5420428  
C    2.5845373   -0.0004780   -0.3695851  
C    1.2040007   -0.0000007   -0.7283589  
C    1.1422374    0.0006038   -2.1454372  
N    2.4348641    0.0026111   -2.6077464  
C   -0.0655179    0.0008799   -2.8497918  
C   -1.2321766    0.0002325   -2.1101402  
O   -2.4392814    0.0001148   -2.7472522  
C   -1.1911209   -0.0000007   -0.6955266  
O   -2.4371528   -0.0002320   -0.1032862  
C    0.0000000    0.0000000    0.0000000  
H    3.0031533   -0.0000660    0.6222584  
H    2.7054631   -0.0071097   -3.5745261  
H   -3.1132988   -0.0000648   -2.0551787  
H   -2.3200282   -0.0004072    0.8516409  
H    4.3686625    0.0004073   -1.7024290  
C    0.0000000    0.0000000    1.4700000  
C    1.0541688    0.0001722    2.3260392  
C    0.5103138    0.0000454    3.6635956  
C   -0.9576371   -0.0002459    3.5155732  
N   -1.2018458    0.0001392    2.1615969  
C   -1.8348311   -0.0008317    4.5510609  
C   -1.2972847   -0.0009736    5.9014604  
O   -2.0050672   -0.0014265    6.9001319  
C    0.2542623   -0.0004184    6.0817573  
O    0.7184670   -0.0002256    7.2139121  
C    1.0974552   -0.0000873    4.8889129  
H    2.0940752    0.0005483    2.0517982  
H   -2.9081052   -0.0011668    4.4207061  
H    2.1707277    0.0000911    5.0223670  
H   -2.1128194   -0.0014912    1.7406791  
