64

C   -3.9601096    0.7215747   -6.4677152  
C   -3.2523869    0.0029117   -7.4031933  
C   -4.2045882   -0.7243777   -8.1771198  
C   -5.4880663   -0.4067429   -7.6635838  
N   -5.3033517    0.4721191   -6.6252683  
C   -6.6669622   -0.9451783   -8.1880650  
C   -6.5480484   -1.8199686   -9.2505044  
O   -7.6671135   -2.3745455   -9.8010977  
C   -5.2762462   -2.1495220   -9.7765579  
O   -5.3243487   -3.0346965  -10.8336742  
C   -4.1127963   -1.6189299   -9.2594673  
H   -6.0359224    0.8815979   -6.0742261  
H   -7.6482005   -0.7072221   -7.8010899  
H   -7.3639046   -2.9463464  -10.5182961  
H   -4.4247358   -3.2042516  -11.1295665  
H   -3.1529132   -1.8901442   -9.6831965  
H   -3.6129141    1.3912581   -5.6996409  
C    0.0139742    0.0003878   -4.4216236  
C    1.0636154   -0.0005742   -5.3108478  
C    0.4994410   -0.0004442   -6.6209270  
C   -0.9105910    0.0009100   -6.4668698  
N   -1.1713317   -0.0005653   -5.1190459  
C   -1.7901140    0.0017035   -7.5537126  
C   -1.2361256    0.0014262   -8.8191269  
O   -2.0490856    0.0025209   -9.9155342  
C    0.1683266   -0.0002943   -8.9932770  
O    0.5645631   -0.0007778  -10.3147699  
C    1.0365984   -0.0013509   -7.9215366  
H    2.1075078   -0.0023877   -5.0476387  
H   -2.0858187    0.0104662   -4.7048318  
H   -1.4673446    0.0018011  -10.6867942  
H    1.5262028   -0.0019285  -10.3439552  
H    2.1077729   -0.0028449   -8.0860410  
C    3.2798085    0.0005856   -1.4499646  
C    2.5571146    0.0005565   -2.5996553  
C    1.1637435    0.0001548   -2.2210360  
C    1.1336964   -0.0000200   -0.7459470  
N    2.4483515   -0.0001429   -0.3402716  
C    0.0000000    0.0000000    0.0000000  
C   -1.2757368   -0.0000187   -0.6964415  
O   -2.3524594   -0.0000640   -0.1142314  
C   -1.2676495   -0.0000873   -2.2584081  
O   -2.3355761   -0.0004101   -2.8557295  
C    0.0181563    0.0001759   -2.9516296  
H    2.9547358    0.0006075   -3.5989104  
H    4.3498547    0.0008611   -1.3200019  
H    2.7563628    0.0012823    0.6148064  
C    0.8676693    0.7151171    2.2619005  
C    0.5875920    0.4624972    3.5848544  
C   -0.5048400   -0.4542819    3.6114698  
C   -0.8517165   -0.7276451    2.2635546  
N    0.0000000    0.0000000    1.4700000  
C   -1.8902865   -1.5946756    1.9108239  
C   -2.5912627   -2.1969500    2.9375057  
O   -3.6148162   -3.0527051    2.6493466  
C   -2.2603868   -1.9365747    4.2886322  
O   -3.0513550   -2.6123276    5.1947621  
C   -1.2361111   -1.0811317    4.6373480  
H    1.1060808    0.8876438    4.4271209  
H   -2.1597133   -1.8070987    0.8854031  
H   -3.9636755   -3.3565188    3.4974381  
H   -2.7621927   -2.3810384    6.0827341  
H   -1.0058879   -0.9010589    5.6809233  
H    1.6167816    1.3499334    1.8205408  
