62

C    6.1844902   -1.8548052   -7.1756274  
C    7.2701374   -2.6751458   -7.3778098  
C    7.6025212   -2.5922154   -8.7624562  
C    6.6772774   -1.6983172   -9.3597796  
N    5.8291246   -1.2704034   -8.3687492  
C    6.7062274   -1.3774275  -10.7202872  
C    7.6872620   -1.9694776  -11.4917962  
O    7.7612873   -1.6909645  -12.8259492  
C    8.6192238   -2.8642648  -10.9141965  
O    9.5340880   -3.3712474  -11.8138283  
C    8.5910906   -3.1814987   -9.5721469  
H    7.7613265   -3.2620760   -6.6206845  
H    5.0742409   -0.6200088   -8.4917063  
H    6.0038209   -0.6970071  -11.1816505  
H    8.5055297   -2.2014634  -13.1705645  
H   10.1260832   -3.9658785  -11.3431272  
H    9.3180182   -3.8704289   -9.1581071  
C    5.7052416   -2.0986834   -4.6958674  
C    4.8302129   -1.6343311   -3.7670098  
C    3.9272652   -0.7382853   -4.4501079  
C    4.3509922   -0.7185537   -5.8632095  
N    5.4336789   -1.5634479   -5.9458734  
C    3.7483772    0.0103194   -6.8365046  
C    2.6063701    0.8302495   -6.4676276  
O    1.9959440    1.5225184   -7.2716456  
C    2.1405133    0.8248034   -4.9767380  
O    1.1803933    1.5114043   -4.6542327  
C    2.8699641   -0.0020530   -4.0185824  
H    4.8187251   -1.8901546   -2.7224829  
H    4.0749510    0.0105271   -7.8671641  
H    6.5257689   -2.7867003   -4.5723450  
C    3.2573670   -0.0002921   -1.5109382  
C    2.5379468   -0.0001711   -0.3591962  
C    1.1435043    0.0000330   -0.7338498  
C    1.1092608   -0.0000085   -2.2088474  
N    2.4227562    0.0001906   -2.6182610  
C   -0.0265533   -0.0002525   -2.9515663  
C   -1.3003033   -0.0002641   -2.2514979  
O   -2.3786785   -0.0004132   -2.8306425  
C   -1.2877724    0.0000310   -0.6895608  
O   -2.3539956    0.0003306   -0.0892035  
C    0.0000000    0.0000000    0.0000000  
H    2.9384091   -0.0000370    0.6389240  
H   -0.0296290   -0.0004088   -4.0327231  
H    4.3270394   -0.0004767   -1.6439445  
C    0.8576279    0.7185626    2.2703808  
C    0.0000000    0.0000000    1.4700000  
C   -0.8668858   -0.7285659    2.3373528  
C   -0.4876752   -0.4117774    3.6669281  
N    0.5635254    0.4678311    3.5902241  
C   -1.1297612   -0.9515493    4.7854808  
C   -2.1738724   -1.8268314    4.5576857  
O   -2.8357962   -2.3827064    5.6140350  
C   -2.5667212   -2.1555554    3.2384331  
O   -3.6226318   -3.0413663    3.1773122  
C   -1.9335634   -1.6236449    2.1344818  
H    1.0363952    0.8769718    4.3757045  
H   -0.8454472   -0.7142436    5.8013813  
H   -3.5178062   -2.9546422    5.2385129  
H   -3.8247440   -3.2102924    2.2519915  
H   -2.2566033   -1.8942483    1.1360343  
H    1.6567807    1.3889844    2.0042067  
