60

C    3.6468554   -3.0316777   -6.2172717  
C    4.4505311   -3.6818883   -5.3096382  
C    5.3693058   -4.4742306   -6.0597353  
C    5.0758917   -4.2649963   -7.4316159  
N    4.0236658   -3.3853250   -7.4917503  
C    5.7866388   -4.8897449   -8.4608476  
C    6.8124660   -5.7409897   -8.0985809  
O    7.5390290   -6.3767978   -9.0633948  
C    7.1201225   -5.9628974   -6.7351581  
O    8.1682865   -6.8378127   -6.5371210  
C    6.4191977   -5.3471158   -5.7192630  
H    4.3821833   -3.5965571   -4.2386386  
H    3.6024197   -3.0411926   -8.3356144  
H    5.5678591   -4.7345867   -9.5083514  
H    8.1947018   -6.9150614   -8.6011928  
H    8.3109143   -6.9322396   -5.5903662  
H    6.6776678   -5.5367304   -4.6840248  
C    2.5365539   -2.0936797   -5.9975195  
C    2.0254111   -1.6312724   -4.8274817  
C    0.9452517   -0.7345683   -5.1651398  
C    0.8684324   -0.7123303   -6.6383662  
N    1.8599998   -1.5565496   -7.0821879  
C   -0.0266562    0.0178223   -7.3506836  
C   -0.9777113    0.8365830   -6.6174306  
O   -1.8231606    1.5298527   -7.1677875  
C   -0.9143687    0.8284832   -5.0567489  
O   -1.7097814    1.5140808   -4.4286283  
C    0.0950446    0.0004351   -4.4015596  
H    2.3662773   -1.8887982   -3.8405146  
H   -0.0661854    0.0198669   -8.4311199  
H    2.0599365   -1.7538298   -8.0455952  
C    3.3321173    0.0004713   -1.3379338  
C    2.6974181    0.0000116   -2.5332314  
C    1.2800438   -0.0002119   -2.2052841  
C    1.2395034    0.0000643   -0.7271299  
N    2.4394062    0.0005460   -0.2131038  
C    0.0000000    0.0000000    0.0000000  
C   -1.1468702    0.0000634   -0.7169543  
O   -2.3742203    0.0000074   -0.1695487  
C   -1.1388770    0.0001607   -2.2096355  
O   -2.2206234    0.0000905   -2.7970411  
C    0.1454522    0.0001815   -2.9324241  
H    3.1367984   -0.0000653   -3.5160950  
H   -2.9844346    0.0001026   -0.9290167  
H    4.3940038    0.0007618   -1.1498640  
C    0.8400945    0.7047457    2.2710304  
C    0.0000000    0.0000000    1.4700000  
C   -0.8844236   -0.7423113    2.3369512  
C   -0.4878984   -0.4098547    3.7186280  
N    0.5629682    0.4714286    3.6095011  
C   -1.0836927   -0.9095027    4.8308716  
C   -2.1891196   -1.8367527    4.6554461  
O   -2.7906899   -2.3413415    5.5944904  
C   -2.6257283   -2.2031529    3.2011665  
O   -3.5549479   -2.9829990    3.0410059  
C   -1.9068976   -1.5999348    2.0816745  
H   -0.7774656   -0.6525820    5.8354244  
H   -2.2155208   -1.8586617    1.0779135  
H    1.6384792    1.3747609    1.9961646  
H    1.0518368    0.8833920    4.3830260  
