62

C    1.1243417    0.0099321   -0.7919012  
C    0.7474087    0.0234143   -2.1148546  
C   -0.6787370    0.0234851   -2.1414702  
C   -1.1201741    0.0099191   -0.7935548  
N    0.0000000    0.0000000    0.0000000  
C   -2.4730811    0.0065030   -0.4408244  
C   -3.3971946    0.0172796   -1.4675061  
O   -4.7313510    0.0148789   -1.1793468  
C   -2.9763635    0.0305094   -2.8186326  
O   -4.0166456    0.0397262   -3.7247623  
C   -1.6418545    0.0336135   -3.1673482  
H    1.4178729    0.0310212   -2.9571211  
H   -2.8160170   -0.0039605    0.5845960  
H   -5.1938807    0.0233640   -2.0274383  
H   -3.6464653    0.0484238   -4.6127344  
H    2.1062469    0.0051692   -0.3505411  
C    1.5647051   -2.0539353   -5.3222156  
C    1.3415240   -1.5772550   -6.5740306  
C    0.2114874   -0.6825236   -6.4885403  
C   -0.2083787   -0.6769531   -5.0741600  
N    0.6518740   -1.5285930   -4.4202760  
C   -1.2456306    0.0472387   -4.5828770  
C   -1.9988922    0.8763687   -5.5089849  
O   -2.9500277    1.5652873   -5.1639738  
C   -1.5719569    0.8855785   -7.0114651  
O   -2.1988453    1.5795461   -7.8005664  
C   -0.4365472    0.0630232   -7.4214651  
H    1.9041759   -1.8243693   -7.4566241  
H   -0.1472037    0.0751514   -8.4635095  
H    0.6225102   -1.7349847   -3.4386513  
C    4.8131061   -4.1872050   -7.4182787  
C    3.7503350   -3.3997979   -7.1107373  
C    3.5149954   -3.5449173   -5.6935596  
C    4.5351091   -4.4881551   -5.1971115  
N    5.2900677   -4.8404752   -6.2920087  
C    4.6499010   -4.8865564   -3.9049028  
C    3.7055849   -4.3507579   -2.9386098  
O    3.7263273   -4.6482880   -1.7514509  
C    2.6167226   -3.3504949   -3.4422546  
O    1.8160267   -2.8930296   -2.6379708  
C    2.5935108   -2.9963395   -4.8592540  
H    3.1945516   -2.7873613   -7.7982252  
H    5.4055676   -5.5793473   -3.5615091  
H    5.2878774   -4.3453791   -8.3729846  
H    6.0689571   -5.4730036   -6.2751096  
C    2.5285572    2.1210227    2.9438989  
C    1.9331703    1.6216660    4.0790748  
C    0.8903039    0.7472258    3.6520102  
C    0.8972198    0.7527806    2.2336141  
N    1.9028376    1.5986179    1.8362361  
C    0.0000000    0.0000000    1.4700000  
C   -0.9207814   -0.7726952    2.1506477  
O   -1.8198395   -1.5274828    1.4542253  
C   -0.9436862   -0.7911793    3.5655508  
O   -1.9197945   -1.6098497    4.0950179  
C   -0.0590329   -0.0485852    4.3195194  
H    2.2150357    1.8593692    5.0905303  
H    2.1533708    1.7953814    0.8841339  
H   -2.3621246   -1.9821033    2.1118817  
H   -1.8668290   -1.5649508    5.0545920  
H   -0.1007624   -0.0827977    5.4019087  
H    3.3491200    2.8096064    2.8367138  
