60

C    0.9325845    0.0103071   -7.5332649  
C   -0.3571128    0.0105096   -7.0545710  
C   -1.2221804    0.0119072   -8.1887030  
C   -0.3964486    0.0122247   -9.3419995  
N    0.9060467    0.0131831   -8.9082692  
C   -0.9123208    0.0132146  -10.6414859  
C   -2.2868031    0.0135894  -10.7792345  
O   -2.8436534    0.0142007  -12.0254019  
C   -3.1273096    0.0136576   -9.6406540  
O   -4.4733038    0.0144718   -9.9433846  
C   -2.6190817    0.0129547   -8.3583794  
H   -0.6396439    0.0108493   -6.0157403  
H    1.7154941    0.0030390   -9.5021323  
H   -0.2883559    0.0136054  -11.5245883  
H   -3.8010888    0.0146736  -11.8966339  
H   -4.9703211    0.0144351   -9.1196261  
H   -3.2877451    0.0132085   -7.5055210  
C    1.7334697    0.0049246   -3.2500361  
C    3.0863255    0.0047397   -3.2131616  
C    3.4995612    0.0065858   -4.6080573  
C    2.2333965    0.0076343   -5.3718701  
N    1.1947440    0.0067484   -4.5811811  
C    2.2116347    0.0095933   -6.8087448  
C    3.4007174    0.0108544   -7.4532722  
O    3.5293445    0.0127180   -8.7909914  
C    4.6955627    0.0102160   -6.7106176  
O    5.7398275    0.0113184   -7.3623314  
C    4.6914543    0.0081551   -5.2368798  
H    3.7249597    0.0035937   -2.3464319  
H    4.4909160    0.0132669   -8.9476200  
H    5.6504359    0.0078667   -4.7362957  
C    1.1319247    0.0015655   -0.8009267  
C    0.7969916    0.0034943   -2.1169401  
C   -0.6453337    0.0035710   -2.1842668  
C   -1.1266832    0.0015433   -0.7896026  
N    0.0000000    0.0000000    0.0000000  
C   -2.4346130    0.0013964   -0.4276294  
C   -3.4350109    0.0031408   -1.4820183  
O   -4.6384610    0.0030973   -1.2583915  
C   -2.9478956    0.0050505   -2.9661075  
O   -3.7809378    0.0062218   -3.8623775  
C   -1.5113821    0.0053090   -3.2312122  
H   -2.7664565    0.0000232    0.6013446  
H   -1.1823527    0.0068407   -4.2614846  
H    2.1104317    0.0009391   -0.3488056  
C    0.8400945    0.7047457    2.2710304  
C    0.0000000    0.0000000    1.4700000  
C   -0.8844236   -0.7423113    2.3369512  
C   -0.4878984   -0.4098547    3.7186280  
N    0.5629682    0.4714286    3.6095011  
C   -1.0836927   -0.9095027    4.8308716  
C   -2.1891196   -1.8367527    4.6554461  
O   -2.7906899   -2.3413415    5.5944904  
C   -2.6257283   -2.2031529    3.2011665  
O   -3.5549479   -2.9829990    3.0410059  
C   -1.9068976   -1.5999348    2.0816745  
H   -0.7774656   -0.6525820    5.8354244  
H   -2.2155208   -1.8586617    1.0779135  
H    1.6384792    1.3747609    1.9961646  
H    1.0518368    0.8833920    4.3830260  
