62

C    5.9125530   -1.0644303   -3.1742310  
C    6.1689993   -1.9506932   -2.1538194  
C    7.5723536   -2.2057100   -2.1666812  
C    8.1247381   -1.4405295   -3.2255938  
N    7.0893920   -0.7609113   -3.8178730  
C    9.4889565   -1.4469524   -3.5316260  
C   10.3105558   -2.2400375   -2.7543432  
O   11.6507255   -2.2832389   -3.0094725  
C    9.7781483   -3.0109387   -1.6936500  
O   10.7246894   -3.7486660   -1.0130908  
C    8.4323753   -3.0052976   -1.3913449  
H    5.4347411   -2.3635486   -1.4834406  
H    7.1781970   -0.1283695   -4.5924604  
H    9.9161727   -0.8661418   -4.3374472  
H   12.0328278   -2.8884155   -2.3606080  
H   10.2825239   -4.2396660   -0.3137972  
H    8.0535908   -3.6063557   -0.5729753  
C    3.4137018   -0.7170413   -3.0497335  
C    2.4521483    0.0014840   -3.7217481  
C    3.1199026    0.7307414   -4.7497983  
C    4.4993906    0.4143939   -4.6556559  
N    4.6433838   -0.4656290   -3.6118920  
C    5.4596856    0.9548853   -5.5161743  
C    5.0193332    1.8304468   -6.4896526  
O    5.9146527    2.3870213   -7.3566251  
C    3.6471002    2.1587392   -6.5992775  
O    3.3673160    3.0449060   -7.6189698  
C    2.6992271    1.6261188   -5.7505260  
H    6.5125916    0.7179185   -5.4495538  
H    5.4052510    2.9590406   -7.9453252  
H    2.4201345    3.2135029   -7.6240636  
H    1.6553232    1.8964050   -5.8586417  
H    3.3198574   -1.3878682   -2.2129880  
C    0.0000000    0.0000000    0.0000000  
C    1.0662923   -0.0000101   -0.8334270  
C    0.4961873    0.0000065   -2.1718887  
C   -0.9663854   -0.0000848   -1.9540250  
N   -1.2632773   -0.0000083   -0.6828660  
C   -1.8985359   -0.0000514   -3.0477261  
C   -1.3925770    0.0004566   -4.3020547  
O   -2.1456378    0.0005414   -5.4151314  
C    0.0786240    0.0009326   -4.5545000  
O    0.4683767    0.0012591   -5.7221100  
C    1.0143171    0.0008444   -3.4159031  
H    2.1107200    0.0000633   -0.5721865  
H   -2.9622181   -0.0003268   -2.8593381  
H   -1.5042265    0.0009697   -6.1484419  
C    1.0965515   -0.0001358    2.2710304  
C    0.0000000    0.0000000    1.4700000  
C   -1.1546562   -0.0001469    2.3369512  
C   -0.6372014   -0.0003519    3.7186280  
N    0.7342871   -0.0007337    3.6095011  
C   -1.4147739   -0.0001353    4.8308716  
C   -2.8576048    0.0001048    4.6554461  
O   -3.6427778    0.0002493    5.5944904  
C   -3.4275839    0.0000726    3.2011665  
O   -4.6406829   -0.0000333    3.0410059  
C   -2.4891866    0.0001091    2.0816745  
H   -1.0150448   -0.0001615    5.8354244  
H   -2.8919121    0.0002919    1.0779135  
H    2.1388271   -0.0000662    1.9961646  
H    1.3735872    0.0006099    4.3830260  
