60

C    4.4078525   -0.9037537   -9.0099938  
C    3.9905199    0.1813347   -8.2745452  
C    4.0376512    1.3140406   -9.1401985  
C    4.4948981    0.8548653  -10.4019473  
N    4.7120876   -0.4958311  -10.2876432  
C    4.6626961    1.7036531  -11.5002147  
C    4.3631649    3.0402718  -11.3215843  
O    4.5088060    3.9128707  -12.3609944  
C    3.9060228    3.5175622  -10.0701727  
O    3.6507057    4.8732257  -10.0518941  
C    3.7405103    2.6808305   -8.9861926  
H    5.0302615   -1.0970169  -11.0261014  
H    5.0109578    1.3599323  -12.4644604  
H    4.2500375    4.7814792  -12.0265951  
H    3.3466133    5.1136031   -9.1713543  
H    3.3888745    3.0752925   -8.0400278  
H    4.5139344   -1.9361466   -8.7238629  
C    5.6703525   -2.0177346   -4.9085748  
C    4.8680133   -1.6338541   -3.8885421  
C    3.9117991   -0.7160921   -4.4884317  
C    4.2939630   -0.6601082   -5.9158072  
N    5.3241004   -1.4211364   -6.1680812  
C    3.5804909    0.1513597   -6.8632059  
C    2.5326218    0.8737501   -6.4055410  
O    1.7779987    1.6737360   -7.1779443  
C    2.1221162    0.8381010   -4.9708373  
O    1.1586084    1.5213824   -4.6244274  
C    2.8699641   -0.0020530   -4.0185824  
H    4.9187307   -1.9362135   -2.8565138  
H    1.1149868    2.0503428   -6.5715331  
H    6.5076563   -2.6965644   -4.8756220  
C    3.2573670   -0.0002921   -1.5109382  
C    2.5379468   -0.0001711   -0.3591962  
C    1.1435043    0.0000330   -0.7338498  
C    1.1092608   -0.0000085   -2.2088474  
N    2.4227562    0.0001906   -2.6182610  
C   -0.0265533   -0.0002525   -2.9515663  
C   -1.3003033   -0.0002641   -2.2514979  
O   -2.3786785   -0.0004132   -2.8306425  
C   -1.2877724    0.0000310   -0.6895608  
O   -2.3539956    0.0003306   -0.0892035  
C    0.0000000    0.0000000    0.0000000  
H    2.9384091   -0.0000370    0.6389240  
H   -0.0296290   -0.0004088   -4.0327231  
H    4.3270394   -0.0004767   -1.6439445  
C    0.8400945    0.7047457    2.2710304  
C    0.0000000    0.0000000    1.4700000  
C   -0.8844236   -0.7423113    2.3369512  
C   -0.4878984   -0.4098547    3.7186280  
N    0.5629682    0.4714286    3.6095011  
C   -1.0836927   -0.9095027    4.8308716  
C   -2.1891196   -1.8367527    4.6554461  
O   -2.7906899   -2.3413415    5.5944904  
C   -2.6257283   -2.2031529    3.2011665  
O   -3.5549479   -2.9829990    3.0410059  
C   -1.9068976   -1.5999348    2.0816745  
H   -0.7774656   -0.6525820    5.8354244  
H   -2.2155208   -1.8586617    1.0779135  
H    1.6384792    1.3747609    1.9961646  
H    1.0518368    0.8833920    4.3830260  
