62

C    5.4709619   -0.9875917   -8.5476503  
C    5.9088192   -0.5718832   -9.7837469  
C    5.6614532    0.8306572   -9.8630585  
C    5.0665237    1.2184489   -8.6352133  
N    4.9635583    0.0900295   -7.8601744  
C    4.6876624    2.5361031   -8.3612778  
C    4.9137714    3.4795248   -9.3446442  
O    4.5633104    4.7810223   -9.1294839  
C    5.5058748    3.1120276  -10.5763816  
O    5.6646209    4.1654409  -11.4530020  
C    5.8796336    1.8122695  -10.8474150  
H    6.3509923   -1.2022111  -10.5361845  
H    4.2336582    2.8380800   -7.4275262  
H    4.8039973    5.2645901   -9.9304202  
H    6.0706511    3.8319189  -12.2589218  
H    6.3308590    1.5607573  -11.8001046  
H    5.4791448   -1.9677856   -8.1025529  
C    6.2380164   -2.1231804   -4.2495877  
C    5.2558083   -1.6611809   -3.4044307  
C    4.4368138   -0.7737768   -4.1636158  
C    4.9722984   -0.7337286   -5.4764672  
N    6.0663544   -1.5628008   -5.4937160  
C    4.4150850    0.0424761   -6.4971570  
C    3.2967540    0.7916695   -6.1869598  
O    2.7123221    1.5671593   -7.1461624  
C    2.7480081    0.7652113   -4.8827381  
O    1.6345600    1.5657144   -4.7318326  
C    3.2973506   -0.0000934   -3.8752374  
H    5.1440869   -1.9297761   -2.3679137  
H    6.6444975   -1.7441919   -6.2942341  
H    1.9582891    2.0001611   -6.7251998  
H    1.3266648    1.4903898   -3.8234657  
H    7.0482931   -2.8069872   -4.0629901  
C    3.3321174    0.0004714   -1.3379332  
C    2.6974186    0.0000115   -2.5332308  
C    1.2800441   -0.0002119   -2.2052838  
C    1.2395035    0.0000643   -0.7271293  
N    2.4394063    0.0005458   -0.2131034  
C    0.0000000    0.0000000    0.0000000  
C   -1.1468701    0.0000634   -0.7169542  
O   -2.3742201    0.0000072   -0.1695492  
C   -1.1388767    0.0001606   -2.2096354  
O   -2.2206229    0.0000903   -2.7970413  
C    0.1454526    0.0001815   -2.9324239  
H   -2.9844344    0.0001023   -0.9290168  
H    0.1083580    0.0003680   -4.0135594  
H    4.3940040    0.0007617   -1.1498630  
C    2.4951002    2.0940188    2.9809380  
C    1.9440701    1.6314916    1.8291961  
C    0.8759964    0.7350050    2.2038498  
C    0.8497377    0.7130254    3.6788474  
N    1.8560616    1.5571714    4.0882609  
C   -0.0205033   -0.0168748    4.4215661  
C   -0.9962600   -0.8356168    3.7214979  
O   -1.8224391   -1.5286685    4.3006425  
C   -0.9864710   -0.8277881    2.1595606  
O   -1.8030528   -1.5133726    1.5592035  
C    0.0000000    0.0000000    1.4700000  
H    2.2509283    1.8888011    0.8310761  
H   -0.0229599   -0.0187323    5.5027230  
H    3.3143982    2.7817323    3.1139444  
H    2.0889452    1.7545833    5.0442112  
