62

C    1.1269575   -1.0555862   -7.3663785  
C    2.1403599   -1.9420398   -7.0840980  
C    2.8249432   -2.1957669   -8.3094833  
C    2.1791033   -1.4296394   -9.3134083  
N    1.1513861   -0.7507217   -8.7072028  
C    2.5896561   -1.4346863  -10.6499009  
C    3.6720838   -2.2273435  -10.9788712  
O    4.1149240   -2.2692123  -12.2692789  
C    4.3293744   -2.9991743   -9.9914184  
O    5.3897384   -3.7363191  -10.4767929  
C    3.9247299   -2.9948906   -8.6727943  
H    2.3585759   -2.3558466   -6.1144904  
H    0.5226578   -0.1177758   -9.1677037  
H    2.1015785   -0.8531489  -11.4198341  
H    4.8679229   -2.8743098  -12.2800422  
H    5.7778815   -4.2280153   -9.7465993  
H    4.4477173   -3.5966366   -7.9387213  
C   -0.0037892   -0.7105356   -5.1341628  
C   -1.0641734    0.0073898   -4.6315339  
C   -1.6260113    0.7376868   -5.7203886  
C   -0.8603254    0.4225624   -6.8720602  
N    0.1176067   -0.4577637   -6.4805350  
C   -1.1316211    0.9642913   -8.1321065  
C   -2.1954362    1.8398557   -8.2314163  
O   -2.5045510    2.3976108   -9.4382177  
C   -2.9709722    2.1669380   -7.0937084  
O   -3.9953198    3.0532739   -7.3553648  
C   -2.7037382    1.6330963   -5.8502752  
H   -0.5517515    0.7282604   -9.0137204  
H   -3.2684069    2.9694093   -9.2871060  
H   -4.4693356    3.2210061   -6.5351346  
H   -3.3151850    1.9024723   -4.9970179  
H    0.6764261   -1.3817974   -4.6385083  
C    1.1319248    0.0015675   -0.8009270  
C    0.7969916    0.0034959   -2.1169404  
C   -0.6453336    0.0035703   -2.1842672  
C   -1.1266831    0.0015415   -0.7896027  
N    0.0000000    0.0000000    0.0000000  
C   -2.4346129    0.0013924   -0.4276297  
C   -3.4350110    0.0031352   -1.4820184  
O   -4.6384610    0.0030897   -1.2583919  
C   -2.9478958    0.0050460   -2.9661075  
O   -3.7809377    0.0062160   -3.8623775  
C   -1.5113821    0.0053068   -3.2312125  
H    1.4821240    0.0045436   -2.9459192  
H   -2.7664565    0.0000185    0.6013447  
H    2.1104318    0.0009428   -0.3488058  
C    0.0000000    0.0000000    1.4700000  
C    1.0541688    0.0001722    2.3260392  
C    0.5103138    0.0000454    3.6635956  
C   -0.9576371   -0.0002459    3.5155732  
N   -1.2018458    0.0001392    2.1615969  
C   -1.8348311   -0.0008317    4.5510609  
C   -1.2972847   -0.0009736    5.9014604  
O   -2.0050672   -0.0014265    6.9001319  
C    0.2542623   -0.0004184    6.0817573  
O    0.7184670   -0.0002256    7.2139121  
C    1.0974552   -0.0000873    4.8889129  
H    2.0940752    0.0005483    2.0517982  
H   -2.9081052   -0.0011668    4.4207061  
H    2.1707277    0.0000911    5.0223670  
H   -2.1128194   -0.0014912    1.7406791  
