60

C    4.3645248   -2.1221506   -5.7106125  
C    3.1317977   -1.6605380   -6.1103172  
C    3.3542168   -0.7739004   -7.2053074  
C    4.7540377   -0.7338995   -7.4307559  
N    5.3378344   -1.5622604   -6.5046791  
C    5.3359688    0.0416306   -8.4380779  
C    4.4893421    0.7901855   -9.2324745  
O    5.0045994    1.5650016  -10.2310656  
C    3.0899934    0.7637633   -9.0228499  
O    2.3819559    1.5635823   -9.8959566  
C    2.5152334   -0.0008762   -8.0291188  
H    2.1884077   -1.9288922   -5.6664769  
H    6.3222658   -1.7435150   -6.4270800  
H    6.4021296    0.0765703   -8.6149468  
H    4.2528563    1.9976368  -10.6564747  
H    1.4459797    1.4883315   -9.6864587  
H    4.6266132   -2.8053699   -4.9210050  
C   -0.0307354   -0.0004645   -4.4215603  
C    1.0209938   -0.0006518   -5.2805949  
C    0.4733361   -0.0007738   -6.6165986  
C   -0.9941877   -0.0006121   -6.4644009  
N   -1.2345439   -0.0008268   -5.1097353  
C   -1.8743241   -0.0002659   -7.4973894  
C   -1.3406216   -0.0002634   -8.8493122  
O   -2.0512423   -0.0000274   -9.8459671  
C    0.2104061   -0.0006851   -9.0340223  
O    0.6713883   -0.0009936  -10.1674938  
C    1.0569891   -0.0007575   -7.8435816  
H    2.0616762   -0.0008815   -5.0093135  
H   -2.9472234   -0.0000222   -7.3639817  
H   -2.1443165    0.0007705   -4.6862281  
C    3.2573669   -0.0002919   -1.5109381  
C    2.5379467   -0.0001709   -0.3591962  
C    1.1435042    0.0000332   -0.7338501  
C    1.1092607   -0.0000081   -2.2088477  
N    2.4227561    0.0001910   -2.6182614  
C   -0.0265534   -0.0002522   -2.9515663  
C   -1.3003036   -0.0002639   -2.2514981  
O   -2.3786785   -0.0004131   -2.8306428  
C   -1.2877726    0.0000312   -0.6895608  
O   -2.3539957    0.0003306   -0.0892035  
C    0.0000000    0.0000000    0.0000000  
H    2.9384091   -0.0000368    0.6389238  
H    4.3270391   -0.0004764   -1.6439447  
H    2.7280492   -0.0013405   -3.5742114  
C    0.8400945    0.7047457    2.2710304  
C    0.0000000    0.0000000    1.4700000  
C   -0.8844236   -0.7423113    2.3369512  
C   -0.4878984   -0.4098547    3.7186280  
N    0.5629682    0.4714286    3.6095011  
C   -1.0836927   -0.9095027    4.8308716  
C   -2.1891196   -1.8367527    4.6554461  
O   -2.7906899   -2.3413415    5.5944904  
C   -2.6257283   -2.2031529    3.2011665  
O   -3.5549479   -2.9829990    3.0410059  
C   -1.9068976   -1.5999348    2.0816745  
H   -0.7774656   -0.6525820    5.8354244  
H   -2.2155208   -1.8586617    1.0779135  
H    1.6384792    1.3747609    1.9961646  
H    1.0518368    0.8833920    4.3830260  
