62

C   -4.2194382    0.7141565   -5.9242426  
C   -3.6304806   -0.0040757   -6.9390032  
C   -4.6692455   -0.7328174   -7.5905424  
C   -5.8807227   -0.4164717   -6.9240772  
N   -5.5715609    0.4630534   -5.9163713  
C   -7.1142248   -0.9565189   -7.3003880  
C   -7.1249883   -1.8316256   -8.3691493  
O   -8.3022802   -2.3877549   -8.7786830  
C   -5.9266146   -2.1599085   -9.0466053  
O   -6.1024780   -3.0455932  -10.0896677  
C   -4.7093356   -1.6277262   -8.6757399  
H   -6.2317894    0.8719070   -5.2800399  
H   -8.0410999   -0.7195507   -6.7964528  
H   -8.0883041   -2.9595070   -9.5274011  
H   -5.2455681   -3.2142175  -10.4932453  
H   -3.8081076   -1.8979932   -9.2135346  
H   -3.7817880    1.3845778   -5.2045509  
C   -0.1496416   -0.0015616   -4.3176961  
C    0.8738324   -0.0018843   -5.2031795  
C    0.2377936   -0.0027127   -6.5115956  
C   -1.2121180   -0.0029009   -6.2211815  
N   -1.4453515   -0.0021478   -4.9368177  
C   -2.1975666   -0.0036285   -7.2671149  
C   -1.7546874   -0.0037558   -8.5450792  
O   -2.5622331   -0.0044163   -9.6192815  
C   -0.2978805   -0.0032016   -8.8704623  
O    0.0332545   -0.0034787  -10.0560298  
C    0.6933420   -0.0025029   -7.7798645  
H    1.9299714   -0.0015053   -4.9942642  
H   -1.9581288   -0.0043079  -10.3836172  
H    1.7389224   -0.0020005   -8.0573388  
C    3.3003544    0.0005274   -1.4738988  
C    2.5232813    0.0003494   -2.6090747  
C    1.1623199   -0.0001321   -2.1820103  
C    1.1711883    0.0000582   -0.7636141  
N    2.4852299   -0.0014920   -0.3662360  
C    0.0000000    0.0000000    0.0000000  
C   -1.2020383    0.0000519   -0.6806477  
O   -2.3759250    0.0003494    0.0157744  
C   -1.2314656   -0.0005115   -2.0955510  
O   -2.5054391   -0.0008040   -2.6250180  
C   -0.0764517   -0.0007275   -2.8495195  
H    2.8919953   -0.0005622   -3.6205304  
H    2.8036267    0.0088182    0.5858661  
H   -3.0835639    0.0000346   -0.6418817  
H   -2.4360050   -0.0011531   -3.5845921  
H    4.3715546    0.0004893   -1.3667137  
C    0.8175213    0.6860729    2.3021913  
C    0.0000000    0.0000000    1.4700000  
C   -0.8887526   -0.7456559    2.3478473  
C   -0.4549825   -0.3816753    3.7138435  
N    0.5448156    0.4573574    3.6934124  
C   -1.0945674   -0.9182058    4.8835240  
C   -2.1210866   -1.7789155    4.6970523  
O   -2.8083856   -2.3554314    5.6976972  
C   -2.5824069   -2.1655116    3.3310774  
O   -3.5227682   -2.9541547    3.2362962  
C   -1.9100805   -1.6015804    2.1470656  
H   -0.7567140   -0.6349833    5.8697035  
H   -3.4728268   -2.9124471    5.2533954  
H   -2.2742832   -1.9066565    1.1752040  
H    1.6189533    1.3585343    2.0405121  
