60

C    2.4661808    0.0108478   -7.2835173  
C    3.1432529    0.0084755   -6.0860053  
C    4.5357699    0.0080871   -6.3950311  
C    4.6483220    0.0105930   -7.8089795  
N    3.3731094    0.0102725   -8.3173586  
C    5.8805652    0.0112604   -8.4695605  
C    7.0199422    0.0096706   -7.6885387  
O    8.2491230    0.0105831   -8.2819425  
C    6.9281718    0.0067884   -6.2763114  
O    8.1521587    0.0050686   -5.6397600  
C    5.7128698    0.0058552   -5.6239569  
H    2.6893290    0.0060788   -5.1098182  
H    3.1373667    0.0222754   -9.2931988  
H    5.9731044    0.0130227   -9.5468878  
H    8.8978824    0.0088832   -7.5661392  
H    8.0008574    0.0031864   -4.6896505  
H    5.6739970    0.0034523   -4.5409239  
C   -1.0641738    0.0073911   -4.6315339  
C    0.2004553    0.0078180   -5.1262942  
C    0.0892951    0.0101557   -6.5659028  
C   -1.3541076    0.0110916   -6.8714814  
N   -1.9986529    0.0089309   -5.6559783  
C   -1.8747033    0.0136544   -8.1247482  
C   -0.9518127    0.0153962   -9.2476040  
O   -1.3222271    0.0176754  -10.4142611  
C    0.5810423    0.0141935   -8.9473384  
O    1.3676724    0.0153342   -9.8846077  
C    1.0213770    0.0116823   -7.5545176  
H    1.1076402    0.0064482   -4.5486895  
H   -2.9367619    0.0144294   -8.3270864  
H   -2.9945000    0.0104952   -5.5321491  
C    1.1319245    0.0015656   -0.8009271  
C    0.7969914    0.0034943   -2.1169404  
C   -0.6453340    0.0035712   -2.1842672  
C   -1.1266833    0.0015434   -0.7896027  
N    0.0000000    0.0000000    0.0000000  
C   -2.4346131    0.0013965   -0.4276296  
C   -3.4350110    0.0031409   -1.4820182  
O   -4.6384610    0.0030975   -1.2583916  
C   -2.9478961    0.0050507   -2.9661073  
O   -3.7809383    0.0062220   -3.8623773  
C   -1.5113824    0.0053091   -3.2312124  
H    1.4821237    0.0045409   -2.9459193  
H   -2.7664564    0.0000233    0.6013449  
H    2.1104315    0.0009392   -0.3488061  
C    2.5128556    2.1077716    2.9199648  
C    1.9592212    1.6432552    4.0696553  
C    0.8915788    0.7479214    3.6910360  
C    0.8684491    0.7287414    2.2159470  
N    1.8754542    1.5738793    1.8102719  
C    0.0000000    0.0000000    1.4700000  
C   -0.9772830   -0.8200135    2.1664417  
O   -1.8021297   -1.5120829    1.5842315  
C   -0.9711318   -0.8147624    3.7284083  
O   -1.7894187   -1.5009653    4.3257297  
C    0.0140216    0.0115358    4.4216297  
H    2.2638494    1.8988021    5.0689105  
H    0.0117648    0.0094386    5.5031631  
H    3.3327358    2.7953732    2.7900019  
H    2.1123206    1.7707734    0.8551938  
