60

C    0.1245645   -1.0820384   -9.6461418  
C   -0.0671591    0.0182946   -8.8430377  
C   -0.2680876    1.1348647   -9.7076182  
C   -0.1877084    0.6505887  -11.0383850  
N    0.0534327   -0.6988884  -10.9650375  
C   -0.3388809    1.4784653  -12.1548793  
C   -0.5758087    2.8195941  -11.9237577  
O   -0.7315251    3.6724562  -12.9779837  
C   -0.6590282    3.3217936  -10.6032699  
O   -0.8990898    4.6788324  -10.5387854  
C   -0.5097241    2.5057002   -9.5013517  
H    0.1490661   -1.3149603  -11.7519879  
H   -0.2785807    1.1155668  -13.1716728  
H   -0.8849939    4.5482766  -12.6002927  
H   -0.9407680    4.9366658   -9.6128323  
H   -0.5784089    2.9190201   -8.5018872  
H    0.3078469   -2.1095932   -9.3825185  
C    2.4602720   -2.0944456   -5.9392888  
C    1.9124732   -1.6318086   -4.7860506  
C    0.8432456   -0.7354856   -5.1577935  
C    0.8127888   -0.7137219   -6.6327140  
N    1.8180306   -1.5578237   -7.0448669  
C   -0.0596367    0.0159819   -7.3730587  
C   -1.0334824    0.8347248   -6.6703356  
O   -1.8613770    1.5276081   -7.2472273  
C   -1.0192491    0.8271228   -5.1084314  
O   -1.8341904    1.5127102   -4.5058525  
C   -0.0307352   -0.0004646   -4.4215603  
H    2.2221961   -1.8889425   -3.7887704  
H    3.2792593   -2.7820943   -6.0745265  
H    2.0482143   -1.7553499   -8.0014469  
C    3.2573670   -0.0002920   -1.5109380  
C    2.5379468   -0.0001709   -0.3591961  
C    1.1435043    0.0000332   -0.7338500  
C    1.1092609   -0.0000082   -2.2088477  
N    2.4227562    0.0001909   -2.6182613  
C   -0.0265532   -0.0002522   -2.9515663  
C   -1.3003035   -0.0002639   -2.2514981  
O   -2.3786784   -0.0004131   -2.8306429  
C   -1.2877725    0.0000312   -0.6895608  
O   -2.3539958    0.0003307   -0.0892036  
C    0.0000000    0.0000000    0.0000000  
H    2.9384091   -0.0000369    0.6389239  
H    4.3270394   -0.0004765   -1.6439446  
H    2.7280494   -0.0013406   -3.5742113  
C    0.8400945    0.7047457    2.2710304  
C    0.0000000    0.0000000    1.4700000  
C   -0.8844236   -0.7423113    2.3369512  
C   -0.4878984   -0.4098547    3.7186280  
N    0.5629682    0.4714286    3.6095011  
C   -1.0836927   -0.9095027    4.8308716  
C   -2.1891196   -1.8367527    4.6554461  
O   -2.7906899   -2.3413415    5.5944904  
C   -2.6257283   -2.2031529    3.2011665  
O   -3.5549479   -2.9829990    3.0410059  
C   -1.9068976   -1.5999348    2.0816745  
H   -0.7774656   -0.6525820    5.8354244  
H   -2.2155208   -1.8586617    1.0779135  
H    1.6384792    1.3747609    1.9961646  
H    1.0518368    0.8833920    4.3830260  
