60

C   -8.4861822    0.8966584   -2.3267452  
C   -7.6843695   -0.1873500   -2.5996746  
C   -8.5422377   -1.3209837   -2.7160199  
C   -9.8677971   -0.8634615   -2.5027307  
N   -9.7977221    0.4871847   -2.2672274  
C  -10.9770812   -1.7135100   -2.5439156  
C  -10.7440028   -3.0497134   -2.8054754  
O  -11.7912955   -3.9234953   -2.8574239  
C   -9.4285965   -3.5253611   -3.0206063  
O   -9.3612911   -4.8808083   -3.2687533  
C   -8.3337630   -2.6873852   -2.9798570  
H  -10.5833748    1.0873639   -2.0925397  
H  -11.9898641   -1.3710515   -2.3820729  
H  -11.4133715   -4.7915592   -3.0495256  
H   -8.4391210   -5.1200442   -3.4028148  
H   -7.3380504   -3.0806008   -3.1484264  
H   -8.2261550    1.9292639   -2.1684076  
C   -4.6947976    2.0138971   -0.3183443  
C   -3.5421867    1.6316854   -0.9158233  
C   -3.9514600    0.7140407   -1.9679277  
C   -5.4250718    0.6562913   -1.8596816  
N   -5.8665584    1.4162667   -0.8945306  
C   -6.2212659   -0.1556042   -2.7383094  
C   -5.5747443   -0.8767168   -3.6824179  
O   -6.1913469   -1.6769183   -4.5687128  
C   -4.0886055   -0.8392725   -3.8171449  
O   -3.5672058   -1.5214556   -4.6991824  
C   -3.2941076    0.0012878   -2.9038237  
H   -2.5382353    1.9350698   -0.6726877  
H   -5.4711320   -2.0523898   -5.1067318  
H   -4.8199134    2.6921166    0.5107142  
C    0.0000000    0.0000000    0.0000000  
C    1.0541688   -0.0001723   -0.8560392  
C    0.5103136   -0.0000455   -2.1935956  
C   -0.9576373    0.0002461   -2.0455730  
N   -1.2018460   -0.0001389   -0.6915968  
C   -1.8348314    0.0008319   -3.0810607  
C   -1.2972851    0.0009739   -4.4314603  
O   -2.0050676    0.0014268   -5.4301316  
C    0.2542619    0.0004184   -4.6117572  
O    0.7184666    0.0002257   -5.7439122  
C    1.0974551    0.0000873   -3.4189129  
H    2.0940752   -0.0005484   -0.5817983  
H    2.1707276   -0.0000912   -3.5523673  
H   -2.1128194    0.0014915   -0.2706789  
C    3.1301144    0.0010313    3.1728260  
C    2.5367765    0.0002768    1.9564670  
C    1.1089900   -0.0001027    2.2356185  
C    1.0177864    0.0004150    3.7115134  
N    2.1993570    0.0011613    4.2663826  
C   -0.2459220    0.0002880    4.3957118  
C   -1.3675327    0.0000606    3.6398520  
O   -2.6129319   -0.0000866    4.1448486  
C   -1.3083589   -0.0000910    2.1483229  
O   -2.3693264   -0.0004206    1.5241687  
C    0.0000000    0.0000000    1.4700000  
H    3.0096015    0.0001008    0.9892483  
H   -0.2829642    0.0004689    5.4753125  
H   -3.1967446   -0.0002093    3.3649027  
H    4.1849273    0.0015113    3.3971983  
