62

C   -0.3729859   -0.6911697   -9.5417919  
C   -0.7338938    0.5615265   -9.1025138  
C   -0.6761903    1.4313037  -10.2315648  
C   -0.2709448    0.6463862  -11.3413428  
N   -0.0935243   -0.6369520  -10.8872694  
C   -0.1085269    1.1776333  -12.6243811  
C   -0.3600729    2.5257471  -12.7901866  
O   -0.2173095    3.0959503  -14.0220552  
C   -0.7649412    3.3255000  -11.6950646  
O   -0.9764093    4.6491382  -12.0215715  
C   -0.9251112    2.8021389  -10.4289816  
H    0.1836051   -1.4193186  -11.4521436  
H    0.2002245    0.5847737  -13.4743186  
H   -0.4384353    4.0305410  -13.9176151  
H   -1.2467692    5.1190138  -11.2267599  
H   -1.2361511    3.4394861   -9.6095183  
H   -0.2914186   -1.6187465   -9.0015082  
C    0.9070721   -0.7042925   -5.2310448  
C    0.0950446    0.0004351   -4.4015596  
C   -0.8184768    0.7430225   -5.2375492  
C   -0.4696132    0.4107475   -6.6320662  
N    0.5842462   -0.4707050   -6.5591865  
C   -1.1031226    0.9106725   -7.7231417  
C   -2.2017459    1.8380503   -7.5097580  
O   -2.8350879    2.3428870   -8.4275373  
C   -2.5881745    2.2042621   -6.0413008  
O   -3.5112398    2.9842135   -5.8492396  
C   -1.8314683    1.6007480   -4.9472170  
H   -2.1054515    1.8593460   -3.9334203  
H    1.7143130   -1.3744693   -4.9838303  
H    1.0462412   -0.8826050   -7.3490886  
C    3.3321173    0.0004713   -1.3379338  
C    2.6974181    0.0000116   -2.5332314  
C    1.2800438   -0.0002119   -2.2052841  
C    1.2395034    0.0000643   -0.7271299  
N    2.4394062    0.0005460   -0.2131038  
C    0.0000000    0.0000000    0.0000000  
C   -1.1468702    0.0000634   -0.7169543  
O   -2.3742203    0.0000074   -0.1695487  
C   -1.1388770    0.0001607   -2.2096355  
O   -2.2206234    0.0000905   -2.7970411  
C    0.1454522    0.0001815   -2.9324241  
H    3.1367984   -0.0000653   -3.5160950  
H   -2.9844346    0.0001026   -0.9290167  
H    4.3940038    0.0007618   -1.1498640  
C    0.0000000    0.0000000    1.4700000  
C    1.0521667    0.0011902    2.3562342  
C    0.4917218    0.0011957    3.6679131  
C   -0.9187428   -0.0003148    3.5178682  
N   -1.1833171    0.0009411    2.1707914  
C   -1.7951701   -0.0010350    4.6072090  
C   -1.2375837   -0.0005224    5.8710424  
O   -2.0474215   -0.0015360    6.9697579  
C    0.1673580    0.0013566    6.0411963  
O    0.5673524    0.0020687    7.3615553  
C    1.0325770    0.0023412    4.9669890  
H    2.0953057    0.0030649    2.0900562  
H   -2.0989778   -0.0102372    1.7591824  
H   -2.8710934   -0.0020419    4.4995513  
H   -1.4634884   -0.0006497    7.7393593  
H    1.5290710    0.0033153    7.3880045  
H    2.1042148    0.0039609    5.1284455  
