62

C    7.2341725   -3.2559850   -1.6476140  
C    6.7584072   -2.0028679   -1.9571496  
C    7.8880873   -1.1351318   -2.0310066  
C    9.0358023   -1.9216711   -1.7552659  
N    8.6029767   -3.2039671   -1.5250585  
C   10.3299225   -1.3926367   -1.7424023  
C   10.4679732   -0.0451091   -2.0131228  
O   11.7090683    0.5229549   -2.0139398  
C    9.3348857    0.7562388   -2.2901965  
O    9.6371436    2.0790345   -2.5395843  
C    8.0578809    0.2350611   -2.3027903  
H    9.1946619   -3.9870812   -1.3138206  
H   11.2087416   -1.9867396   -1.5328340  
H   11.5814645    1.4574965   -2.2227784  
H    8.8172916    2.5500939   -2.7172067  
H    7.2091440    0.8735927   -2.5181998  
H    6.7052815   -4.1824646   -1.5031538  
C    4.2912323   -2.1143351   -1.4466317  
C    5.3462901   -1.6515578   -2.1654949  
C    4.8141498   -0.7557115   -3.1650558  
C    3.3521068   -0.7343357   -2.9681712  
N    3.0997464   -1.5788209   -1.9117392  
C    2.4861704   -0.0045255   -3.7159919  
C    3.0304435    0.8144036   -4.7863461  
O    2.3328584    1.5073004   -5.5154345  
C    4.5758858    0.8068264   -5.0129661  
O    5.0456360    1.4921000   -5.9112952  
C    5.4069285   -0.0204565   -4.1418624  
H    6.4760576   -0.0199704   -4.3052231  
H    4.2838598   -2.8017032   -0.6163547  
H    2.1903282   -1.7742811   -1.5351743  
C    0.0000000    0.0000000    0.0000000  
C    1.0521669   -0.0011848   -0.8862341  
C    0.4917221   -0.0011931   -2.1979130  
C   -0.9187427    0.0003100   -2.0478683  
N   -1.1833170   -0.0009472   -0.7007915  
C   -1.7951698    0.0010259   -3.1372090  
C   -1.2375835    0.0005161   -4.4010425  
O   -2.0474208    0.0015256   -5.4997580  
C    0.1673584   -0.0013557   -4.5711962  
O    0.5673529   -0.0020659   -5.8915551  
C    1.0325773   -0.0023359   -3.4969890  
H    2.0953059   -0.0030542   -0.6200560  
H   -2.0989777    0.0102265   -0.2891825  
H   -2.8710930    0.0020274   -3.0295514  
H   -1.4634881    0.0006427   -6.2693593  
H    1.5290715   -0.0033076   -5.9180042  
C    0.0000000    0.0000000    1.4700000  
C    1.0541688    0.0001722    2.3260392  
C    0.5103138    0.0000454    3.6635956  
C   -0.9576371   -0.0002459    3.5155732  
N   -1.2018458    0.0001392    2.1615969  
C   -1.8348311   -0.0008317    4.5510609  
C   -1.2972847   -0.0009736    5.9014604  
O   -2.0050672   -0.0014265    6.9001319  
C    0.2542623   -0.0004184    6.0817573  
O    0.7184670   -0.0002256    7.2139121  
C    1.0974552   -0.0000873    4.8889129  
H    2.0940752    0.0005483    2.0517982  
H   -2.9081052   -0.0011668    4.4207061  
H    2.1707277    0.0000911    5.0223670  
H   -2.1128194   -0.0014912    1.7406791  
