60

C   10.0512773    2.1230177   -6.4841274  
C    9.0479230    1.6611845   -5.6640919  
C    9.6529201    0.7745157   -4.7247324  
C   11.0390521    0.7347239   -5.0230329  
N   11.2465777    1.5632340   -6.0977985  
C   11.9471658   -0.0407751   -4.2959021  
C   11.4469231   -0.7895129   -3.2483690  
O   12.2897450   -1.5643077   -2.5051607  
C   10.0669812   -0.7633006   -2.9354977  
O    9.7244548   -1.5632855   -1.8649635  
C    9.1704848    0.0013079   -3.6525716  
H    8.0077227    1.9294159   -5.7350030  
H   12.1355976    1.7446502   -6.5275806  
H   13.0047737   -0.0755555   -4.5182939  
H   11.7438677   -1.9970885   -1.8358444  
H    8.7762897   -1.4881710   -1.7202450  
H   10.0086360    2.8063269   -7.3149273  
C    6.6781257    0.0000527   -4.1292994  
C    7.7444182    0.0009684   -3.2958728  
C    7.1743128    0.0014028   -1.9574107  
C    5.7117403    0.0007372   -2.1752743  
N    5.4148486   -0.0001362   -3.4464332  
C    4.7795901    0.0008674   -1.0815733  
C    5.2855489    0.0012392    0.1727554  
O    4.5324883    0.0014071    1.2858322  
C    6.7567497    0.0015423    0.4252006  
O    7.1465030    0.0019993    1.5928107  
C    7.6924431    0.0014449   -0.7133963  
H    5.1738992    0.0016453    2.0191430  
H    8.7505412    0.0015571   -0.4883252  
H    6.6781258   -0.0005126   -5.2077115  
C    3.3321168    0.0004716   -1.3379341  
C    2.6974177    0.0000118   -2.5332316  
C    1.2800432   -0.0002116   -2.2052842  
C    1.2395033    0.0000644   -0.7271298  
N    2.4394059    0.0005460   -0.2131041  
C    0.0000000    0.0000000    0.0000000  
C   -1.1468704    0.0000635   -0.7169542  
O   -2.3742206    0.0000074   -0.1695488  
C   -1.1388774    0.0001608   -2.2096352  
O   -2.2206238    0.0000906   -2.7970409  
C    0.1454514    0.0001818   -2.9324241  
H    3.1367978   -0.0000649   -3.5160956  
H   -2.9844350    0.0001027   -0.9290164  
H    0.1083567    0.0003684   -4.0135594  
C    0.0000000    0.0000000    1.4700000  
C    1.0662921    0.0000102    2.3034270  
C    0.4961870   -0.0000064    3.6418889  
C   -0.9663858    0.0000850    3.4240247  
N   -1.2632773    0.0000084    2.1528658  
C   -1.8985362    0.0000517    4.5177257  
C   -1.3925775   -0.0004564    5.7720543  
O   -2.1456383   -0.0005410    6.8851312  
C    0.0786232   -0.0009323    6.0245000  
O    0.4683759   -0.0012588    7.1921102  
C    1.0143166   -0.0008442    4.8859032  
H    2.1107198   -0.0000632    2.0421868  
H   -2.9622183    0.0003270    4.3293377  
H   -1.5042274   -0.0009692    7.6184419  
H    2.0724152   -0.0013148    5.1109744  
