66

C    0.8450880   -0.9927590   -7.4038302  
C    1.8680684   -1.8811585   -7.1656624  
C    2.5078502   -2.1246635   -8.4170552  
C    1.8260709   -1.3505826   -9.3906583  
N    0.8209540   -0.6769623   -8.7421272  
C    2.1879729   -1.3445979  -10.7411324  
C    3.2578037   -2.1341971  -11.1155290  
O    3.6536416   -2.1653984  -12.4214200  
C    3.9504302   -2.9138430  -10.1588488  
O    4.9925482   -3.6466632  -10.6882891  
C    3.5937856   -2.9204433   -8.8264501  
H    2.1212528   -2.3027884   -6.2079995  
H    0.1759505   -0.0404847   -9.1743858  
H    1.6723278   -0.7569583  -11.4881212  
H    4.4057733   -2.7701452  -12.4643721  
H    5.4068834   -4.1441727   -9.9766617  
H    4.1430199   -3.5279871   -8.1167245  
C   -0.2041199   -0.6662882   -5.1294034  
C   -1.2456329    0.0471727   -4.5828766  
C   -1.8465390    0.7861438   -5.6446831  
C   -1.1230376    0.4806688   -6.8258504  
N   -0.1315496   -0.4025058   -6.4771798  
C   -1.4397841    1.0325680   -8.0707875  
C   -2.5065205    1.9085701   -8.1243731  
O   -2.8591344    2.4760486   -9.3146016  
C   -3.2403712    2.2261136   -6.9567066  
O   -4.2735435    3.1142241   -7.1738689  
C   -2.9282857    1.6822358   -5.7281600  
H   -0.8922028    0.8039213   -8.9747112  
H   -3.6170348    3.0463499   -9.1312772  
H   -4.7175607    3.2751089   -6.3356753  
H   -3.5084503    1.9444471   -4.8511580  
H    0.4936104   -1.3413505   -4.6641913  
C    1.1243410    0.0099923   -0.7919003  
C    0.7474076    0.0234544   -2.1148543  
C   -0.6787381    0.0234490   -2.1414700  
C   -1.1201745    0.0098592   -0.7935546  
N    0.0000000    0.0000000    0.0000000  
C   -2.4730816    0.0063709   -0.4408240  
C   -3.3971958    0.0170982   -1.4675058  
O   -4.7313517    0.0146259   -1.1793471  
C   -2.9763648    0.0303504   -2.8186324  
O   -4.0166480    0.0395118   -3.7247624  
C   -1.6418562    0.0335260   -3.1673481  
H    1.4178717    0.0310972   -2.9571209  
H   -2.8160166   -0.0041111    0.5845966  
H   -5.1938818    0.0230867   -2.0274384  
H   -3.6464675    0.0482293   -4.6127343  
H    2.1062467    0.0052819   -0.3505407  
C    0.8576279    0.7185626    2.2703808  
C    0.0000000    0.0000000    1.4700000  
C   -0.8668858   -0.7285659    2.3373528  
C   -0.4876752   -0.4117774    3.6669281  
N    0.5635254    0.4678311    3.5902241  
C   -1.1297612   -0.9515493    4.7854808  
C   -2.1738724   -1.8268314    4.5576857  
O   -2.8357962   -2.3827064    5.6140350  
C   -2.5667212   -2.1555554    3.2384331  
O   -3.6226318   -3.0413663    3.1773122  
C   -1.9335634   -1.6236449    2.1344818  
H    1.0363952    0.8769718    4.3757045  
H   -0.8454472   -0.7142436    5.8013813  
H   -3.5178062   -2.9546422    5.2385129  
H   -3.8247440   -3.2102924    2.2519915  
H   -2.2566033   -1.8942483    1.1360343  
H    1.6567807    1.3889844    2.0042067  
