64

C    5.8128485   -1.0429396   -6.3269464  
C    6.7897135   -1.9273467   -5.9319440  
C    7.6229989   -2.1609995   -7.0658038  
C    7.1013372   -1.3852997   -8.1326150  
N    6.0014172   -0.7202376   -7.6504473  
C    7.6747273   -1.3703669   -9.4076804  
C    8.7953204   -2.1525159   -9.6093974  
O    9.3952903   -2.1748298  -10.8351851  
C    9.3304313   -2.9336361   -8.5575789  
O   10.4481580   -3.6583342   -8.9165286  
C    8.7651282   -2.9490626   -7.2995172  
H    6.8887942   -2.3527082   -4.9479498  
H    5.4302019   -0.0847962   -8.1776175  
H    7.2818717   -0.7814472  -10.2250175  
H   10.1481397   -2.7754956  -10.7597976  
H   10.7461429   -4.1574577   -8.1499226  
H    9.1972215   -3.5575188   -6.5136705  
C    4.4128414   -0.7149979   -4.2439387  
C    4.6970063   -0.4625593   -5.5660551  
C    3.7103223    0.4538790   -6.0363695  
C    2.8434719    0.7272307   -4.9474365  
N    3.2973506   -0.0000934   -3.8752374  
C    1.7511546    1.5939643   -5.0494426  
C    1.5300663    2.1959478   -6.2729265  
O    0.4778136    3.0514060   -6.4277511  
C    2.3836166    1.9355788   -7.3713236  
O    2.0311536    2.6110215   -8.5214935  
C    3.4612423    1.0804287   -7.2714882  
H    1.0866415    1.8063768   -4.2233040  
H    0.5053734    3.3550509   -7.3444330  
H    2.6575938    2.3797588   -9.2140928  
H    4.0973668    0.9003528   -8.1302064  
H    4.9167629   -1.3495500   -3.5351614  
C    3.3321174    0.0004714   -1.3379332  
C    2.6974186    0.0000115   -2.5332308  
C    1.2800441   -0.0002119   -2.2052838  
C    1.2395035    0.0000643   -0.7271293  
N    2.4394063    0.0005458   -0.2131034  
C    0.0000000    0.0000000    0.0000000  
C   -1.1468701    0.0000634   -0.7169542  
O   -2.3742201    0.0000072   -0.1695492  
C   -1.1388767    0.0001606   -2.2096354  
O   -2.2206229    0.0000903   -2.7970413  
C    0.1454526    0.0001815   -2.9324239  
H   -2.9844344    0.0001023   -0.9290168  
H    0.1083580    0.0003680   -4.0135594  
H    4.3940040    0.0007617   -1.1498630  
C    2.5285572    2.1210227    2.9438989  
C    1.9331703    1.6216660    4.0790748  
C    0.8903039    0.7472258    3.6520102  
C    0.8972198    0.7527806    2.2336141  
N    1.9028376    1.5986179    1.8362361  
C    0.0000000    0.0000000    1.4700000  
C   -0.9207814   -0.7726952    2.1506477  
O   -1.8198395   -1.5274828    1.4542253  
C   -0.9436862   -0.7911793    3.5655508  
O   -1.9197945   -1.6098497    4.0950179  
C   -0.0590329   -0.0485852    4.3195194  
H    2.2150357    1.8593692    5.0905303  
H    2.1533708    1.7953814    0.8841339  
H   -2.3621246   -1.9821033    2.1118817  
H   -1.8668290   -1.5649508    5.0545920  
H   -0.1007624   -0.0827977    5.4019087  
H    3.3491200    2.8096064    2.8367138  
