62

C    7.3114481   -2.9366623   -4.2807876  
C    7.7254679   -3.6351837   -3.1703272  
C    8.8759910   -4.3852953   -3.5553338  
C    9.1189867   -4.1016979   -4.9237094  
N    8.1496033   -3.2202774   -5.3335980  
C   10.1790747   -4.6693018   -5.6370320  
C   11.0091563   -5.5388027   -4.9565119  
O   12.0597477   -6.1209565   -5.6048719  
C   10.7828050   -5.8345911   -3.5911952  
O   11.6961702   -6.7187762   -3.0551694  
C    9.7370389   -5.2752130   -2.8869264  
H    7.2553406   -3.6083376   -2.2022091  
H    8.0717666   -2.8307738   -6.2556650  
H   10.3695776   -4.4573565   -6.6800996  
H   12.5029429   -6.6834625   -4.9564667  
H   11.4720346   -6.8646093   -2.1309941  
H    9.5886246   -5.5208865   -1.8418928  
C    6.1812375   -2.0122607   -4.4510957  
C    5.2702188   -1.6303464   -3.5260198  
C    4.3856204   -0.7126512   -4.2273193  
C    4.9238573   -0.6545505   -5.6033678  
N    5.9763887   -1.4143802   -5.7405728  
C    4.3191911    0.1574940   -6.6231955  
C    3.2262696    0.8784133   -6.2838834  
O    2.5612872    1.6787216   -7.1343811  
C    2.6590324    0.8406139   -4.9036757  
O    1.6623426    1.5226358   -4.6656076  
C    3.2973506   -0.0000934   -3.8752374  
H    5.2063280   -1.9339561   -2.4950908  
H    4.7337770    0.1810798   -7.6204273  
H    1.8346683    2.0540003   -6.6049059  
C    3.3321174    0.0004714   -1.3379332  
C    2.6974186    0.0000115   -2.5332308  
C    1.2800441   -0.0002119   -2.2052838  
C    1.2395035    0.0000643   -0.7271293  
N    2.4394063    0.0005458   -0.2131034  
C    0.0000000    0.0000000    0.0000000  
C   -1.1468701    0.0000634   -0.7169542  
O   -2.3742201    0.0000072   -0.1695492  
C   -1.1388767    0.0001606   -2.2096354  
O   -2.2206229    0.0000903   -2.7970413  
C    0.1454526    0.0001815   -2.9324239  
H   -2.9844344    0.0001023   -0.9290168  
H    0.1083580    0.0003680   -4.0135594  
H    4.3940040    0.0007617   -1.1498630  
C    2.5311839    2.1237619    3.0120429  
C    1.9795631    1.6616747    1.8395852  
C    0.9223175    0.7739173    2.1983588  
C    0.8753926    0.7337535    3.6154372  
N    1.8668922    1.5631002    4.0777464  
C   -0.0496243   -0.0427881    4.3197917  
C   -0.9437528   -0.7922060    3.5801400  
O   -1.8685244   -1.5680278    4.2172520  
C   -0.9124520   -0.7656372    2.1655264  
O   -1.8671164   -1.5663939    1.5732860  
C    0.0000000    0.0000000    1.4700000  
H    2.3005065    1.9304404    0.8477417  
H    2.0679347    1.7444845    5.0445261  
H   -0.0904770   -0.0778569    5.3997470  
H   -2.3849669   -2.0011402    3.5251786  
H   -1.7775064   -1.4909735    0.6183591  
H    3.3468514    2.8078103    3.1724291  
