62

C    9.8692091    0.7109090   -0.8836535  
C   11.2203851    0.4607331   -0.9484817  
C   11.5266410   -0.4482600    0.1072353  
C   10.3123196   -0.7196124    0.7882058  
N    9.3262641    0.0016992    0.1620910  
C   10.2379302   -1.5793694    1.8882388  
C   11.4107017   -2.1763041    2.3083032  
O   11.3948947   -3.0248706    3.3772740  
C   12.6322348   -1.9178246    1.6420732  
O   13.7115428   -2.5876382    2.1803912  
C   12.7064123   -1.0695547    0.5569640  
H   11.9016881    0.8824752   -1.6674763  
H    9.3155644   -1.7902233    2.4116729  
H   12.3045552   -3.3259122    3.5003891  
H   14.4959320   -2.3581053    1.6727955  
H   13.6563984   -0.8907659    0.0670263  
H    9.2500658    1.3402419   -1.4997386  
C    5.6664810    0.0014065   -2.2647026  
C    4.7390840    0.0009613   -1.2727298  
C    5.4604955    0.0006395   -0.0219695  
C    6.8944817    0.0009654   -0.3690623  
N    6.9515101    0.0010264   -1.7437031  
C    7.9048604    0.0011994    0.5369398  
C    7.5567542    0.0008993    1.9480945  
O    8.3942809    0.0010144    2.8407591  
C    6.0443622    0.0002997    2.3385745  
O    5.7391076   -0.0002635    3.5235135  
C    5.0461778    0.0003723    1.2720471  
H    4.0011833    0.0001602    1.5508123  
H    5.5192864    0.0017636   -3.3325147  
H    7.7964707    0.0027872   -2.2850761  
C    3.2798077    0.0005856   -1.4499661  
C    2.5571132    0.0005565   -2.5996564  
C    1.1637425    0.0001547   -2.2210366  
C    1.1336959   -0.0000200   -0.7459475  
N    2.4483509   -0.0001429   -0.3402730  
C    0.0000000    0.0000000    0.0000000  
C   -1.2757370   -0.0000187   -0.6964411  
O   -2.3524597   -0.0000640   -0.1142306  
C   -1.2676502   -0.0000874   -2.2584078  
O   -2.3355774   -0.0004102   -2.8557287  
C    0.0181551    0.0001758   -2.9516297  
H    2.9547342    0.0006074   -3.5989118  
H    0.0150776    0.0003317   -4.0331632  
H    2.7563626    0.0012823    0.6148051  
C    2.5285572    2.1210227    2.9438989  
C    1.9331703    1.6216660    4.0790748  
C    0.8903039    0.7472258    3.6520102  
C    0.8972198    0.7527806    2.2336141  
N    1.9028376    1.5986179    1.8362361  
C    0.0000000    0.0000000    1.4700000  
C   -0.9207814   -0.7726952    2.1506477  
O   -1.8198395   -1.5274828    1.4542253  
C   -0.9436862   -0.7911793    3.5655508  
O   -1.9197945   -1.6098497    4.0950179  
C   -0.0590329   -0.0485852    4.3195194  
H    2.2150357    1.8593692    5.0905303  
H    2.1533708    1.7953814    0.8841339  
H   -2.3621246   -1.9821033    2.1118817  
H   -1.8668290   -1.5649508    5.0545920  
H   -0.1007624   -0.0827977    5.4019087  
H    3.3491200    2.8096064    2.8367138  
