62

C    0.9407939   -0.7075072   -5.2230667  
C    0.6134854   -0.4569313   -6.5355259  
C   -0.4865820    0.4509916   -6.5242557  
C   -0.7892287    0.7213088   -5.1651160  
N    0.0950450    0.0004357   -4.4015596  
C   -1.8220586    1.5798549   -4.7765919  
C   -2.5626678    2.1766203   -5.7783637  
O   -3.5826128    3.0240229   -5.4548932  
C   -2.2762265    1.9191613   -7.1401584  
O   -3.1032315    2.5886548   -8.0183305  
C   -1.2576383    1.0720866   -7.5241744  
H    1.1062029   -0.8777272   -7.3952668  
H   -2.0578699    1.7899159   -3.7424409  
H   -3.9627903    3.3251533   -6.2903879  
H   -2.8428304    2.3598639   -8.9157990  
H   -1.0618897    0.8940609   -8.5751109  
H    1.7097005   -1.3363231   -4.8079380  
C    3.3321174    0.0004722   -1.3379336  
C    2.6974183    0.0000122   -2.5332313  
C    1.2800441   -0.0002113   -2.2052840  
C    1.2395036    0.0000646   -0.7271298  
N    2.4394063    0.0005463   -0.2131037  
C    0.0000000    0.0000000    0.0000000  
C   -1.1468699    0.0000637   -0.7169543  
O   -2.3742201    0.0000076   -0.1695489  
C   -1.1388769    0.0001611   -2.2096357  
O   -2.2206234    0.0000908   -2.7970412  
C    0.1454523    0.0001820   -2.9324241  
H    3.1367987   -0.0000643   -3.5160945  
H   -2.9844345    0.0001025   -0.9290168  
C    6.6781263    0.0000534   -4.1292985  
C    7.7444184    0.0009691   -3.2958721  
C    7.1743136    0.0014033   -1.9574103  
C    5.7117410    0.0007377   -2.1752739  
N    5.4148493   -0.0001355   -3.4464328  
C    4.7795905    0.0008679   -1.0815729  
C    5.2855493    0.0012395    0.1727556  
O    4.5324893    0.0014073    1.2858327  
C    6.7567506    0.0015425    0.4252011  
O    7.1465034    0.0019991    1.5928110  
C    7.6924435    0.0014451   -0.7133960  
H    8.7888465    0.0012176   -3.5571129  
H    5.1739002    0.0016453    2.0191432  
H    8.7505430    0.0015574   -0.4883248  
H    6.6781264   -0.0005117   -5.2077111  
C    2.5285572    2.1210227    2.9438989  
C    1.9331703    1.6216660    4.0790748  
C    0.8903039    0.7472258    3.6520102  
C    0.8972198    0.7527806    2.2336141  
N    1.9028376    1.5986179    1.8362361  
C    0.0000000    0.0000000    1.4700000  
C   -0.9207814   -0.7726952    2.1506477  
O   -1.8198395   -1.5274828    1.4542253  
C   -0.9436862   -0.7911793    3.5655508  
O   -1.9197945   -1.6098497    4.0950179  
C   -0.0590329   -0.0485852    4.3195194  
H    2.2150357    1.8593692    5.0905303  
H    2.1533708    1.7953814    0.8841339  
H   -2.3621246   -1.9821033    2.1118817  
H   -1.8668290   -1.5649508    5.0545920  
H   -0.1007624   -0.0827977    5.4019087  
H    3.3491200    2.8096064    2.8367138  
