62

C    6.8742257    0.0003236   -4.0661425  
C    5.5942423    0.0007869   -3.5620507  
C    5.7067593    0.0007579   -2.1401013  
C    7.0913510    0.0005508   -1.8321526  
N    7.7720039   -0.0016612   -3.0243459  
C    7.5742847    0.0007721   -0.5200693  
C    6.6425082    0.0015173    0.4997194  
O    7.0593434    0.0021142    1.7994356  
C    5.2567329    0.0013592    0.2125911  
O    4.4562654    0.0017482    1.3362438  
C    4.7795897    0.0008677   -1.0815734  
H    4.6906033    0.0000011   -4.1472244  
H    8.7711572    0.0082510   -3.1221991  
H    8.6283018    0.0004721   -0.2787183  
H    6.2603306    0.0022789    2.3424296  
H    3.5363980    0.0016364    1.0543799  
H    7.2178042   -0.0001938   -5.0863936  
C    3.3321166    0.0004717   -1.3379342  
C    2.6974176    0.0000121   -2.5332317  
C    1.2800432   -0.0002115   -2.2052842  
C    1.2395033    0.0000645   -0.7271297  
N    2.4394059    0.0005461   -0.2131042  
C    0.0000000    0.0000000    0.0000000  
C   -1.1468704    0.0000636   -0.7169540  
O   -2.3742206    0.0000073   -0.1695488  
C   -1.1388774    0.0001610   -2.2096351  
O   -2.2206238    0.0000908   -2.7970408  
C    0.1454514    0.0001820   -2.9324241  
H    3.1367977   -0.0000646   -3.5160953  
H   -2.9844351    0.0001027   -0.9290163  
C    0.0950440    0.0004357   -4.4015596  
C    1.1321301    0.0004168   -5.2710603  
C    0.5164635    0.0007459   -6.5891857  
C   -0.9377784    0.0008260   -6.3212966  
N   -1.1909063    0.0007257   -5.0407053  
C   -1.9068844    0.0011813   -7.3823906  
C   -1.4442351    0.0018335   -8.6533313  
O   -2.2350211    0.0022179   -9.7399308  
C    0.0174440    0.0021426   -8.9560765  
O    0.3669293    0.0026149  -10.1363649  
C    0.9916303    0.0017243   -7.8502353  
H    2.1849019    0.0002958   -5.0457877  
H   -2.9634810    0.0010256   -7.1576391  
H   -1.6191332    0.0026809  -10.4948046  
H    2.0413888    0.0020825   -8.1114568  
C    0.8576279    0.7185626    2.2703808  
C    0.0000000    0.0000000    1.4700000  
C   -0.8668858   -0.7285659    2.3373528  
C   -0.4876752   -0.4117774    3.6669281  
N    0.5635254    0.4678311    3.5902241  
C   -1.1297612   -0.9515493    4.7854808  
C   -2.1738724   -1.8268314    4.5576857  
O   -2.8357962   -2.3827064    5.6140350  
C   -2.5667212   -2.1555554    3.2384331  
O   -3.6226318   -3.0413663    3.1773122  
C   -1.9335634   -1.6236449    2.1344818  
H    1.0363952    0.8769718    4.3757045  
H   -0.8454472   -0.7142436    5.8013813  
H   -3.5178062   -2.9546422    5.2385129  
H   -3.8247440   -3.2102924    2.2519915  
H   -2.2566033   -1.8942483    1.1360343  
H    1.6567807    1.3889844    2.0042067  
