64

C   -0.1496416   -0.0015610   -4.3176964  
C    0.8570957   -0.0030495   -5.2552170  
C    0.2320386   -0.0039081   -6.5373647  
C   -1.1692064   -0.0025865   -6.3172808  
N   -1.3663827   -0.0031296   -4.9587018  
C   -2.0987838   -0.0026545   -7.3616348  
C   -1.6048140   -0.0037757   -8.6516622  
O   -2.4683515   -0.0035428   -9.7086931  
C   -0.2100863   -0.0054783   -8.8915542  
O    0.1236728   -0.0068617  -10.2301905  
C    0.7075436   -0.0056854   -7.8617573  
H    1.9121943   -0.0045706   -5.0413047  
H   -2.2604162    0.0081044   -4.5020192  
H   -3.1680130   -0.0017956   -7.2005417  
H   -1.9234604   -0.0047523  -10.5064137  
H    1.0828822   -0.0079365  -10.3044895  
C    3.3003543    0.0005277   -1.4738984  
C    2.5232812    0.0003499   -2.6090751  
C    1.1623199   -0.0001318   -2.1820105  
C    1.1711882    0.0000584   -0.7636141  
N    2.4852300   -0.0014919   -0.3662360  
C    0.0000000    0.0000000    0.0000000  
C   -1.2020385    0.0000521   -0.6806475  
O   -2.3759251    0.0003494    0.0157743  
C   -1.2314656   -0.0005111   -2.0955507  
O   -2.5054392   -0.0008036   -2.6250179  
C   -0.0764517   -0.0007271   -2.8495198  
H    2.8919953   -0.0005617   -3.6205304  
H    2.8036265    0.0088181    0.5858659  
H   -3.0835640    0.0000348   -0.6418820  
H   -2.4360052   -0.0011525   -3.5845925  
H    4.3715548    0.0004896   -1.3667136  
C    4.1585660   -2.1320112   -5.9752669  
C    2.9006604   -1.6686495   -6.2841972  
C    3.0440566   -0.7820637   -7.3923504  
C    4.4238268   -0.7438952   -7.7190057  
N    5.0723046   -1.5732510   -6.8379475  
C    4.9320080    0.0310797   -8.7658842  
C    4.0308646    0.7809534   -9.4965058  
O    4.4731822    1.5553020  -10.5298268  
C    2.6504331    0.7563666   -9.1856650  
O    1.8818565    1.5573360  -10.0048620  
C    2.1484304   -0.0077243   -8.1528609  
H    1.9916857   -1.9358349   -5.7729540  
H    6.0595262   -1.7558480   -6.8321744  
H    5.9825279    0.0646246   -9.0198223  
H    3.6930781    1.9890447  -10.8993795  
H    0.9634945    1.4832972   -9.7278541  
H    4.4764590   -2.8157620   -5.2069000  
C    2.4951002    2.0940188    2.9809380  
C    1.9440701    1.6314916    1.8291961  
C    0.8759964    0.7350050    2.2038498  
C    0.8497377    0.7130254    3.6788474  
N    1.8560616    1.5571714    4.0882609  
C   -0.0205033   -0.0168748    4.4215661  
C   -0.9962600   -0.8356168    3.7214979  
O   -1.8224391   -1.5286685    4.3006425  
C   -0.9864710   -0.8277881    2.1595606  
O   -1.8030528   -1.5133726    1.5592035  
C    0.0000000    0.0000000    1.4700000  
H    2.2509283    1.8888011    0.8310761  
H   -0.0229599   -0.0187323    5.5027230  
H    3.3143982    2.7817323    3.1139444  
H    2.0889452    1.7545833    5.0442112  
