62

C    0.0000000    0.0000000    0.0000000  
C   -1.0390147   -0.1658433   -0.8862349  
C   -0.4856762   -0.0768739   -2.1979136  
C    0.9071445    0.1455283   -2.0478681  
N    1.1681643    0.1887663   -0.7007909  
C    1.7725738    0.2839392   -3.1372085  
C    1.2219763    0.1959356   -4.4010421  
O    2.0217073    0.3234872   -5.4997575  
C   -0.1654501   -0.0252260   -4.5711965  
O   -0.5604855   -0.0880169   -5.8915553  
C   -1.0198557   -0.1615970   -3.4969897  
H   -2.0692252   -0.3295775   -0.6200569  
H    2.0739892    0.3230793   -0.2891817  
H    1.4450377    0.2316700   -6.2693589  
H   -1.5102079   -0.2394472   -5.9180050  
H   -2.0781624   -0.3301068   -3.6584465  
C    4.7272234   -1.3784698   -0.3461907  
C    5.8379856   -0.7305210   -0.7825901  
C    5.4296301    0.1109514   -1.8825927  
C    3.9795101   -0.1013769   -2.0524723  
N    3.6152868   -1.0154848   -1.0908915  
C    3.2169408    0.5147724   -2.9908496  
C    3.8679032    1.4492619   -3.8939074  
O    3.2677163    2.0542236   -4.7725981  
C    5.4028569    1.6892544   -3.7322716  
O    5.9619144    2.4735413   -4.4869964  
C    6.1175431    0.9666530   -2.6830224  
H    6.8301977   -0.8307500   -0.3799947  
H    7.1801082    1.1385921   -2.5775863  
H    2.6846499   -1.3636169   -0.9503001  
C    5.6248555   -2.7918442    1.5603753  
C    5.1756589   -3.6891085    2.4753694  
C    3.7581513   -3.8463838    2.2500444  
C    3.4158926   -2.9608691    1.1206582  
N    4.5911424   -2.3498746    0.7486858  
C    2.1695884   -2.8237835    0.6013911  
C    1.0934317   -3.6000340    1.1945666  
O   -0.0634291   -3.5462821    0.7982270  
C    1.4330319   -4.5441034    2.3917334  
O    0.5351618   -5.2023581    2.8994642  
C    2.8141410   -4.6072103    2.8633345  
H    5.7695014   -4.1841477    3.2229663  
H    1.9398864   -2.1687279   -0.2274930  
H    3.0409982   -5.2634621    3.6925471  
H    6.6240453   -2.4161296    1.4108824  
C    0.0000000    0.0000000    1.4700000  
C    1.0521667    0.0011902    2.3562342  
C    0.4917218    0.0011957    3.6679131  
C   -0.9187428   -0.0003148    3.5178682  
N   -1.1833171    0.0009411    2.1707914  
C   -1.7951701   -0.0010350    4.6072090  
C   -1.2375837   -0.0005224    5.8710424  
O   -2.0474215   -0.0015360    6.9697579  
C    0.1673580    0.0013566    6.0411963  
O    0.5673524    0.0020687    7.3615553  
C    1.0325770    0.0023412    4.9669890  
H    2.0953057    0.0030649    2.0900562  
H   -2.0989778   -0.0102372    1.7591824  
H   -2.8710934   -0.0020419    4.4995513  
H   -1.4634884   -0.0006497    7.7393593  
H    1.5290710    0.0033153    7.3880045  
H    2.1042148    0.0039609    5.1284455  
