62

C    9.9741755    0.7087175   -0.8661472  
C   11.2007485    0.4578376   -0.2960198  
C   10.9810789   -0.4507201    0.7814161  
C    9.5892157   -0.7210937    0.8206541  
N    9.0071987    0.0003575   -0.1919580  
C    9.0118882   -1.5802025    1.7605552  
C    9.8550385   -2.1774839    2.6773594  
O    9.3440281   -3.0254480    3.6169537  
C   11.2464361   -1.9199783    2.6545287  
O   11.9518476   -2.5900264    3.6326774  
C   11.8166361   -1.0723481    1.7277488  
H   12.1383199    0.8788433   -0.6165010  
H    7.9517882   -1.7903095    1.7958396  
H   10.0922678   -3.3268711    4.1485063  
H   12.8824084   -2.3611634    3.5473394  
H   12.8856204   -0.8943013    1.7349648  
H    9.7123869    1.3380143   -1.6994606  
C    6.8742260    0.0004673   -4.0661423  
C    5.5942422    0.0008993   -3.5620504  
C    5.7067592    0.0008100   -2.1401013  
C    7.0913509    0.0006002   -1.8321528  
N    7.7720040   -0.0015555   -3.0243458  
C    7.5742853    0.0007687   -0.5200693  
C    6.6425085    0.0014633    0.4997193  
O    7.0593435    0.0020074    1.7994354  
C    5.2567325    0.0013069    0.2125910  
O    4.4562658    0.0016418    1.3362446  
C    4.7795901    0.0008674   -1.0815733  
H    4.6906028    0.0001318   -4.1472243  
H    8.7711574    0.0083685   -3.1221988  
H    6.2603303    0.0021429    2.3424297  
H    3.5363981    0.0015351    1.0543802  
H    7.2178046   -0.0000038   -5.0863935  
C    3.3321168    0.0004716   -1.3379341  
C    2.6974177    0.0000118   -2.5332316  
C    1.2800432   -0.0002116   -2.2052842  
C    1.2395033    0.0000644   -0.7271298  
N    2.4394059    0.0005460   -0.2131041  
C    0.0000000    0.0000000    0.0000000  
C   -1.1468704    0.0000635   -0.7169542  
O   -2.3742206    0.0000074   -0.1695488  
C   -1.1388774    0.0001608   -2.2096352  
O   -2.2206238    0.0000906   -2.7970409  
C    0.1454514    0.0001818   -2.9324241  
H    3.1367978   -0.0000649   -3.5160956  
H   -2.9844350    0.0001027   -0.9290164  
H    0.1083567    0.0003684   -4.0135594  
C    2.5528530    2.1414826    2.8079335  
C    2.0663498    1.7338582    4.0032312  
C    0.9804344    0.8229586    3.6752840  
C    0.9495562    0.7966882    2.1971295  
N    1.8690446    1.5676019    1.6831036  
C    0.0000000    0.0000000    1.4700000  
C   -0.8785127   -0.7372425    2.1869543  
O   -1.8187535   -1.5261249    1.6395491  
C   -0.8723269   -0.7321790    3.6796354  
O   -1.7010379   -1.4274584    4.2670412  
C    0.1115397    0.0933559    4.4024240  
H    2.4028853    2.0163452    4.9860947  
H   -2.2861435   -1.9184361    2.3990168  
H    0.0832434    0.0693689    5.4835595  
H    3.3664920    2.8238276    2.6198634  
