62

C    0.0000000    0.0000000    0.0000000  
C   -1.0521656   -0.0014290   -0.8862350  
C   -0.4917216   -0.0000283   -2.1979133  
C    0.9187425    0.0019722   -2.0478675  
N    1.1833124    0.0038866   -0.7007905  
C    1.7951693    0.0034336   -3.1372079  
C    1.2375846    0.0025582   -4.4010416  
O    2.0474231    0.0035605   -5.4997563  
C   -0.1673574    0.0009400   -4.5711965  
O   -0.5673515    0.0006565   -5.8915555  
C   -1.0325771   -0.0002291   -3.4969897  
H   -2.0953060   -0.0021508   -0.6200574  
H    2.0989970   -0.0050122   -0.2891811  
H    2.8710913    0.0051049   -3.0295496  
H    1.4634900    0.0029932   -6.2693585  
H   -1.5290702   -0.0004909   -5.9180056  
C   -2.4861707   -0.0016505   -3.7159938  
C   -3.4897085   -0.0027923   -2.8011243  
C   -4.7313121   -0.0039615   -3.5381819  
C   -4.3662435   -0.0034327   -4.9676979  
N   -2.9909960   -0.0016257   -5.0074624  
C   -5.2594874   -0.0046151   -5.9893716  
C   -6.6749000   -0.0063107   -5.6590099  
O   -7.5569788   -0.0074028   -6.5076780  
C   -7.0843378   -0.0066455   -4.1516394  
O   -8.2730161   -0.0077615   -3.8612867  
C   -6.0304272   -0.0055499   -3.1401440  
H   -3.3734557   -0.0026306   -1.7319662  
H   -6.3222905   -0.0059955   -2.0987316  
H   -2.4390555   -0.0024289   -5.8455606  
C   -2.0994593   -2.0136881   -8.4064543  
C   -2.8623795   -1.6325865   -7.3556009  
C   -3.8427081   -0.7157707   -7.9167646  
C   -3.5161885   -0.6572365   -9.3577861  
N   -2.4952572   -1.4160749   -9.6507925  
C   -4.2672244    0.1541763  -10.2757407  
C   -5.2978548    0.8740772   -9.7768642  
O   -6.0832165    1.6737058  -10.5183777  
C   -5.6524470    0.8358171   -8.3273946  
O   -6.6030184    1.5169061   -7.9430085  
C   -4.8668228   -0.0042263   -7.4059574  
H   -2.7712168   -1.9361988   -6.3267254  
H   -4.0063284    0.1780993  -11.3237255  
H   -6.7229144    2.0483245   -9.8862379  
H   -1.2603187   -2.6910479   -8.4068709  
C    1.1188642   -0.0008217    2.2703808  
C    0.0000000    0.0000000    1.4700000  
C   -1.1323862   -0.0008904    2.3373528  
C   -0.6382662   -0.0019682    3.6669281  
N    0.7324016   -0.0038477    3.5902241  
C   -1.4770914   -0.0027325    4.7854808  
C   -2.8395474   -0.0020958    4.5576857  
O   -3.7039201   -0.0024443    5.6140350  
C   -3.3517868   -0.0013946    3.2384331  
O   -4.7300496   -0.0012389    3.1773122  
C   -2.5248543   -0.0009135    2.1344818  
H    1.3576314    0.0056174    4.3757045  
H   -1.1067570   -0.0036993    5.8013813  
H   -4.5940033   -0.0021850    5.2385129  
H   -4.9934601   -0.0007286    2.2519915  
H   -2.9462578   -0.0005617    1.1360343  
H    2.1619896   -0.0009344    2.0042067  
