64

C    9.5328807   -0.6607475   -3.2606457  
C   10.8686889   -0.3976675   -3.4578023  
C   10.9565338    0.5139721   -4.5513273  
C    9.6309864    0.7735656   -4.9842969  
N    8.7913859    0.0430120   -4.1805683  
C    9.3372787    1.6323275   -6.0478069  
C   10.4010628    2.2403385   -6.6856631  
O   10.1709410    3.0884764   -7.7300383  
C   11.7307162    1.9936830   -6.2685292  
O   12.6792612    2.6736508   -7.0042252  
C   12.0212228    1.1464026   -5.2196021  
H   11.6800612   -0.8127246   -2.8847435  
H    8.3291870    1.8342476   -6.3827415  
H   11.0367723    3.3981622   -8.0261705  
H   13.5490986    2.4517313   -6.6581908  
H   13.0496366    0.9768017   -4.9228186  
H    9.0504530   -1.2958257   -2.5375290  
C    5.5764488    0.0083482   -1.0736993  
C    6.7920324    0.0210898   -1.7176408  
C    6.5213447    0.0205731   -3.1181150  
C    5.1110770    0.0074286   -3.2694408  
N    4.5679461   -0.0016854   -2.0086701  
C    4.4845810    0.0036235   -4.5193514  
C    5.2965301    0.0135701   -5.6368565  
O    4.7370945    0.0107593   -6.8818617  
C    6.7056512    0.0263689   -5.5063537  
O    7.3755159    0.0347625   -6.7124026  
C    7.3243921    0.0298564   -4.2736030  
H    7.7553653    0.0285926   -1.2370925  
H    3.4102461   -0.0065222   -4.6414306  
H    5.4703963    0.0186807   -7.5107261  
H    8.3210779    0.0432149   -6.5350766  
H    5.3490393    0.0041782   -0.0214509  
C    3.1301149   -0.0010311   -1.7028252  
C    2.5367768   -0.0002767   -0.4864665  
C    1.1089904    0.0001028   -0.7656183  
C    1.0177872   -0.0004148   -2.2415132  
N    2.1993578   -0.0011611   -2.7963820  
C   -0.2459209   -0.0002877   -2.9257118  
C   -1.3675319   -0.0000605   -2.1698524  
O   -2.6129313    0.0000867   -2.6748490  
C   -1.3083584    0.0000910   -0.6783232  
O   -2.3693261    0.0004206   -0.0541692  
C    0.0000000    0.0000000    0.0000000  
H    3.0096017   -0.0001007    0.4807525  
H   -0.2829630   -0.0004687   -4.0053125  
H   -3.1967441    0.0002094   -1.8949034  
C    2.5285572    2.1210227    2.9438989  
C    1.9331703    1.6216660    4.0790748  
C    0.8903039    0.7472258    3.6520102  
C    0.8972198    0.7527806    2.2336141  
N    1.9028376    1.5986179    1.8362361  
C    0.0000000    0.0000000    1.4700000  
C   -0.9207814   -0.7726952    2.1506477  
O   -1.8198395   -1.5274828    1.4542253  
C   -0.9436862   -0.7911793    3.5655508  
O   -1.9197945   -1.6098497    4.0950179  
C   -0.0590329   -0.0485852    4.3195194  
H    2.2150357    1.8593692    5.0905303  
H    2.1533708    1.7953814    0.8841339  
H   -2.3621246   -1.9821033    2.1118817  
H   -1.8668290   -1.5649508    5.0545920  
H   -0.1007624   -0.0827977    5.4019087  
H    3.3491200    2.8096064    2.8367138  
