64

C    2.6246601   -1.8279993   -7.6657567  
C    3.7251987   -2.6345427   -7.8411688  
C    4.1055905   -2.5275720   -9.2117381  
C    3.1929323   -1.6339017   -9.8284512  
N    2.3058079   -1.2292472   -8.8620761  
C    3.2667861   -1.2923426  -11.1822133  
C    4.2806125   -1.8631045  -11.9269051  
O    4.3990135   -1.5638697  -13.2533484  
C    5.2006924   -2.7573007  -11.3296760  
O    6.1520576   -3.2417315  -12.2035035  
C    5.1282713   -3.0949193   -9.9942757  
H    4.1952657   -3.2279440   -7.0757236  
H    1.5490880   -0.5845001   -9.0022796  
H    2.5741957   -0.6119774  -11.6582633  
H    5.1602328   -2.0618239  -13.5786975  
H    6.7330963   -3.8375427  -11.7207957  
H    5.8471313   -3.7828422   -9.5647638  
C    2.0510679   -2.1230737   -5.2235532  
C    1.1049648   -1.6611197   -4.3381417  
C    0.2551153   -0.7735540   -5.0624227  
C    0.7354331   -0.7333648   -6.3964410  
N    1.8277566   -1.5625123   -6.4593732  
C    0.1362322    0.0430188   -7.3929230  
C   -0.9681446    0.7922491   -7.0362952  
O   -1.5919784    1.5679113   -7.9702090  
C   -1.4620707    0.7656521   -5.7103443  
O   -2.5682025    1.5662136   -5.5130672  
C   -0.8712826    0.0001710   -4.7267111  
H    1.0365103   -1.9298485   -3.2979053  
H    0.4975509    0.0781061   -8.4114609  
H   -2.3277822    2.0009092   -7.5181346  
H   -2.8379852    1.4907868   -4.5926695  
H    2.8683640   -2.8069639   -5.0709720  
C    1.0965514    0.0001359   -0.8010305  
C    0.0000000    0.0000000    0.0000000  
C   -1.1546563    0.0001470   -0.8669513  
C   -0.6372014    0.0003519   -2.2486282  
N    0.7342871    0.0007337   -2.1395014  
C   -1.4147739    0.0001352   -3.3608717  
C   -2.8576049   -0.0001048   -3.1854462  
O   -3.6427779   -0.0002494   -4.1244907  
C   -3.4275840   -0.0000725   -1.7311666  
O   -4.6406831    0.0000333   -1.5710060  
C   -2.4891867   -0.0001091   -0.6116744  
H   -2.8919122   -0.0002918    0.3920866  
H    2.1388272    0.0000663   -0.5261648  
H    1.3735872   -0.0006099   -2.9130262  
C    0.8576279    0.7185626    2.2703808  
C    0.0000000    0.0000000    1.4700000  
C   -0.8668858   -0.7285659    2.3373528  
C   -0.4876752   -0.4117774    3.6669281  
N    0.5635254    0.4678311    3.5902241  
C   -1.1297612   -0.9515493    4.7854808  
C   -2.1738724   -1.8268314    4.5576857  
O   -2.8357962   -2.3827064    5.6140350  
C   -2.5667212   -2.1555554    3.2384331  
O   -3.6226318   -3.0413663    3.1773122  
C   -1.9335634   -1.6236449    2.1344818  
H    1.0363952    0.8769718    4.3757045  
H   -0.8454472   -0.7142436    5.8013813  
H   -3.5178062   -2.9546422    5.2385129  
H   -3.8247440   -3.2102924    2.2519915  
H   -2.2566033   -1.8942483    1.1360343  
H    1.6567807    1.3889844    2.0042067  
