62

C   -1.1241199    0.0244224   -0.7919008  
C   -0.7477746   -0.0005692   -2.1148548  
C    0.6777034   -0.0442103   -2.1414696  
C    1.1193483   -0.0441370   -0.7935541  
N    0.0000000    0.0000000    0.0000000  
C    2.4717285   -0.0820553   -0.4408233  
C    3.3950815   -0.1210595   -1.4675053  
O    4.7286882   -0.1594198   -1.1793457  
C    2.9740430   -0.1214265   -2.8186317  
O    4.0135577   -0.1624207   -3.7247607  
C    1.6400622   -0.0837583   -3.1673477  
H    2.8148237   -0.0820737    0.5845983  
H    5.1907431   -0.1820321   -2.0274365  
H    3.6432842   -0.1598049   -4.6127330  
H    1.3477821   -0.0848745   -4.2109227  
H   -2.1054214    0.0591814   -0.3505415  
C   -1.6631522    0.0170180   -3.2649303  
C   -3.0204136    0.0587440   -3.2781792  
C   -3.4281067    0.0584657   -4.6633222  
C   -2.1882179    0.0128007   -5.4616839  
N   -1.1541417   -0.0102672   -4.5544665  
C   -2.1472025   -0.0014516   -6.8180832  
C   -3.4083916    0.0305297   -7.5398277  
O   -3.4769014    0.0210018   -8.7619224  
C   -4.7337293    0.0793276   -6.7146586  
O   -5.8016632    0.1068538   -7.3113333  
C   -4.6501815    0.0904328   -5.2563212  
H   -3.6626854    0.0867275   -2.4160205  
H   -5.5724212    0.1240874   -4.6923483  
H   -0.1798356   -0.0439915   -4.7924528  
C    1.5144637   -2.2499612   -6.0942721  
C    2.2895968   -1.8759963   -7.1387326  
C    1.4695802   -0.9466377   -7.9005490  
C    0.1959778   -0.8739582   -7.1527259  
N    0.2164104   -1.6357699   -6.0929075  
C   -0.8959096   -0.0473727   -7.5881854  
C   -0.7231754    0.6741182   -8.7190914  
O   -1.6574380    1.4872131   -9.2406957  
C    0.5505090    0.6223783   -9.4957585  
O    0.6377680    1.3055763  -10.5159776  
C    1.6557880   -0.2331778   -9.0285257  
H    3.2938419   -2.1917322   -7.3642943  
H   -1.2437492    1.8593346  -10.0404084  
H    2.5619861   -0.2427503   -9.6192404  
H    1.7596289   -2.9325857   -5.2962175  
C    2.5311839    2.1237619    3.0120429  
C    1.9795631    1.6616747    1.8395852  
C    0.9223175    0.7739173    2.1983588  
C    0.8753926    0.7337535    3.6154372  
N    1.8668922    1.5631002    4.0777464  
C   -0.0496243   -0.0427881    4.3197917  
C   -0.9437528   -0.7922060    3.5801400  
O   -1.8685244   -1.5680278    4.2172520  
C   -0.9124520   -0.7656372    2.1655264  
O   -1.8671164   -1.5663939    1.5732860  
C    0.0000000    0.0000000    1.4700000  
H    2.3005065    1.9304404    0.8477417  
H    2.0679347    1.7444845    5.0445261  
H   -0.0904770   -0.0778569    5.3997470  
H   -2.3849669   -2.0011402    3.5251786  
H   -1.7775064   -1.4909735    0.6183591  
H    3.3468514    2.8078103    3.1724291  
