62

C    0.0000000    0.0000000    0.0000000  
C    0.6154222    0.8534110   -0.8862352  
C    0.2881311    0.3984604   -2.1979138  
C   -0.5367946   -0.7456160   -2.0478679  
N   -0.6902839   -0.9611196   -0.7007910  
C   -1.0492055   -1.4566438   -3.1372086  
C   -0.7231641   -1.0043178   -4.4010419  
O   -1.1969255   -1.6611201   -5.4997570  
C    0.0988352    0.1350595   -4.5711967  
O    0.3330068    0.4593429   -5.8915556  
C    0.6049157    0.8368351   -3.4969899  
H    1.2261283    1.6990943   -0.6200576  
H   -1.2340958   -1.6978872   -0.2891818  
H   -1.6783529   -2.3294470   -3.0295501  
H   -0.8551944   -1.1876246   -6.2693586  
H    0.8956543    1.2392990   -5.9180054  
C    2.5643923    2.3803956   -3.0311638  
C    1.4555851    2.0155202   -3.7159937  
C    1.2818616    3.0480336   -4.7260616  
C    2.4051127    3.9829018   -4.5004217  
N    3.1603601    3.5967033   -3.5082311  
C    2.5914559    5.1572359   -5.3074540  
C    1.6965816    5.3869807   -6.2952554  
O    1.7485447    6.4433936   -7.1243100  
C    0.5526151    4.4620250   -6.5481547  
O   -0.2232893    4.7335594   -7.4643762  
C    0.3830368    3.2641332   -5.7065944  
H    0.9821310    6.3325693   -7.7154788  
H   -0.4583351    2.6192539   -5.9221265  
H    3.0277584    1.8741916   -2.1992847  
C    3.7204570    6.0634757   -5.0525320  
C    4.6806396    5.9526950   -4.1052429  
C    5.5374716    7.1117876   -4.3023286  
C    4.9311600    7.8341226   -5.4412769  
N    3.8657097    7.2244091   -5.8851846  
C    5.4913197    9.0543979   -5.9533667  
C    6.6062715    9.5315833   -5.3546080  
O    7.2350432   10.6589298   -5.7284759  
C    7.2415146    8.8257154   -4.2029233  
O    8.2550837    9.3174116   -3.7068052  
C    6.6479688    7.5756592   -3.6959866  
H    4.7934760    5.1799135   -3.3641944  
H    5.0274907    9.5611597   -6.7870116  
H    7.9905439   10.7355307   -5.1181451  
H    7.1381851    7.0948850   -2.8600594  
C    3.3041272   -0.0001177    3.0120429  
C    2.5845372    0.0004780    1.8395852  
C    1.2040006    0.0000008    2.1983588  
C    1.1422373   -0.0006037    3.6154372  
N    2.4348639   -0.0026109    4.0777464  
C   -0.0655181   -0.0008797    4.3197917  
C   -1.2321768   -0.0002324    3.5801400  
O   -2.4392816   -0.0001146    4.2172520  
C   -1.1911209    0.0000007    2.1655264  
O   -2.4371527    0.0002320    1.5732860  
C    0.0000000    0.0000000    1.4700000  
H    3.0031534    0.0000661    0.8477417  
H    2.7054629    0.0071099    5.0445261  
H   -0.1193549   -0.0014844    5.3997470  
H   -3.1132988    0.0000648    3.5251786  
H   -2.3200282    0.0004071    0.6183591  
H    4.3686625   -0.0004071    3.1724291  
