64

C    4.7795897    0.0008677   -1.0815734  
C    5.8357356    0.0020744   -1.9630617  
C    7.0295758    0.0025515   -1.1824547  
C    6.6358516    0.0012983    0.1802287  
N    5.2632778    0.0022472    0.2058247  
C    7.5556546    0.0010564    1.2332010  
C    8.8973609    0.0017917    0.9045653  
O    9.8380083    0.0012449    1.8936042  
C    9.3099223    0.0034199   -0.4491726  
O   10.6798043    0.0044032   -0.6127735  
C    8.4030671    0.0039327   -1.4884696  
H    5.7555553    0.0036574   -3.0366361  
H    4.6982919   -0.0088487    1.0356736  
H    7.2620119    0.0002476    2.2738623  
H   10.6976510    0.0022152    1.4528342  
H   10.8735684    0.0054539   -1.5551421  
H    8.7489362    0.0053697   -2.5155286  
C    3.3321166    0.0004717   -1.3379342  
C    2.6974176    0.0000121   -2.5332317  
C    1.2800432   -0.0002115   -2.2052842  
C    1.2395033    0.0000645   -0.7271297  
N    2.4394059    0.0005461   -0.2131042  
C    0.0000000    0.0000000    0.0000000  
C   -1.1468704    0.0000636   -0.7169540  
O   -2.3742206    0.0000073   -0.1695488  
C   -1.1388774    0.0001610   -2.2096351  
O   -2.2206238    0.0000908   -2.7970408  
C    0.1454514    0.0001820   -2.9324241  
H    3.1367977   -0.0000646   -3.5160953  
H   -2.9844351    0.0001027   -0.9290163  
C    0.0950440    0.0004357   -4.4015596  
C    1.1162021   -0.0007520   -5.3233524  
C    0.5111084   -0.0004511   -6.6150418  
C   -0.8933813    0.0012352   -6.4167190  
N   -1.1116079   -0.0002153   -5.0613621  
C   -1.8066473    0.0022687   -7.4753656  
C   -1.2927268    0.0018944   -8.7575755  
O   -2.1397638    0.0032134   -9.8278750  
C    0.1055537   -0.0001561   -8.9758068  
O    0.4600367   -0.0006975  -10.3091048  
C    1.0070991   -0.0014497   -7.9319004  
H    2.1678548   -0.0028218   -5.0931012  
H   -2.0126141    0.0110229   -4.6185949  
H   -2.8782462    0.0034108   -7.3308770  
H   -1.5825646    0.0023764  -10.6170478  
H    1.4202825   -0.0020770  -10.3685167  
H    2.0725700   -0.0031948   -8.1300091  
C    0.8576279    0.7185626    2.2703808  
C    0.0000000    0.0000000    1.4700000  
C   -0.8668858   -0.7285659    2.3373528  
C   -0.4876752   -0.4117774    3.6669281  
N    0.5635254    0.4678311    3.5902241  
C   -1.1297612   -0.9515493    4.7854808  
C   -2.1738724   -1.8268314    4.5576857  
O   -2.8357962   -2.3827064    5.6140350  
C   -2.5667212   -2.1555554    3.2384331  
O   -3.6226318   -3.0413663    3.1773122  
C   -1.9335634   -1.6236449    2.1344818  
H    1.0363952    0.8769718    4.3757045  
H   -0.8454472   -0.7142436    5.8013813  
H   -3.5178062   -2.9546422    5.2385129  
H   -3.8247440   -3.2102924    2.2519915  
H   -2.2566033   -1.8942483    1.1360343  
H    1.6567807    1.3889844    2.0042067  
