62

C    7.2706070   -4.2325907   -0.7986205  
C    8.3410460   -4.8950416   -1.3534056  
C    8.3995560   -4.5148222   -2.7269447  
C    7.3306099   -3.6106434   -2.9544115  
N    6.6640332   -3.4628112   -1.7634289  
C    7.0833207   -3.0305128   -4.2022438  
C    7.9307438   -3.3690824   -5.2392693  
O    7.7349458   -2.8313236   -6.4784191  
C    9.0025797   -4.2696846   -5.0321462  
O    9.7561960   -4.5063675   -6.1632457  
C    9.2469677   -4.8425871   -3.8014625  
H    8.9981485   -5.5702158   -0.8324925  
H    5.8653572   -2.8729143   -1.6147027  
H    8.4268413   -3.1948078   -7.0462435  
H   10.4581707   -5.1242287   -5.9372258  
H   10.0755822   -5.5291816   -3.6731515  
H    6.8909419   -4.2493994    0.2086183  
C    5.9779324   -2.0928588   -4.4468283  
C    5.0400348   -1.6304881   -3.5804347  
C    4.1859901   -0.7341815   -4.3234535  
C    4.7069268   -0.7121366   -5.7036458  
N    5.7934739   -1.5560768   -5.7119686  
C    4.1728098    0.0176376   -6.7155012  
C    3.0072073    0.8361658   -6.4258168  
O    2.4535601    1.5290921   -7.2693975  
C    2.4388220    0.8282646   -4.9709350  
O    1.4580059    1.5136694   -4.7150422  
C    3.1006054    0.0006263   -3.9654951  
H    4.9561724   -1.8877887   -2.5395805  
H    4.5702538    0.0195463   -7.7209583  
H    6.3633292   -1.7534002   -6.5140761  
C    3.2798083    0.0005857   -1.4499652  
C    2.5571142    0.0005565   -2.5996556  
C    1.1637432    0.0001548   -2.2210361  
C    1.1336964   -0.0000200   -0.7459473  
N    2.4483512   -0.0001428   -0.3402723  
C    0.0000000    0.0000000    0.0000000  
C   -1.2757368   -0.0000186   -0.6964415  
O   -2.3524598   -0.0000639   -0.1142311  
C   -1.2676497   -0.0000872   -2.2584083  
O   -2.3355766   -0.0004101   -2.8557295  
C    0.0181558    0.0001758   -2.9516296  
H    0.0150788    0.0003319   -4.0331631  
H    4.3498547    0.0008612   -1.3200026  
H    2.7563626    0.0012823    0.6148059  
C    2.5285572    2.1210227    2.9438989  
C    1.9331703    1.6216660    4.0790748  
C    0.8903039    0.7472258    3.6520102  
C    0.8972198    0.7527806    2.2336141  
N    1.9028376    1.5986179    1.8362361  
C    0.0000000    0.0000000    1.4700000  
C   -0.9207814   -0.7726952    2.1506477  
O   -1.8198395   -1.5274828    1.4542253  
C   -0.9436862   -0.7911793    3.5655508  
O   -1.9197945   -1.6098497    4.0950179  
C   -0.0590329   -0.0485852    4.3195194  
H    2.2150357    1.8593692    5.0905303  
H    2.1533708    1.7953814    0.8841339  
H   -2.3621246   -1.9821033    2.1118817  
H   -1.8668290   -1.5649508    5.0545920  
H   -0.1007624   -0.0827977    5.4019087  
H    3.3491200    2.8096064    2.8367138  
