60

C    9.1001095   -0.0017589   -2.2684170  
C   10.1120572   -0.0033181   -1.3365217  
C   11.3425087   -0.0036889   -2.0580393  
C   11.0156406   -0.0020108   -3.4382859  
N    9.6459430   -0.0028198   -3.5307220  
C   11.9856513   -0.0015590   -4.4451962  
C   13.3097543   -0.0025173   -4.0515848  
O   14.2974688   -0.0017807   -4.9936214  
C   13.6558732   -0.0045698   -2.6793550  
O   15.0161562   -0.0057320   -2.4492094  
C   12.6994592   -0.0052899   -1.6854733  
H    9.9796671   -0.0051980   -0.2681290  
H    9.1220598    0.0085664   -4.3871078  
H   11.7430567   -0.0004262   -5.4989273  
H   15.1346167   -0.0029592   -4.5114940  
H   15.1637788   -0.0070690   -1.4985204  
H   12.9948822   -0.0070519   -0.6427841  
C    6.6174604   -0.0017047    1.3537077  
C    5.3857487   -0.0012517    0.7819026  
C    5.5854749   -0.0008503   -0.6481131  
C    7.0449748   -0.0011376   -0.8640994  
N    7.6133361   -0.0012548    0.3888394  
C    7.6418659   -0.0012958   -2.0828798  
C    6.7899755   -0.0009489   -3.2605122  
O    7.2316305   -0.0009950   -4.4021087  
C    5.2415215   -0.0003889   -3.0553446  
O    4.5141875    0.0002132   -4.0393395  
C    4.7161325   -0.0005435   -1.6923264  
H    4.4446710   -0.0010219    1.3024657  
H    6.8814406   -0.0021125    2.3987936  
H    8.5996516   -0.0030071    0.5738414  
C    3.2573665   -0.0002920   -1.5109385  
C    2.5379463   -0.0001709   -0.3591964  
C    1.1435038    0.0000331   -0.7338500  
C    1.1092599   -0.0000083   -2.2088477  
N    2.4227553    0.0001909   -2.6182613  
C   -0.0265539   -0.0002524   -2.9515660  
C   -1.3003040   -0.0002640   -2.2514977  
O   -2.3786790   -0.0004133   -2.8306421  
C   -1.2877727    0.0000311   -0.6895603  
O   -2.3539959    0.0003306   -0.0892030  
C    0.0000000    0.0000000    0.0000000  
H    2.9384091   -0.0000367    0.6389234  
H   -0.0296303   -0.0004086   -4.0327229  
H    2.7280482   -0.0013407   -3.5742119  
C    2.3971438    2.0127888    3.1728260  
C    1.9431056    1.6308205    1.9564670  
C    0.8496017    0.7127664    2.2356185  
C    0.7794028    0.6545384    3.7115134  
N    1.6840587    1.4146091    4.2663826  
C   -0.1885723   -0.1578550    4.3957118  
C   -1.0476298   -0.8789867    3.6398520  
O   -2.0015663   -1.6796266    4.1448486  
C   -1.0022026   -0.8410666    2.1483229  
O   -1.8147390   -1.5232959    1.5241687  
C    0.0000000    0.0000000    1.4700000  
H    2.3054237    1.9346118    0.9892483  
H   -0.2170646   -0.1815267    5.4753125  
H   -2.4487139   -2.0549881    3.3649027  
H    3.2048689    2.6911772    3.3971983  
