60

C    4.3560092   -3.6432847   -6.8366634  
C    3.6797796   -3.0453527   -5.7985601  
C    4.2761666   -3.5117533   -4.5896791  
C    5.3203007   -4.3991507   -4.9560616  
N    5.3402216   -4.4577817   -6.3274778  
C    6.1258182   -5.0484587   -4.0156738  
C    5.8728743   -4.7971348   -2.6811201  
O    6.6296356   -5.4044580   -1.7211806  
C    4.8353332   -3.9152094   -2.2957214  
O    4.7085355   -3.7693741   -0.9297065  
C    4.0401003   -3.2745138   -3.2228891  
H    5.9829519   -5.0001041   -6.8758994  
H    6.9231076   -5.7260517   -4.2884378  
H    6.2910388   -5.0957457   -0.8707030  
H    3.9863962   -3.1582027   -0.7548111  
H    3.2527829   -2.6045734   -2.8976371  
H    4.2132130   -3.5543127   -7.8999847  
C    2.5563875   -2.1074455   -5.9371939  
C    1.9637234   -1.6426512   -7.0671454  
C    0.9098256   -0.7472301   -6.6519886  
C    0.9372947   -0.7283014   -5.1769702  
N    1.9574929   -1.5736536   -4.8062070  
C    0.0950446    0.0004351   -4.4015596  
C   -0.9054234    0.8207086   -5.0639420  
O   -1.7097172    1.5127953   -4.4536732  
C   -0.9528383    0.8157264   -6.6252016  
O   -1.7910247    1.5021495   -7.1939966  
C    0.0078414   -0.0105930   -7.3519361  
H    2.2338689   -1.8980692   -8.0763022  
H   -0.0315010   -0.0083085   -8.4327557  
H    2.2269416   -1.7707466   -3.8598459  
C    3.3321173    0.0004713   -1.3379338  
C    2.6974181    0.0000116   -2.5332314  
C    1.2800438   -0.0002119   -2.2052841  
C    1.2395034    0.0000643   -0.7271299  
N    2.4394062    0.0005460   -0.2131038  
C    0.0000000    0.0000000    0.0000000  
C   -1.1468702    0.0000634   -0.7169543  
O   -2.3742203    0.0000074   -0.1695487  
C   -1.1388770    0.0001607   -2.2096355  
O   -2.2206234    0.0000905   -2.7970411  
C    0.1454522    0.0001815   -2.9324241  
H    3.1367984   -0.0000653   -3.5160950  
H   -2.9844346    0.0001026   -0.9290167  
H    4.3940038    0.0007618   -1.1498640  
C    2.3971438    2.0127888    3.1728260  
C    1.9431056    1.6308205    1.9564670  
C    0.8496017    0.7127664    2.2356185  
C    0.7794028    0.6545384    3.7115134  
N    1.6840587    1.4146091    4.2663826  
C   -0.1885723   -0.1578550    4.3957118  
C   -1.0476298   -0.8789867    3.6398520  
O   -2.0015663   -1.6796266    4.1448486  
C   -1.0022026   -0.8410666    2.1483229  
O   -1.8147390   -1.5232959    1.5241687  
C    0.0000000    0.0000000    1.4700000  
H    2.3054237    1.9346118    0.9892483  
H   -0.2170646   -0.1815267    5.4753125  
H   -2.4487139   -2.0549881    3.3649027  
H    3.2048689    2.6911772    3.3971983  
