60

C   -8.3941004    2.9277424   -2.0950443  
C   -9.6334976    2.4597376   -1.7244580  
C   -9.6592062    1.0656827   -2.0253730  
C   -8.3967780    0.7367176   -2.5821334  
N   -7.6535230    1.8905395   -2.6118649  
C   -8.0669888   -0.5572301   -2.9965334  
C   -9.0290331   -1.5369990   -2.8458666  
O   -8.7595970   -2.8176006   -3.2337800  
C  -10.2946060   -1.2283148   -2.2928226  
O  -11.1438996   -2.3122904   -2.2089290  
C  -10.6207361    0.0480330   -1.8840417  
H  -10.4224448    3.0506746   -1.2916221  
H   -6.7096080    1.9643942   -2.9458575  
H   -9.5542873   -3.3332046   -3.0443462  
H  -11.9755975   -2.0180500   -1.8251248  
H  -11.5983072    0.2543451   -1.4641981  
H   -7.9802804    3.9196352   -2.0329198  
C   -3.9877630    0.7060337   -1.9730980  
C   -3.2941076    0.0012878   -2.9038237  
C   -4.2616235   -0.7404938   -3.6774573  
C   -5.5852979   -0.4077256   -3.1171519  
N   -5.3499626    0.4732136   -2.0868838  
C   -6.7614337   -0.9068528   -3.5746252  
C   -6.7208869   -1.8338309   -4.6933759  
O   -7.7257851   -2.3379509   -5.1774666  
C   -5.3299840   -2.2005531   -5.3022342  
O   -5.2832946   -2.9801748   -6.2441853  
C   -4.1317824   -1.5978944   -4.7234703  
H   -3.1726434   -1.8568417   -5.1509310  
H   -3.6184115    1.3757280   -1.2135067  
H   -6.0587599    0.8852726   -1.5082127  
C    0.0000000    0.0000000    0.0000000  
C    1.0541688   -0.0001723   -0.8560392  
C    0.5103136   -0.0000455   -2.1935956  
C   -0.9576373    0.0002461   -2.0455730  
N   -1.2018460   -0.0001389   -0.6915968  
C   -1.8348314    0.0008319   -3.0810607  
C   -1.2972851    0.0009739   -4.4314603  
O   -2.0050676    0.0014268   -5.4301316  
C    0.2542619    0.0004184   -4.6117572  
O    0.7184666    0.0002257   -5.7439122  
C    1.0974551    0.0000873   -3.4189129  
H    2.0940752   -0.0005484   -0.5817983  
H    2.1707276   -0.0000912   -3.5523673  
H   -2.1128194    0.0014915   -0.2706789  
C    0.0000000    0.0000000    1.4700000  
C    1.0541688    0.0001722    2.3260392  
C    0.5103138    0.0000454    3.6635956  
C   -0.9576371   -0.0002459    3.5155732  
N   -1.2018458    0.0001392    2.1615969  
C   -1.8348311   -0.0008317    4.5510609  
C   -1.2972847   -0.0009736    5.9014604  
O   -2.0050672   -0.0014265    6.9001319  
C    0.2542623   -0.0004184    6.0817573  
O    0.7184670   -0.0002256    7.2139121  
C    1.0974552   -0.0000873    4.8889129  
H    2.0940752    0.0005483    2.0517982  
H   -2.9081052   -0.0011668    4.4207061  
H    2.1707277    0.0000911    5.0223670  
H   -2.1128194   -0.0014912    1.7406791  
