62

C    6.8068101    0.0011159   -6.3655945  
C    7.3989802    0.0007972   -5.1239018  
C    8.8096137    0.0003713   -5.3353560  
C    9.0202059    0.0007390   -6.7380588  
N    7.7834277   -0.0007637   -7.3338735  
C   10.2953973    0.0007781   -7.3113629  
C   11.3777121    0.0007469   -6.4530084  
O   12.6451776    0.0011334   -6.9595114  
C   11.1879706    0.0000067   -5.0505772  
O   12.3647360   -0.0003499   -4.3304599  
C    9.9302521   -0.0003055   -4.4843020  
H    6.8782807   -0.0002415   -4.1816366  
H    7.6161040    0.0096650   -8.3237597  
H   10.4626200    0.0009134   -8.3796509  
H   13.2425972    0.0007376   -6.2003310  
H   12.1477394   -0.0008192   -3.3931681  
H    9.8161696   -0.0010557   -3.4065901  
C    3.1006060    0.0006268   -3.9654947  
C    4.3965753    0.0006904   -4.3711275  
C    4.3857811    0.0007802   -5.8149833  
C    2.9671185    0.0007928   -6.2201829  
N    2.2396186    0.0002982   -5.0524356  
C    2.5349230    0.0012656   -7.5066168  
C    3.5336524    0.0015712   -8.5625870  
O    3.2452527    0.0019406   -9.7521778  
C    5.0419204    0.0013117   -8.1564674  
O    5.8918153    0.0012587   -9.0367734  
C    5.3843457    0.0010799   -6.7363982  
H    5.2614037    0.0004936   -3.7318422  
H    1.4895031    0.0013959   -7.7823117  
H    1.2375717    0.0017399   -4.9981503  
C    3.2798085    0.0005859   -1.4499648  
C    2.5571146    0.0005569   -2.5996553  
C    1.1637437    0.0001551   -2.2210359  
C    1.1336966   -0.0000198   -0.7459471  
N    2.4483513   -0.0001427   -0.3402720  
C    0.0000000    0.0000000    0.0000000  
C   -1.2757366   -0.0000185   -0.6964416  
O   -2.3524595   -0.0000640   -0.1142313  
C   -1.2676493   -0.0000870   -2.2584084  
O   -2.3355759   -0.0004098   -2.8557296  
C    0.0181563    0.0001763   -2.9516295  
H    0.0150795    0.0003323   -4.0331630  
H    4.3498549    0.0008614   -1.3200020  
H    2.7563627    0.0012824    0.6148062  
C    0.0000000    0.0000000    1.4700000  
C    1.0521667    0.0011902    2.3562342  
C    0.4917218    0.0011957    3.6679131  
C   -0.9187428   -0.0003148    3.5178682  
N   -1.1833171    0.0009411    2.1707914  
C   -1.7951701   -0.0010350    4.6072090  
C   -1.2375837   -0.0005224    5.8710424  
O   -2.0474215   -0.0015360    6.9697579  
C    0.1673580    0.0013566    6.0411963  
O    0.5673524    0.0020687    7.3615553  
C    1.0325770    0.0023412    4.9669890  
H    2.0953057    0.0030649    2.0900562  
H   -2.0989778   -0.0102372    1.7591824  
H   -2.8710934   -0.0020419    4.4995513  
H   -1.4634884   -0.0006497    7.7393593  
H    1.5290710    0.0033153    7.3880045  
H    2.1042148    0.0039609    5.1284455  
