64

C   -1.6631416    0.0181667   -3.2649296  
C   -3.0375790    0.0621615   -3.3030575  
C   -3.4161840    0.0614745   -4.6782875  
C   -2.2200509    0.0154479   -5.4392563  
N   -1.1743371   -0.0079944   -4.5501282  
C   -2.2131845    0.0017235   -6.8373099  
C   -3.4360942    0.0347633   -7.4788539  
O   -3.4871350    0.0228757   -8.8427691  
C   -4.6404189    0.0812403   -6.7370599  
O   -5.7753100    0.1104140   -7.5209700  
C   -4.6479382    0.0950776   -5.3578288  
H   -3.6873321    0.0922842   -2.4452073  
H   -0.2024863   -0.0519609   -4.7982287  
H   -1.3049852   -0.0331567   -7.4231088  
H   -4.4228748    0.0509602   -9.0812399  
H   -6.5436443    0.1410733   -6.9427602  
C   -1.1241033    0.0251989   -0.7919004  
C   -0.7477760   -0.0000527   -2.1148543  
C    0.6776716   -0.0446785   -2.1414698  
C    1.1193173   -0.0449103   -0.7935547  
N    0.0000000    0.0000000    0.0000000  
C    2.4716708   -0.0837628   -0.4408244  
C    3.3949968   -0.1234050   -1.4675064  
O    4.7285763   -0.1626865   -1.1793479  
C    2.9739570   -0.1234811   -2.8186329  
O    4.0134435   -0.1651934   -3.7247632  
C    1.6400020   -0.0848915   -3.1673485  
H    2.8147665   -0.0840181    0.5845965  
H    5.1906148   -0.1856180   -2.0274392  
H    3.6431709   -0.1623218   -4.6127349  
H    1.3477211   -0.0858058   -4.2109238  
H   -2.1053803    0.0606357   -0.3505400  
C   -5.8650767    2.2930216   -1.7182552  
C   -7.1615317    1.8363384   -1.6624727  
C   -7.3410276    0.9563410   -2.7706177  
C   -6.1093028    0.9146826   -3.4727889  
N   -5.2355114    1.7389748   -2.8082221  
C   -5.9207091    0.1439493   -4.6239583  
C   -6.9950160   -0.5984873   -5.0743243  
O   -6.8655827   -1.3689781   -6.1935227  
C   -8.2321222   -0.5697421   -4.3876230  
O   -9.2046590   -1.3627217   -4.9609461  
C   -8.4189721    0.1905880   -3.2520562  
H   -7.8887823    2.1053323   -0.9156515  
H   -4.2796354    1.9020165   -3.0684145  
H   -7.7206120   -1.7972410   -6.3305653  
H  -10.0075754   -1.2863599   -4.4364490  
H   -9.3780902    0.1927060   -2.7475115  
H   -5.3400770    2.9712423   -1.0676009  
C    0.0000000    0.0000000    1.4700000  
C    1.0541688    0.0001722    2.3260392  
C    0.5103138    0.0000454    3.6635956  
C   -0.9576371   -0.0002459    3.5155732  
N   -1.2018458    0.0001392    2.1615969  
C   -1.8348311   -0.0008317    4.5510609  
C   -1.2972847   -0.0009736    5.9014604  
O   -2.0050672   -0.0014265    6.9001319  
C    0.2542623   -0.0004184    6.0817573  
O    0.7184670   -0.0002256    7.2139121  
C    1.0974552   -0.0000873    4.8889129  
H    2.0940752    0.0005483    2.0517982  
H   -2.9081052   -0.0011668    4.4207061  
H    2.1707277    0.0000911    5.0223670  
H   -2.1128194   -0.0014912    1.7406791  
