60

C    4.1353735   -2.1211091   -6.1128404  
C    2.8641944   -1.6598217   -6.3653954  
C    2.9566377   -0.7729334   -7.4787165  
C    4.3204300   -0.7324514   -7.8664761  
N    5.0088684   -1.5607798   -7.0152745  
C    4.7802093    0.0434291   -8.9348395  
C    3.8461865    0.7918464   -9.6245134  
O    4.2407732    1.5669902  -10.6764017  
C    2.4810069    0.7649459   -9.2525221  
O    1.6753913    1.5646841  -10.0365786  
C    2.0267553   -0.0000395   -8.1984929  
H    1.9793278   -1.9285482   -5.8142233  
H    5.9956684   -1.7417350   -7.0534870  
H    5.8183237    0.0787359   -9.2352950  
H    3.4442700    1.9994573  -11.0107968  
H    0.7703977    1.4891023   -9.7189673  
H    4.4882961   -2.8043755   -5.3594799  
C   -0.2963294   -0.0005341   -4.3948471  
C    0.7407569   -0.0008429   -5.2643479  
C    0.1250904   -0.0009657   -6.5824728  
C   -1.3291515   -0.0008029   -6.3145846  
N   -1.5822797   -0.0004690   -5.0339928  
C   -2.2982577   -0.0008143   -7.3756785  
C   -1.8356081   -0.0005915   -8.6466189  
O   -2.6263943   -0.0005812   -9.7332184  
C   -0.3739288   -0.0003769   -8.9493653  
O   -0.0244437   -0.0003042  -10.1296538  
C    0.6002574   -0.0004136   -7.8435231  
H    1.7935284   -0.0008811   -5.0390753  
H   -3.3548545   -0.0008996   -7.1509269  
H   -2.0105059   -0.0003718  -10.4880924  
C    3.1301143   -0.0010313   -1.7028257  
C    2.5367765   -0.0002767   -0.4864669  
C    1.1089900    0.0001027   -0.7656184  
C    1.0177864   -0.0004150   -2.2415133  
N    2.1993571   -0.0011613   -2.7963824  
C   -0.2459220   -0.0002879   -2.9257116  
C   -1.3675327   -0.0000606   -2.1698519  
O   -2.6129319    0.0000866   -2.6748482  
C   -1.3083588    0.0000910   -0.6783229  
O   -2.3693264    0.0004206   -0.0541685  
C    0.0000000    0.0000000    0.0000000  
H    3.0096014   -0.0001008    0.4807517  
H   -3.1967445    0.0002093   -1.8949025  
H    4.1849272   -0.0015113   -1.9271980  
C    2.5128556    2.1077716    2.9199648  
C    1.9592212    1.6432552    4.0696553  
C    0.8915788    0.7479214    3.6910360  
C    0.8684491    0.7287414    2.2159470  
N    1.8754542    1.5738793    1.8102719  
C    0.0000000    0.0000000    1.4700000  
C   -0.9772830   -0.8200135    2.1664417  
O   -1.8021297   -1.5120829    1.5842315  
C   -0.9711318   -0.8147624    3.7284083  
O   -1.7894187   -1.5009653    4.3257297  
C    0.0140216    0.0115358    4.4216297  
H    2.2638494    1.8988021    5.0689105  
H    0.0117648    0.0094386    5.5031631  
H    3.3327358    2.7953732    2.7900019  
H    2.1123206    1.7707734    0.8551938  
