60

C    6.5860086   -0.0008870    1.4009375  
C    7.6166236   -0.0011135    0.4897300  
C    7.0248897   -0.0012667   -0.8081339  
C    5.6184275   -0.0008356   -0.6243128  
N    5.3862300   -0.0025642    0.7287201  
C    4.7161324   -0.0005436   -1.6923263  
C    5.2432558   -0.0003826   -2.9691656  
O    4.4073059    0.0002540   -4.0481475  
C    6.6437146   -0.0011825   -3.1729575  
O    7.0119354   -0.0013267   -4.5025276  
C    7.5344423   -0.0017440   -2.1198051  
H    8.6658465   -0.0022673    0.7308197  
H    4.4806936    0.0078491    1.1621678  
H    4.9726184   -0.0000404   -4.8315290  
H    7.9727441   -0.0018529   -4.5520289  
H    8.6019008   -0.0025340   -2.3069101  
H    6.6118211   -0.0011076    2.4771772  
C    3.2573666   -0.0002920   -1.5109384  
C    2.5379463   -0.0001710   -0.3591964  
C    1.1435039    0.0000331   -0.7338498  
C    1.1092600   -0.0000083   -2.2088476  
N    2.4227554    0.0001909   -2.6182613  
C   -0.0265538   -0.0002524   -2.9515660  
C   -1.3003040   -0.0002640   -2.2514976  
O   -2.3786789   -0.0004133   -2.8306420  
C   -1.2877727    0.0000311   -0.6895603  
O   -2.3539960    0.0003306   -0.0892032  
C    0.0000000    0.0000000    0.0000000  
H    2.9384090   -0.0000368    0.6389236  
H    2.7280484   -0.0013407   -3.5742118  
C    2.4782000   -2.1081880   -5.8783654  
C    1.9212487   -1.6438943   -7.0265430  
C    0.8545957   -0.7486155   -6.6450164  
C    0.8356614   -0.7292248   -5.1698703  
N    1.8439038   -1.5742006   -4.7669401  
C   -0.0307367   -0.0004647   -4.4215603  
C   -1.0100819    0.8193479   -5.1153365  
O   -1.8333399    1.5114168   -4.5308810  
C   -1.0083747    0.8138718   -6.6773133  
O   -1.8284286    1.4999045   -7.2724029  
C   -0.0251127   -0.0124254   -7.3732162  
H    2.2230587   -1.8995542   -8.0266241  
H   -0.0304472   -0.0104847   -8.4547391  
H    3.2985176   -2.7956866   -5.7506369  
H    2.0835073   -1.7709325   -3.8125117  
C    0.0000000    0.0000000    1.4700000  
C    1.0541688    0.0001722    2.3260392  
C    0.5103138    0.0000454    3.6635956  
C   -0.9576371   -0.0002459    3.5155732  
N   -1.2018458    0.0001392    2.1615969  
C   -1.8348311   -0.0008317    4.5510609  
C   -1.2972847   -0.0009736    5.9014604  
O   -2.0050672   -0.0014265    6.9001319  
C    0.2542623   -0.0004184    6.0817573  
O    0.7184670   -0.0002256    7.2139121  
C    1.0974552   -0.0000873    4.8889129  
H    2.0940752    0.0005483    2.0517982  
H   -2.9081052   -0.0011668    4.4207061  
H    2.1707277    0.0000911    5.0223670  
H   -2.1128194   -0.0014912    1.7406791  
