60

C    9.9858318    2.1203760   -6.4649510  
C   11.2317738    1.6218217   -6.1623996  
C   11.0709159    0.7482293   -5.0463530  
C    9.6932305    0.7534506   -4.7088893  
N    9.0633376    1.5982832   -5.5887246  
C    9.1704848    0.0013079   -3.6525716  
C   10.0545629   -0.7703944   -2.9238337  
O    9.5974483   -1.5245265   -1.8820351  
C   11.4327455   -0.7885310   -3.2449282  
O   12.1836058   -1.6061927   -2.4257948  
C   11.9491871   -0.0465657   -4.2867061  
H   12.1444990    1.8595026   -6.6814697  
H    8.0788104    1.7945993   -5.6009023  
H   10.3672374   -1.9785029   -1.5151646  
H   13.1016296   -1.5611204   -2.7100572  
H   13.0093678   -0.0804904   -4.5088395  
H    9.6824326    2.8081895   -7.2355478  
C    6.6781257    0.0000527   -4.1292994  
C    7.7444182    0.0009684   -3.2958728  
C    7.1743128    0.0014028   -1.9574107  
C    5.7117403    0.0007372   -2.1752743  
N    5.4148486   -0.0001362   -3.4464332  
C    4.7795901    0.0008674   -1.0815733  
C    5.2855489    0.0012392    0.1727554  
O    4.5324883    0.0014071    1.2858322  
C    6.7567497    0.0015423    0.4252006  
O    7.1465030    0.0019993    1.5928107  
C    7.6924431    0.0014449   -0.7133963  
H    5.1738992    0.0016453    2.0191430  
H    8.7505412    0.0015571   -0.4883252  
H    6.6781258   -0.0005126   -5.2077115  
C    3.3321168    0.0004716   -1.3379341  
C    2.6974177    0.0000118   -2.5332316  
C    1.2800432   -0.0002116   -2.2052842  
C    1.2395033    0.0000644   -0.7271298  
N    2.4394059    0.0005460   -0.2131041  
C    0.0000000    0.0000000    0.0000000  
C   -1.1468704    0.0000635   -0.7169542  
O   -2.3742206    0.0000074   -0.1695488  
C   -1.1388774    0.0001608   -2.2096352  
O   -2.2206238    0.0000906   -2.7970409  
C    0.1454514    0.0001818   -2.9324241  
H    3.1367978   -0.0000649   -3.5160956  
H   -2.9844350    0.0001027   -0.9290164  
H    0.1083567    0.0003684   -4.0135594  
C    0.0000000    0.0000000    1.4700000  
C    1.0541688    0.0001722    2.3260392  
C    0.5103138    0.0000454    3.6635956  
C   -0.9576371   -0.0002459    3.5155732  
N   -1.2018458    0.0001392    2.1615969  
C   -1.8348311   -0.0008317    4.5510609  
C   -1.2972847   -0.0009736    5.9014604  
O   -2.0050672   -0.0014265    6.9001319  
C    0.2542623   -0.0004184    6.0817573  
O    0.7184670   -0.0002256    7.2139121  
C    1.0974552   -0.0000873    4.8889129  
H    2.0940752    0.0005483    2.0517982  
H   -2.9081052   -0.0011668    4.4207061  
H    2.1707277    0.0000911    5.0223670  
H   -2.1128194   -0.0014912    1.7406791  
