64

C    2.9979221   -0.7160717   -7.4802456  
C    4.2474544   -0.4677204   -7.9993406  
C    4.0741772    0.4409401   -9.0851166  
C    2.6856429    0.7139795   -9.1818008  
N    2.0609536   -0.0060516   -8.1939055  
C    2.1492446    1.5739203  -10.1449031  
C    3.0306531    2.1693072  -11.0262722  
O    2.5604804    3.0179759  -11.9863317  
C    4.4194236    1.9091319  -10.9460054  
O    5.1658807    2.5775330  -11.8943641  
C    4.9492642    1.0606798   -9.9963084  
H    5.1701897   -0.8904348   -7.6403630  
H    1.0919114    1.7860557  -10.2239360  
H    3.3305922    3.3178018  -12.4866280  
H    6.0916848    2.3469052  -11.7706601  
H    6.0172891    0.8805747   -9.9593803  
H    2.7007626   -1.3446176   -6.6583060  
C   -0.2963294   -0.0005341   -4.3948471  
C    0.7248289   -0.0020238   -5.3166391  
C    0.1197351   -0.0021683   -6.6083289  
C   -1.2847549   -0.0004298   -6.4100066  
N   -1.5029813   -0.0014223   -5.0546493  
C   -2.1980207    0.0002341   -7.4686534  
C   -1.6841003   -0.0005703   -8.7508641  
O   -2.5311370    0.0003758   -9.8211630  
C   -0.2858196   -0.0026797   -8.9690929  
O    0.0686634   -0.0036705  -10.3023926  
C    0.6157257   -0.0036090   -7.9251872  
H    1.7764816   -0.0040039   -5.0863877  
H   -2.4039878    0.0099565   -4.6118859  
H   -3.2696195    0.0014135   -7.3241652  
H   -1.9739381   -0.0007229  -10.6103355  
H    1.0289092   -0.0050596  -10.3618041  
C    3.1301143   -0.0010313   -1.7028257  
C    2.5367765   -0.0002767   -0.4864669  
C    1.1089900    0.0001027   -0.7656184  
C    1.0177864   -0.0004150   -2.2415133  
N    2.1993571   -0.0011613   -2.7963824  
C   -0.2459220   -0.0002879   -2.9257116  
C   -1.3675327   -0.0000606   -2.1698519  
O   -2.6129319    0.0000866   -2.6748482  
C   -1.3083588    0.0000910   -0.6783229  
O   -2.3693264    0.0004206   -0.0541685  
C    0.0000000    0.0000000    0.0000000  
H    3.0096014   -0.0001008    0.4807517  
H   -3.1967445    0.0002093   -1.8949025  
H    4.1849272   -0.0015113   -1.9271980  
C    0.0000000    0.0000000    1.4700000  
C    1.0521667    0.0011902    2.3562342  
C    0.4917218    0.0011957    3.6679131  
C   -0.9187428   -0.0003148    3.5178682  
N   -1.1833171    0.0009411    2.1707914  
C   -1.7951701   -0.0010350    4.6072090  
C   -1.2375837   -0.0005224    5.8710424  
O   -2.0474215   -0.0015360    6.9697579  
C    0.1673580    0.0013566    6.0411963  
O    0.5673524    0.0020687    7.3615553  
C    1.0325770    0.0023412    4.9669890  
H    2.0953057    0.0030649    2.0900562  
H   -2.0989778   -0.0102372    1.7591824  
H   -2.8710934   -0.0020419    4.4995513  
H   -1.4634884   -0.0006497    7.7393593  
H    1.5290710    0.0033153    7.3880045  
H    2.1042148    0.0039609    5.1284455  
