60

C    5.2335965   -2.9827375   -8.6385455  
C    4.4975077   -1.9978008   -8.0216663  
C    4.7249528   -0.7914078   -8.7479475  
C    5.6156757   -1.1045004   -9.8064897  
N    5.9060582   -2.4427627   -9.7097940  
C    6.0598373   -0.1514630  -10.7280252  
C    5.5961380    1.1411233  -10.5784222  
O    5.9977524    2.1110885  -11.4507108  
C    4.7072784    1.4731522   -9.5284224  
O    4.3366007    2.8019525   -9.5132273  
C    4.2688977    0.5335272   -8.6187770  
H    3.8742592   -2.1320603   -7.1541821  
H    6.5054700   -2.9530589  -10.3329174  
H    6.7387774   -0.3836667  -11.5369280  
H    5.5636983    2.9272864  -11.1702074  
H    3.7364568    2.9418687   -8.7744080  
H    5.3332617   -4.0273931   -8.3982930  
C    4.1680083   -0.6852559   -4.4364468  
C    3.1006054    0.0006263   -3.9654951  
C    2.5992457    0.7461593   -5.1097496  
C    3.5073877    0.3823239   -6.2185716  
N    4.4289477   -0.4565249   -5.8299206  
C    3.3454770    0.9187916   -7.5418527  
C    2.3225889    1.7793023   -7.7481421  
O    2.0538413    2.3557385   -8.9320071  
C    1.3888525    2.1657481   -6.6495260  
O    0.4799308    2.9542128   -6.9091524  
C    1.5758912    1.6018852   -5.3008232  
H    1.2721072    2.9126104   -8.7648596  
H    0.8781185    1.9068480   -4.5324863  
H    4.8160315   -1.3575814   -3.8969864  
C    3.2798083    0.0005857   -1.4499652  
C    2.5571142    0.0005565   -2.5996556  
C    1.1637432    0.0001548   -2.2210361  
C    1.1336964   -0.0000200   -0.7459473  
N    2.4483512   -0.0001428   -0.3402723  
C    0.0000000    0.0000000    0.0000000  
C   -1.2757368   -0.0000186   -0.6964415  
O   -2.3524598   -0.0000639   -0.1142311  
C   -1.2676497   -0.0000872   -2.2584083  
O   -2.3355766   -0.0004101   -2.8557295  
C    0.0181558    0.0001758   -2.9516296  
H    0.0150788    0.0003319   -4.0331631  
H    4.3498547    0.0008612   -1.3200026  
H    2.7563626    0.0012823    0.6148059  
C    0.8400945    0.7047457    2.2710304  
C    0.0000000    0.0000000    1.4700000  
C   -0.8844236   -0.7423113    2.3369512  
C   -0.4878984   -0.4098547    3.7186280  
N    0.5629682    0.4714286    3.6095011  
C   -1.0836927   -0.9095027    4.8308716  
C   -2.1891196   -1.8367527    4.6554461  
O   -2.7906899   -2.3413415    5.5944904  
C   -2.6257283   -2.2031529    3.2011665  
O   -3.5549479   -2.9829990    3.0410059  
C   -1.9068976   -1.5999348    2.0816745  
H   -0.7774656   -0.6525820    5.8354244  
H   -2.2155208   -1.8586617    1.0779135  
H    1.6384792    1.3747609    1.9961646  
H    1.0518368    0.8833920    4.3830260  
