60

C    2.5735764   -2.1179270   -5.9617322  
C    1.9391419   -1.6189405   -7.0757217  
C    0.9107078   -0.7455665   -6.6129690  
C    0.9662629   -0.7513595   -5.1956450  
N    1.9857142   -1.5963088   -4.8331575  
C    0.0950450    0.0004357   -4.4015596  
C   -0.8492643    0.7723724   -5.0500745  
O   -1.7246254    1.5261841   -4.3230773  
C   -0.9206912    0.7910786   -6.4633567  
O   -1.9151540    1.6089117   -6.9588727  
C   -0.0617114    0.0494565   -7.2473692  
H    2.1863825   -1.8562013   -8.0962969  
H    2.2689340   -1.7929980   -3.8902465  
H   -2.2895725    1.9804026   -4.9616587  
H   -1.8950818    1.5642288   -7.9197076  
H   -0.1405650    0.0838163   -8.3276834  
H    3.3979816   -2.8057482   -5.8828893  
C    3.3321174    0.0004722   -1.3379336  
C    2.6974183    0.0000122   -2.5332313  
C    1.2800441   -0.0002113   -2.2052840  
C    1.2395036    0.0000646   -0.7271298  
N    2.4394063    0.0005463   -0.2131037  
C    0.0000000    0.0000000    0.0000000  
C   -1.1468699    0.0000637   -0.7169543  
O   -2.3742201    0.0000076   -0.1695489  
C   -1.1388769    0.0001611   -2.2096357  
O   -2.2206234    0.0000908   -2.7970412  
C    0.1454523    0.0001820   -2.9324241  
H    3.1367987   -0.0000643   -3.5160945  
H   -2.9844345    0.0001025   -0.9290168  
C    4.7795905    0.0008679   -1.0815729  
C    5.7862024    0.0008775   -1.9861791  
C    7.0047297    0.0013415   -1.1913893  
C    6.5351382    0.0016829    0.2107760  
N    5.2316827    0.0013268    0.2814341  
C    7.4495165    0.0021408    1.3193780  
C    8.7728604    0.0018636    1.0399217  
O    9.7375503    0.0022376    1.9755574  
C    9.2780074    0.0011452   -0.3647086  
O   10.4956958    0.0010508   -0.5448632  
C    8.3200399    0.0007293   -1.4846288  
H    5.7111083    0.0005133   -3.0601607  
H    7.0785144    0.0025899    2.3339059  
H   10.5714826    0.0018715    1.4718617  
H    8.7261896    0.0000960   -2.4872613  
C    0.8681109    0.7263879    2.2709268  
C    0.6127770    0.5096195    3.5869401  
C   -0.4920590   -0.4175482    3.6542670  
C   -0.8620974   -0.7254003    2.2596025  
N    0.0000000    0.0000000    1.4700000  
C   -1.8641242   -1.5660088    1.8976294  
C   -2.6293522   -2.2103885    2.9520183  
O   -3.5512764   -2.9839180    2.7283916  
C   -2.2549728   -1.8987399    4.4361073  
O   -2.8923672   -2.4351063    5.3323774  
C   -1.1543735   -0.9755647    4.7012123  
H    1.1382914    0.9492124    4.4159191  
H   -2.1192137   -1.7782617    0.8686553  
H   -0.9013378   -0.7652422    5.7314848  
H    1.6172880    1.3558399    1.8188057  
