64

C    0.7401904   -0.3788486   -9.6593196  
C    1.5043564   -0.2313132  -10.7936715  
C    1.4319401    1.1430052  -11.1686435  
C    0.6025016    1.7907503  -10.2176516  
N    0.1978785    0.8375520   -9.3163689  
C    0.3091208    3.1565234  -10.2757941  
C    0.8633921    3.8816702  -11.3126763  
O    0.6098920    5.2188001  -11.4167660  
C    1.6931705    3.2532478  -12.2715131  
O    2.1682426    4.1103974  -13.2425659  
C    1.9828067    1.9058666  -12.2149289  
H    2.0463187   -1.0177390  -11.2904652  
H   -0.3224260    3.6561420   -9.5541766  
H    1.0859942    5.5268971  -12.1988581  
H    2.7193657    3.6068987  -13.8494907  
H    2.6215323    1.4522900  -12.9637785  
H    0.5379247   -1.2558040   -9.0685602  
C    0.2868086   -0.7145917   -5.1244006  
C    0.5709437   -0.4618085   -6.4464575  
C   -0.4158488    0.4546237   -6.9165559  
C   -1.2827316    0.7276168   -5.8275581  
N   -0.8287665    0.0000939   -4.7555305  
C   -2.3751512    1.5942451   -5.9293602  
C   -2.5963110    2.1964905   -7.1527026  
O   -3.6486642    3.0518607   -7.3073262  
C   -1.7427299    1.9364809   -8.2511614  
O   -2.0952730    2.6121525   -9.4011725  
C   -0.6650032    1.0814348   -8.1515273  
H    1.3881891   -0.8866264   -7.0038020  
H   -3.0396891    1.8063847   -5.1031715  
H   -3.6211411    3.3557246   -8.2239360  
H   -1.4688055    2.3811273  -10.0938263  
H    0.7908055   -1.3492512   -4.4157725  
C    1.0672569   -0.0000698   -0.8321910  
C    0.0000000    0.0000000    0.0000000  
C   -1.1601223   -0.0000736   -0.8778472  
C   -0.5938729   -0.0000768   -2.2438435  
N    0.7113367   -0.0001553   -2.2234123  
C   -1.4286985   -0.0001877   -3.4135239  
C   -2.7683113   -0.0006798   -3.2270524  
O   -3.6653902   -0.0008302   -4.2276970  
C   -3.3702024   -0.0010610   -1.8610774  
O   -4.5974910   -0.0013779   -1.7662963  
C   -2.4926825   -0.0008943   -0.6770658  
H   -4.5324245   -0.0012258   -3.7833954  
H   -2.9677772   -0.0012974    0.2947961  
H    2.1134391   -0.0000547   -0.5705119  
C    2.5311839    2.1237619    3.0120429  
C    1.9795631    1.6616747    1.8395852  
C    0.9223175    0.7739173    2.1983588  
C    0.8753926    0.7337535    3.6154372  
N    1.8668922    1.5631002    4.0777464  
C   -0.0496243   -0.0427881    4.3197917  
C   -0.9437528   -0.7922060    3.5801400  
O   -1.8685244   -1.5680278    4.2172520  
C   -0.9124520   -0.7656372    2.1655264  
O   -1.8671164   -1.5663939    1.5732860  
C    0.0000000    0.0000000    1.4700000  
H    2.3005065    1.9304404    0.8477417  
H    2.0679347    1.7444845    5.0445261  
H   -0.0904770   -0.0778569    5.3997470  
H   -2.3849669   -2.0011402    3.5251786  
H   -1.7775064   -1.4909735    0.6183591  
H    3.3468514    2.8078103    3.1724291  
