60

C    8.3844398    2.1272411   -5.1179166  
C    7.6368478    1.6637880   -4.0601910  
C    8.4714223    0.7770920   -3.3173211  
C    9.7276118    0.7389538   -3.9749377  
N    9.6399536    1.5684330   -5.0653037  
C   10.7975396   -0.0361079   -3.5174207  
C   10.5957715   -0.7861008   -2.3750643  
O   11.6070696   -1.5605376   -1.8846188  
C    9.3494479   -0.7615458   -1.7050709  
O    9.3058549   -1.5626374   -0.5827097  
C    8.2934101    0.0026304   -2.1560093  
H    6.6152602    1.9309847   -3.8505289  
H   10.3817916    1.7510766   -5.7166846  
H   11.7573979   -0.0696303   -4.0141616  
H   11.2600789   -1.9943562   -1.0942616  
H    8.4306937   -1.4886125   -0.1900055  
H    8.1209563    2.8110877   -5.9065161  
C    5.7595788    0.0007158   -2.0216249  
C    4.7795901    0.0008674   -1.0815733  
C    5.4318892    0.0011976    0.2065809  
C    6.8826348    0.0012557   -0.0619863  
N    7.0143611    0.0005548   -1.4314889  
C    7.8422287    0.0019360    0.8976401  
C    7.4178686    0.0024333    2.2877674  
O    8.2055925    0.0029965    3.2246729  
C    5.8864734    0.0021297    2.5953926  
O    5.5172082    0.0022369    3.7619705  
C    4.9477883    0.0016667    1.4761414  
H    8.9010988    0.0020958    0.6792261  
H    3.8891760    0.0016644    1.6976444  
H    5.6706931    0.0004913   -3.0958635  
C    3.3321168    0.0004716   -1.3379341  
C    2.6974177    0.0000118   -2.5332316  
C    1.2800432   -0.0002116   -2.2052842  
C    1.2395033    0.0000644   -0.7271298  
N    2.4394059    0.0005460   -0.2131041  
C    0.0000000    0.0000000    0.0000000  
C   -1.1468704    0.0000635   -0.7169542  
O   -2.3742206    0.0000074   -0.1695488  
C   -1.1388774    0.0001608   -2.2096352  
O   -2.2206238    0.0000906   -2.7970409  
C    0.1454514    0.0001818   -2.9324241  
H    3.1367978   -0.0000649   -3.5160956  
H   -2.9844350    0.0001027   -0.9290164  
H    0.1083567    0.0003684   -4.0135594  
C    0.0000000    0.0000000    1.4700000  
C    1.0541688    0.0001722    2.3260392  
C    0.5103138    0.0000454    3.6635956  
C   -0.9576371   -0.0002459    3.5155732  
N   -1.2018458    0.0001392    2.1615969  
C   -1.8348311   -0.0008317    4.5510609  
C   -1.2972847   -0.0009736    5.9014604  
O   -2.0050672   -0.0014265    6.9001319  
C    0.2542623   -0.0004184    6.0817573  
O    0.7184670   -0.0002256    7.2139121  
C    1.0974552   -0.0000873    4.8889129  
H    2.0940752    0.0005483    2.0517982  
H   -2.9081052   -0.0011668    4.4207061  
H    2.1707277    0.0000911    5.0223670  
H   -2.1128194   -0.0014912    1.7406791  
