60

C    6.8034988    2.1222355   -5.1907231  
C    6.9857955    1.6608068   -3.9076338  
C    8.1028025    0.7742815   -3.9387473  
C    8.5651109    0.7341563   -5.2791154  
N    7.7528596    1.5623383   -6.0132680  
C    9.6574278   -0.0413118   -5.6794661  
C   10.2948453   -0.7896756   -4.7089873  
O   11.3671194   -1.5644234   -5.0451513  
C    9.8482084   -0.7631272   -3.3663671  
O   10.5869539   -1.5627603   -2.5189093  
C    8.7705111    0.0014512   -2.9707477  
H    6.3866311    1.9292085   -3.0544307  
H    7.8453137    1.7434760   -6.9964367  
H   10.0146238   -0.0763455   -6.6994594  
H   11.6572699   -1.9969238   -4.2315052  
H   10.2199485   -1.4874337   -1.6327736  
H    6.0705043    2.8053279   -5.5845033  
C    4.7795901    0.0008674   -1.0815733  
C    5.8063529    0.0010472   -1.9702986  
C    7.0285665    0.0013952   -1.2015147  
C    6.6268092    0.0013742    0.2181264  
N    5.2509927    0.0014465    0.2224663  
C    7.4934505    0.0012526    1.2624621  
C    8.9169021    0.0013603    0.9686564  
O    9.7768360    0.0013258    1.8397561  
C    9.3650173    0.0016362   -0.5276716  
O   10.5607784    0.0020357   -0.7873207  
C    8.3375016    0.0014682   -1.5659693  
H    5.7176690    0.0011298   -3.0420957  
H    7.1779194    0.0011091    2.2965563  
H    4.6776564   -0.0001045    1.0460743  
C    3.3321168    0.0004716   -1.3379341  
C    2.6974177    0.0000118   -2.5332316  
C    1.2800432   -0.0002116   -2.2052842  
C    1.2395033    0.0000644   -0.7271298  
N    2.4394059    0.0005460   -0.2131041  
C    0.0000000    0.0000000    0.0000000  
C   -1.1468704    0.0000635   -0.7169542  
O   -2.3742206    0.0000074   -0.1695488  
C   -1.1388774    0.0001608   -2.2096352  
O   -2.2206238    0.0000906   -2.7970409  
C    0.1454514    0.0001818   -2.9324241  
H    3.1367978   -0.0000649   -3.5160956  
H   -2.9844350    0.0001027   -0.9290164  
H    0.1083567    0.0003684   -4.0135594  
C    2.5128556    2.1077716    2.9199648  
C    1.9592212    1.6432552    4.0696553  
C    0.8915788    0.7479214    3.6910360  
C    0.8684491    0.7287414    2.2159470  
N    1.8754542    1.5738793    1.8102719  
C    0.0000000    0.0000000    1.4700000  
C   -0.9772830   -0.8200135    2.1664417  
O   -1.8021297   -1.5120829    1.5842315  
C   -0.9711318   -0.8147624    3.7284083  
O   -1.7894187   -1.5009653    4.3257297  
C    0.0140216    0.0115358    4.4216297  
H    2.2638494    1.8988021    5.0689105  
H    0.0117648    0.0094386    5.5031631  
H    3.3327358    2.7953732    2.7900019  
H    2.1123206    1.7707734    0.8551938  
