62

C   -3.9133024   -2.1218144   -7.4669328  
C   -4.4892999   -1.6589724   -6.3065584  
C   -5.5381948   -0.7707197   -6.6879071  
C   -5.5551382   -0.7310456   -8.1056746  
N   -4.5545881   -1.5611484   -8.5466355  
C   -6.4645972    0.0457869   -8.8296936  
C   -7.3737067    0.7960044   -8.1093668  
O   -8.2843423    1.5721413   -8.7661535  
C   -7.3723240    0.7699339   -6.6943990  
O   -8.3388095    1.5714720   -6.1227477  
C   -6.4752336    0.0040100   -5.9794753  
H   -4.1895499   -1.9275659   -5.3080592  
H   -4.3332688   -1.7430046   -9.5088855  
H   -6.4825978    0.0804857   -9.9102835  
H   -8.8150352    2.0058126   -8.0853017  
H   -8.2694453    1.4963475   -5.1661141  
H   -3.0948385   -2.8064045   -7.6098050  
C   -3.2578655    0.0024039   -2.9908504  
C   -4.0046939    0.0033127   -1.8566891  
C   -5.3897520    0.0044627   -2.2646703  
C   -5.3886196    0.0041179   -3.7400651  
N   -4.0656854    0.0032561   -4.1178667  
C   -6.5062987    0.0045469   -4.5098036  
C   -7.7964683    0.0056314   -3.8404773  
O   -8.8606461    0.0061492   -4.4453120  
C   -7.8213913    0.0062654   -2.2786888  
O   -8.9017018    0.0074856   -1.7040695  
C   -6.5505228    0.0054371   -1.5584490  
H   -3.6282786    0.0033735   -0.8492543  
H   -6.5764550    0.0056781   -0.4772225  
H   -3.7375606    0.0012862   -5.0662218  
C    0.0000000    0.0000000    0.0000000  
C    1.0521667   -0.0011902   -0.8862342  
C    0.4917216   -0.0011957   -2.1979129  
C   -0.9187429    0.0003148   -2.0478680  
N   -1.1833171   -0.0009412   -0.7007912  
C   -1.7951702    0.0010350   -3.1372088  
C   -1.2375841    0.0005225   -4.4010424  
O   -2.0474217    0.0015360   -5.4997576  
C    0.1673577   -0.0013567   -4.5711964  
O    0.5673522   -0.0020688   -5.8915554  
C    1.0325769   -0.0023413   -3.4969890  
H    2.0953057   -0.0030649   -0.6200562  
H   -2.0989779    0.0102372   -0.2891821  
H   -1.4634887    0.0006498   -6.2693588  
H    1.5290708   -0.0033153   -5.9180049  
H    2.1042148   -0.0039610   -3.6584453  
C    3.2798086   -0.0005857    2.9199648  
C    2.5571146   -0.0005566    4.0696553  
C    1.1637436   -0.0001548    3.6910360  
C    1.1336965    0.0000200    2.2159470  
N    2.4483514    0.0001428    1.8102719  
C    0.0000000    0.0000000    1.4700000  
C   -1.2757367    0.0000186    2.1664417  
O   -2.3524596    0.0000640    1.5842315  
C   -1.2676493    0.0000873    3.7284083  
O   -2.3355761    0.0004100    4.3257297  
C    0.0181563   -0.0001760    4.4216297  
H    2.9547357   -0.0006076    5.0689105  
H    0.0150794   -0.0003319    5.5031631  
H    4.3498549   -0.0008612    2.7900019  
H    2.7563627   -0.0012824    0.8551938  
