64

C    9.9004161    0.7090644   -1.0465261  
C   11.2498626    0.4586343   -1.1400477  
C   11.5781501   -0.4510796   -0.0915977  
C   10.3784277   -0.7225895    0.6147155  
N    9.3795277   -0.0006751    0.0100222  
C   10.3271027   -1.5830119    1.7155458  
C   11.5083515   -2.1804625    2.1103655  
O   11.5149420   -3.0296879    3.1789096  
C   12.7155924   -1.9218361    1.4186293  
O   13.8058806   -2.5922184    1.9336065  
C   12.7670182   -1.0729099    0.3327168  
H   11.9159167    0.8806736   -1.8730199  
H    9.4159557   -1.7939892    2.2582252  
H   12.4269316   -3.3310039    3.2825885  
H   14.5794210   -2.3625418    1.4096893  
H   13.7064799   -0.8940244   -0.1770770  
H    9.2685370    1.3389139   -1.6490022  
C    5.6692779    0.0013336   -2.3388885  
C    4.7630507    0.0004755   -1.3275395  
C    5.5107326   -0.0007787   -0.0923043  
C    6.9370637   -0.0005501   -0.4696231  
N    6.9650299    0.0003506   -1.8451617  
C    7.9663628   -0.0010977    0.4148248  
C    7.6481553   -0.0021966    1.8330202  
O    8.5043591   -0.0028173    2.7077864  
C    6.1443527   -0.0027088    2.2553733  
O    5.8642069   -0.0039399    3.4464981  
C    5.1238530   -0.0017577    1.2101785  
H    4.0849829   -0.0019149    1.5109647  
H    5.4995508    0.0023846   -3.4033514  
H    7.7983617    0.0022629   -2.4042690  
C    3.3003548    0.0005276   -1.4738982  
C    2.5232817    0.0003497   -2.6090743  
C    1.1623204   -0.0001319   -2.1820101  
C    1.1711886    0.0000583   -0.7636140  
N    2.4852302   -0.0014919   -0.3662356  
C    0.0000000    0.0000000    0.0000000  
C   -1.2020379    0.0000520   -0.6806479  
O   -2.3759249    0.0003495    0.0157742  
C   -1.2314652   -0.0005112   -2.0955511  
O   -2.5054384   -0.0008036   -2.6250184  
C   -0.0764510   -0.0007271   -2.8495195  
H    2.8919962   -0.0005619   -3.6205297  
H    2.8036267    0.0088181    0.5858667  
H   -3.0835636    0.0000348   -0.6418823  
H   -2.4360038   -0.0011526   -3.5845925  
H   -0.1304090   -0.0013420   -3.9319089  
C    2.5311839    2.1237619    3.0120429  
C    1.9795631    1.6616747    1.8395852  
C    0.9223175    0.7739173    2.1983588  
C    0.8753926    0.7337535    3.6154372  
N    1.8668922    1.5631002    4.0777464  
C   -0.0496243   -0.0427881    4.3197917  
C   -0.9437528   -0.7922060    3.5801400  
O   -1.8685244   -1.5680278    4.2172520  
C   -0.9124520   -0.7656372    2.1655264  
O   -1.8671164   -1.5663939    1.5732860  
C    0.0000000    0.0000000    1.4700000  
H    2.3005065    1.9304404    0.8477417  
H    2.0679347    1.7444845    5.0445261  
H   -0.0904770   -0.0778569    5.3997470  
H   -2.3849669   -2.0011402    3.5251786  
H   -1.7775064   -1.4909735    0.6183591  
H    3.3468514    2.8078103    3.1724291  
