62

C   -7.0268235    1.8305750   -0.2727870  
C   -7.4767947    2.6372078    0.7466917  
C   -8.8990906    2.5307262    0.7650077  
C   -9.2629974    1.6372483   -0.2747980  
N   -8.1024927    1.2322334   -0.8861971  
C  -10.5909562    1.2961648   -0.5486154  
C  -11.5693572    1.8672129    0.2418366  
O  -12.8822453    1.5684449    0.0180628  
C  -11.2261827    2.7612236    1.2838504  
O  -12.3135525    3.2459842    1.9809712  
C   -9.9163453    3.0983732    1.5543707  
H   -6.8563161    3.2303535    1.3964447  
H   -8.0453214    0.5875158   -1.6536941  
H  -10.8748934    0.6159483   -1.3397459  
H  -13.3907772    2.0665323    0.6711858  
H  -11.9947612    3.8416414    2.6659299  
H   -9.6841038    3.7861641    2.3590356  
C   -4.5189885    2.1247807   -0.2046393  
C   -3.4217515    1.6624927   -0.8937164  
C   -3.9056841    0.7751588   -1.9002191  
C   -5.3180961    0.7354485   -1.7759557  
N   -5.6572032    1.5646458   -0.7357369  
C   -6.1291078   -0.0406017   -2.6094993  
C   -5.5029133   -0.7899850   -3.5864759  
O   -6.2471435   -1.5653363   -4.4278833  
C   -4.0948368   -0.7638645   -3.7259559  
O   -3.6222951   -1.5645230   -4.7452666  
C   -3.2941076    0.0012878   -2.9038237  
H   -2.3983557    1.9308560   -0.6946316  
H   -7.2061221   -0.0753236   -2.5198535  
H   -5.6225344   -1.9985110   -5.0241121  
H   -2.6635044   -1.4894251   -4.7714260  
H   -4.5796252    2.8086382    0.6245905  
C    0.0000000    0.0000000    0.0000000  
C    1.0541688   -0.0001723   -0.8560392  
C    0.5103136   -0.0000455   -2.1935956  
C   -0.9576373    0.0002461   -2.0455730  
N   -1.2018460   -0.0001389   -0.6915968  
C   -1.8348314    0.0008319   -3.0810607  
C   -1.2972851    0.0009739   -4.4314603  
O   -2.0050676    0.0014268   -5.4301316  
C    0.2542619    0.0004184   -4.6117572  
O    0.7184666    0.0002257   -5.7439122  
C    1.0974551    0.0000873   -3.4189129  
H    2.0940752   -0.0005484   -0.5817983  
H    2.1707276   -0.0000912   -3.5523673  
H   -2.1128194    0.0014915   -0.2706789  
C    1.0672568    0.0000697    2.3021913  
C    0.0000000    0.0000000    1.4700000  
C   -1.1601224    0.0000736    2.3478473  
C   -0.5938729    0.0000769    3.7138435  
N    0.7113367    0.0001554    3.6934124  
C   -1.4286986    0.0001879    4.8835240  
C   -2.7683114    0.0006799    4.6970523  
O   -3.6653903    0.0008304    5.6976972  
C   -3.3702025    0.0010610    3.3310774  
O   -4.5974910    0.0013779    3.2362962  
C   -2.4926826    0.0008943    2.1470656  
H   -0.9878360   -0.0000190    5.8697035  
H   -4.5324246    0.0012261    5.2533954  
H   -2.9677772    0.0012974    1.1752040  
H    2.1134392    0.0000545    2.0405121  
