62

C    3.9951588   -0.5513766   -9.0476499  
C    3.5073455    0.6806746   -8.6781162  
C    3.8748814    1.5992647   -9.7055939  
C    4.5912370    0.8640310  -10.6844662  
N    4.6476971   -0.4379675  -10.2529233  
C    5.1075873    1.4512234  -11.8435058  
C    4.8966818    2.8052372  -12.0177002  
O    5.3790380    3.4290916  -13.1317679  
C    4.1846944    3.5559367  -11.0521211  
O    4.0585447    4.8925762  -11.3696480  
C    3.6752533    2.9773687   -9.9083314  
H    5.0851551   -1.1946510  -10.7469275  
H    5.6545674    0.8964064  -12.5933036  
H    5.1251895    4.3581122  -13.0559692  
H    3.5657297    5.3269649  -10.6667666  
H    3.1342375    3.5779688   -9.1864878  
H    3.9304896   -1.5017802   -8.5461433  
C    3.9401659   -0.7297684   -4.5164159  
C    4.0974222   -0.5149780   -5.8480353  
C    3.0659753    0.4122204   -6.2496023  
C    2.2893659    0.7222461   -5.0340559  
N    2.8699641   -0.0020530   -4.0185824  
C    1.2252020    1.5635280   -4.9952719  
C    0.8173885    2.2063907   -6.2333959  
O   -0.1284207    2.9803730   -6.3019364  
C    1.6253360    1.8924315   -7.5328017  
O    1.2911306    2.4275068   -8.5812585  
C    2.7538829    0.9687189   -7.4492041  
H    4.8499670   -0.9558997   -6.4772237  
H    0.6692887    1.7773825   -4.0929762  
H    4.5159219   -1.3586207   -3.8569165  
C    3.2573670   -0.0002921   -1.5109382  
C    2.5379468   -0.0001711   -0.3591962  
C    1.1435043    0.0000330   -0.7338498  
C    1.1092608   -0.0000085   -2.2088474  
N    2.4227562    0.0001906   -2.6182610  
C   -0.0265533   -0.0002525   -2.9515663  
C   -1.3003033   -0.0002641   -2.2514979  
O   -2.3786785   -0.0004132   -2.8306425  
C   -1.2877724    0.0000310   -0.6895608  
O   -2.3539956    0.0003306   -0.0892035  
C    0.0000000    0.0000000    0.0000000  
H    2.9384091   -0.0000370    0.6389240  
H   -0.0296290   -0.0004088   -4.0327231  
H    4.3270394   -0.0004767   -1.6439445  
C    0.8576279    0.7185626    2.2703808  
C    0.0000000    0.0000000    1.4700000  
C   -0.8668858   -0.7285659    2.3373528  
C   -0.4876752   -0.4117774    3.6669281  
N    0.5635254    0.4678311    3.5902241  
C   -1.1297612   -0.9515493    4.7854808  
C   -2.1738724   -1.8268314    4.5576857  
O   -2.8357962   -2.3827064    5.6140350  
C   -2.5667212   -2.1555554    3.2384331  
O   -3.6226318   -3.0413663    3.1773122  
C   -1.9335634   -1.6236449    2.1344818  
H    1.0363952    0.8769718    4.3757045  
H   -0.8454472   -0.7142436    5.8013813  
H   -3.5178062   -2.9546422    5.2385129  
H   -3.8247440   -3.2102924    2.2519915  
H   -2.2566033   -1.8942483    1.1360343  
H    1.6567807    1.3889844    2.0042067  
