64

C    2.6640389   -2.8811873   -5.6027104  
C    3.2364374   -3.5901247   -4.5720628  
C    4.3175760   -4.3352565   -5.1293047  
C    4.3569846   -4.0380274   -6.5156770  
N    3.3382724   -3.1536257   -6.7699878  
C    5.3005047   -4.5975378   -7.3825720  
C    6.2211995   -5.4728127   -6.8399938  
O    7.1648659   -6.0475182   -7.6413822  
C    6.1977999   -5.7821852   -5.4592128  
O    7.1796358   -6.6706439   -5.0719354  
C    5.2671120   -5.2307966   -4.6034582  
H    2.9136814   -3.5732383   -3.5451564  
H    3.1259584   -2.7551925   -7.6667349  
H    5.3357614   -4.3751961   -8.4401755  
H    7.6982865   -6.6158934   -7.0707001  
H    7.0936702   -6.8257471   -4.1263366  
H    5.2737621   -5.4868414   -3.5504271  
C    1.5214681   -1.9563162   -5.5959991  
C    0.7564344   -1.5844073   -4.5433899  
C   -0.2212177   -0.6607930   -5.0980362  
C    0.1090029   -0.5886732   -6.5375977  
N    1.1296218   -1.3460487   -6.8354367  
C   -0.6386058    0.2326998   -7.4494710  
C   -1.6694953    0.9491468   -6.9461763  
O   -2.4518892    1.7570649   -7.6818187  
C   -2.0277815    0.8972570   -5.4980401  
O   -2.9783775    1.5758982   -5.1094083  
C   -1.2456329    0.0471727   -4.5828766  
H    0.8445932   -1.8981613   -3.5172991  
H   -0.3750446    0.2664711   -8.4965174  
H   -3.0926575    2.1264000   -7.0476575  
C    1.1243410    0.0099923   -0.7919003  
C    0.7474076    0.0234544   -2.1148543  
C   -0.6787381    0.0234490   -2.1414700  
C   -1.1201745    0.0098592   -0.7935546  
N    0.0000000    0.0000000    0.0000000  
C   -2.4730816    0.0063709   -0.4408240  
C   -3.3971958    0.0170982   -1.4675058  
O   -4.7313517    0.0146259   -1.1793471  
C   -2.9763648    0.0303504   -2.8186324  
O   -4.0166480    0.0395118   -3.7247624  
C   -1.6418562    0.0335260   -3.1673481  
H    1.4178717    0.0310972   -2.9571209  
H   -2.8160166   -0.0041111    0.5845966  
H   -5.1938818    0.0230867   -2.0274384  
H   -3.6464675    0.0482293   -4.6127343  
H    2.1062467    0.0052819   -0.3505407  
C    0.8676693    0.7151171    2.2619005  
C    0.5875920    0.4624972    3.5848544  
C   -0.5048400   -0.4542819    3.6114698  
C   -0.8517165   -0.7276451    2.2635546  
N    0.0000000    0.0000000    1.4700000  
C   -1.8902865   -1.5946756    1.9108239  
C   -2.5912627   -2.1969500    2.9375057  
O   -3.6148162   -3.0527051    2.6493466  
C   -2.2603868   -1.9365747    4.2886322  
O   -3.0513550   -2.6123276    5.1947621  
C   -1.2361111   -1.0811317    4.6373480  
H    1.1060808    0.8876438    4.4271209  
H   -2.1597133   -1.8070987    0.8854031  
H   -3.9636755   -3.3565188    3.4974381  
H   -2.7621927   -2.3810384    6.0827341  
H   -1.0058879   -0.9010589    5.6809233  
H    1.6167816    1.3499334    1.8205408  
