62

C    4.2158881   -2.1201557    3.3399840  
C    4.4540426   -1.6209511    4.5995654  
C    5.5761129   -0.7464567    4.4955594  
C    5.9834495   -0.7518230    3.1368932  
N    5.1376141   -1.5976052    2.4632224  
C    7.0644383    0.0010570    2.6684676  
C    7.7464633    0.7736595    3.5883078  
O    8.8096014    1.5285375    3.1846853  
C    7.3554381    0.7919553    4.9483011  
O    8.1345003    1.6105528    5.7396947  
C    6.2892829    0.0492632    5.4111702  
H    3.8892687   -1.8587885    5.4846965  
H    5.1758605   -1.7942414    1.4794275  
H    9.1363277    1.9830694    3.9720320  
H    7.8037953    1.5655266    6.6420307  
H    6.0133054    0.0833318    6.4586207  
H    3.4623553   -2.8087228    2.9979002  
C    4.7795901    0.0008674   -1.0815733  
C    5.8063529    0.0010477   -1.9702986  
C    7.0285665    0.0013959   -1.2015143  
C    6.6268087    0.0013743    0.2181269  
N    5.2509927    0.0014463    0.2224664  
C    7.4934504    0.0012526    1.2624628  
C    8.9169020    0.0013607    0.9686573  
O    9.7768349    0.0013262    1.8397569  
C    9.3650172    0.0016372   -0.5276709  
O   10.5607782    0.0020368   -0.7873195  
C    8.3375015    0.0014691   -1.5659688  
H    5.7176690    0.0011304   -3.0420957  
H    8.6560847    0.0014569   -2.5995201  
H    4.6776560   -0.0001051    1.0460742  
C    3.3321168    0.0004716   -1.3379341  
C    2.6974177    0.0000118   -2.5332316  
C    1.2800432   -0.0002116   -2.2052842  
C    1.2395033    0.0000644   -0.7271298  
N    2.4394059    0.0005460   -0.2131041  
C    0.0000000    0.0000000    0.0000000  
C   -1.1468704    0.0000635   -0.7169542  
O   -2.3742206    0.0000074   -0.1695488  
C   -1.1388774    0.0001608   -2.2096352  
O   -2.2206238    0.0000906   -2.7970409  
C    0.1454514    0.0001818   -2.9324241  
H    3.1367978   -0.0000649   -3.5160956  
H   -2.9844350    0.0001027   -0.9290164  
H    0.1083567    0.0003684   -4.0135594  
C    0.8576279    0.7185626    2.2703808  
C    0.0000000    0.0000000    1.4700000  
C   -0.8668858   -0.7285659    2.3373528  
C   -0.4876752   -0.4117774    3.6669281  
N    0.5635254    0.4678311    3.5902241  
C   -1.1297612   -0.9515493    4.7854808  
C   -2.1738724   -1.8268314    4.5576857  
O   -2.8357962   -2.3827064    5.6140350  
C   -2.5667212   -2.1555554    3.2384331  
O   -3.6226318   -3.0413663    3.1773122  
C   -1.9335634   -1.6236449    2.1344818  
H    1.0363952    0.8769718    4.3757045  
H   -0.8454472   -0.7142436    5.8013813  
H   -3.5178062   -2.9546422    5.2385129  
H   -3.8247440   -3.2102924    2.2519915  
H   -2.2566033   -1.8942483    1.1360343  
H    1.6567807    1.3889844    2.0042067  
