60

C    7.0850020   -1.9921905   -6.5255490  
C    8.1753425   -2.8309332   -6.5139181  
C    8.7319472   -2.8084678   -7.8270391  
C    7.9323360   -1.9307893   -8.6030730  
N    6.9401629   -1.4539642   -7.7828006  
C    8.1896556   -1.6665632   -9.9516870  
C    9.2741103   -2.2996503  -10.5273070  
O    9.5708545   -2.0771246  -11.8408657  
C   10.0835711   -3.1790959   -9.7695706  
O   11.1252168   -3.7318152  -10.4856849  
C    9.8301499   -3.4404388   -8.4391571  
H    8.5257048   -3.3910118   -5.6638879  
H    6.2266260   -0.8017102   -8.0537455  
H    7.5839519   -0.9987839  -10.5486765  
H   10.3530092   -2.6087782  -12.0379548  
H   11.6219154   -4.3123991   -9.9010338  
H   10.4676686   -4.1189156   -7.8844336  
C    6.1837013   -2.1071893   -4.1730104  
C    6.1473624   -1.6429265   -5.4486332  
C    5.0179317   -0.7478965   -5.5388751  
C    4.3948023   -0.7286186   -4.2016663  
N    5.1487785   -1.5734154   -3.4201754  
C    3.2973506   -0.0000934   -3.8752374  
C    2.6891815    0.8195676   -4.9100425  
O    1.6983688    1.5114227   -4.7152919  
C    3.3322637    0.8142072   -6.3334970  
O    2.8288284    1.5001137   -7.2128977  
C    4.5147646   -0.0118350   -6.5641428  
H    4.9540960   -0.0098156   -7.5524282  
H    6.8793285   -2.7945271   -3.7196252  
H    4.9752873   -1.7701682   -2.4515493  
C    3.3321174    0.0004714   -1.3379332  
C    2.6974186    0.0000115   -2.5332308  
C    1.2800441   -0.0002119   -2.2052838  
C    1.2395035    0.0000643   -0.7271293  
N    2.4394063    0.0005458   -0.2131034  
C    0.0000000    0.0000000    0.0000000  
C   -1.1468701    0.0000634   -0.7169542  
O   -2.3742201    0.0000072   -0.1695492  
C   -1.1388767    0.0001606   -2.2096354  
O   -2.2206229    0.0000903   -2.7970413  
C    0.1454526    0.0001815   -2.9324239  
H   -2.9844344    0.0001023   -0.9290168  
H    0.1083580    0.0003680   -4.0135594  
H    4.3940040    0.0007617   -1.1498630  
C    2.4951002    2.0940188    2.9809380  
C    1.9440701    1.6314916    1.8291961  
C    0.8759964    0.7350050    2.2038498  
C    0.8497377    0.7130254    3.6788474  
N    1.8560616    1.5571714    4.0882609  
C   -0.0205033   -0.0168748    4.4215661  
C   -0.9962600   -0.8356168    3.7214979  
O   -1.8224391   -1.5286685    4.3006425  
C   -0.9864710   -0.8277881    2.1595606  
O   -1.8030528   -1.5133726    1.5592035  
C    0.0000000    0.0000000    1.4700000  
H    2.2509283    1.8888011    0.8310761  
H   -0.0229599   -0.0187323    5.5027230  
H    3.3143982    2.7817323    3.1139444  
H    2.0889452    1.7545833    5.0442112  
