66

C    9.7891286   -0.6545465   -2.7140509  
C   11.1342478   -0.3906600   -2.8301820  
C   11.2871649    0.5231162   -3.9147234  
C    9.9898773    0.7831213   -4.4259690  
N    9.1038737    0.0507500   -3.6754723  
C    9.7601514    1.6438400   -5.5035491  
C   10.8600349    2.2534204   -6.0752524  
O   10.6926356    3.1034984   -7.1299363  
C   12.1623649    2.0063851   -5.5795427  
O   13.1530557    2.6880742   -6.2556877  
C   12.3897657    1.1571751   -4.5166893  
H   11.9099454   -0.8065629   -2.2102543  
H    8.7738899    1.8460842   -5.8979942  
H   11.5745445    3.4140316   -7.3729811  
H   14.0006546    2.4657651   -5.8584979  
H   13.3985882    0.9873302   -4.1590448  
H    9.2644494   -1.2911729   -2.0224029  
C    5.7082907    0.0090643   -0.7672188  
C    6.9603232    0.0234367   -1.3370211  
C    6.7741716    0.0255360   -2.7512147  
C    5.3755334    0.0122332   -2.9869293  
N    4.7577216    0.0005129   -1.7610467  
C    4.8251805    0.0106399   -4.2721909  
C    5.7027276    0.0230022   -5.3389323  
O    5.2190195    0.0224152   -6.6152704  
C    7.1014707    0.0359992   -5.1240719  
O    7.8425041    0.0469340   -6.2877270  
C    7.6451124    0.0373055   -3.8564053  
H    7.8930771    0.0303198   -0.7995115  
H    3.7601130    0.0003867   -4.4585451  
H    5.9887367    0.0317843   -7.1989761  
H    8.7757168    0.0553462   -6.0539578  
H    5.4181433    0.0027912    0.2694752  
C    3.3041270    0.0001177   -1.5420435  
C    2.5845370   -0.0004780   -0.3695856  
C    1.2040004   -0.0000007   -0.7283590  
C    1.1422370    0.0006038   -2.1454373  
N    2.4348634    0.0026110   -2.6077469  
C   -0.0655187    0.0008799   -2.8497918  
C   -1.2321769    0.0002326   -2.1101398  
O   -2.4392822    0.0001149   -2.7472517  
C   -1.1911211   -0.0000007   -0.6955263  
O   -2.4371526   -0.0002319   -0.1032858  
C    0.0000000    0.0000000    0.0000000  
H    3.0031534   -0.0000661    0.6222578  
H    2.7054623   -0.0071098   -3.5745266  
H   -0.1193555    0.0014846   -3.9297472  
H   -3.1132992   -0.0000646   -2.0551783  
H   -2.3200279   -0.0004070    0.8516411  
C    0.0000000    0.0000000    1.4700000  
C    1.0521667    0.0011902    2.3562342  
C    0.4917218    0.0011957    3.6679131  
C   -0.9187428   -0.0003148    3.5178682  
N   -1.1833171    0.0009411    2.1707914  
C   -1.7951701   -0.0010350    4.6072090  
C   -1.2375837   -0.0005224    5.8710424  
O   -2.0474215   -0.0015360    6.9697579  
C    0.1673580    0.0013566    6.0411963  
O    0.5673524    0.0020687    7.3615553  
C    1.0325770    0.0023412    4.9669890  
H    2.0953057    0.0030649    2.0900562  
H   -2.0989778   -0.0102372    1.7591824  
H   -2.8710934   -0.0020419    4.4995513  
H   -1.4634884   -0.0006497    7.7393593  
H    1.5290710    0.0033153    7.3880045  
H    2.1042148    0.0039609    5.1284455  
