64

C   -0.3578454   -0.9851472   -9.4725668  
C   -0.4801244    0.0909632   -8.6243318  
C   -0.7501228    1.2323737   -9.4360487  
C   -0.7815029    0.7875159  -10.7825409  
N   -0.5376122   -0.5633932  -10.7691616  
C   -1.0233871    1.6478005  -11.8578041  
C   -1.2377951    2.9814078  -11.5684959  
O   -1.4789870    3.8648323  -12.5806238  
C   -1.2100663    3.4444822  -10.2314819  
O   -1.4414144    4.7988947  -10.1074321  
C   -0.9712332    2.5964035   -9.1702331  
H   -0.5088473   -1.1559841  -11.5790930  
H   -1.0484615    1.3150165  -12.8863119  
H   -1.5989113    4.7290689  -12.1659222  
H   -1.4055267    5.0293437   -9.1740469  
H   -0.9558609    2.9800922   -8.1568108  
H   -0.1552030   -2.0199069   -9.2553869  
C    2.3027745   -2.1230392   -5.9144753  
C    1.6515179   -1.6244163   -7.0188784  
C    0.6310517   -0.7498911   -6.5409098  
C    0.7085806   -0.7546401   -5.1246139  
N    1.7328872   -1.6001002   -4.7773247  
C   -0.1496415   -0.0015615   -4.3176961  
C   -1.1033077    0.7706087   -4.9520869  
O   -1.9667115    1.5256559   -4.2121874  
C   -1.1966340    0.7882866   -6.3641049  
O   -2.1980397    1.6065094   -6.8447735  
C   -0.3504845    0.0453981   -7.1607692  
H    1.8827166   -1.8626507   -8.0429807  
H    2.0305490   -1.7962856   -3.8387672  
H   -2.5411495    1.9798216   -4.8422817  
H   -2.1929082    1.5610742   -7.8057690  
H    3.1277796   -2.8114384   -5.8478929  
C    3.3003543    0.0005276   -1.4738987  
C    2.5232814    0.0003497   -2.6090747  
C    1.1623200   -0.0001320   -2.1820103  
C    1.1711883    0.0000582   -0.7636140  
N    2.4852300   -0.0014919   -0.3662360  
C    0.0000000    0.0000000    0.0000000  
C   -1.2020384    0.0000519   -0.6806477  
O   -2.3759249    0.0003493    0.0157743  
C   -1.2314656   -0.0005115   -2.0955510  
O   -2.5054392   -0.0008039   -2.6250180  
C   -0.0764516   -0.0007274   -2.8495195  
H    2.8919955   -0.0005620   -3.6205304  
H    2.8036267    0.0088183    0.5858662  
H   -3.0835638    0.0000347   -0.6418818  
H   -2.4360047   -0.0011529   -3.5845921  
H    4.3715549    0.0004895   -1.3667136  
C    2.5128556    2.1077716    2.9199648  
C    1.9592212    1.6432552    4.0696553  
C    0.8915788    0.7479214    3.6910360  
C    0.8684491    0.7287414    2.2159470  
N    1.8754542    1.5738793    1.8102719  
C    0.0000000    0.0000000    1.4700000  
C   -0.9772830   -0.8200135    2.1664417  
O   -1.8021297   -1.5120829    1.5842315  
C   -0.9711318   -0.8147624    3.7284083  
O   -1.7894187   -1.5009653    4.3257297  
C    0.0140216    0.0115358    4.4216297  
H    2.2638494    1.8988021    5.0689105  
H    0.0117648    0.0094386    5.5031631  
H    3.3327358    2.7953732    2.7900019  
H    2.1123206    1.7707734    0.8551938  
