64

C    2.8126089   -0.0038053   -7.2602046  
C    3.4366491   -0.0060513   -6.0342210  
C    4.8413495   -0.0078196   -6.2820382  
C    5.0156448   -0.0062468   -7.6897115  
N    3.7638911   -0.0057718   -8.2533851  
C    6.2756039   -0.0070294   -8.2957582  
C    7.3797256   -0.0091367   -7.4656450  
O    8.6336868   -0.0096319   -8.0047140  
C    7.2262664   -0.0111048   -6.0587818  
O    8.4212360   -0.0135001   -5.3692991  
C    5.9835924   -0.0106073   -5.4602124  
H    2.9404578   -0.0074804   -5.0788231  
H    3.5710696    0.0058565   -9.2386087  
H    6.4151806   -0.0059839   -9.3680079  
H    9.2505132   -0.0114662   -7.2612163  
H    8.2285186   -0.0146903   -4.4267160  
H    5.8973806   -0.0123362   -4.3799150  
C   -0.8712823    0.0001712   -4.7267111  
C    0.4339912   -0.0007979   -5.1611396  
C    0.3982147   -0.0008777   -6.5870849  
C   -0.9677829    0.0003618   -6.9691522  
N   -1.7116540   -0.0009770   -5.8153444  
C   -1.3793555    0.0009425   -8.3053389  
C   -0.3940115    0.0005664   -9.2734678  
O   -0.7402461    0.0014533  -10.5937469  
C    0.9742899   -0.0010423   -8.9121275  
O    1.8341073   -0.0016465   -9.9910416  
C    1.3810434   -0.0018892   -7.5941454  
H    1.3048042   -0.0024816   -4.5281506  
H   -2.7146164    0.0100177   -5.7714419  
H   -2.4188447    0.0017430   -8.6031023  
H    0.0868493    0.0006963  -11.0929228  
H    2.7374599   -0.0027101   -9.6600480  
C    1.0965515    0.0001358   -0.8010304  
C    0.0000000    0.0000000    0.0000000  
C   -1.1546562    0.0001470   -0.8669514  
C   -0.6372012    0.0003520   -2.2486282  
N    0.7342873    0.0007338   -2.1395014  
C   -1.4147737    0.0001354   -3.3608717  
C   -2.8576047   -0.0001047   -3.1854463  
O   -3.6427778   -0.0002491   -4.1244908  
C   -3.4275837   -0.0000725   -1.7311667  
O   -4.6406828    0.0000333   -1.5710061  
C   -2.4891866   -0.0001090   -0.6116745  
H   -2.8919121   -0.0002919    0.3920865  
H    2.1388272    0.0000662   -0.5261647  
H    1.3735873   -0.0006098   -2.9130261  
C    2.5311839    2.1237619    3.0120429  
C    1.9795631    1.6616747    1.8395852  
C    0.9223175    0.7739173    2.1983588  
C    0.8753926    0.7337535    3.6154372  
N    1.8668922    1.5631002    4.0777464  
C   -0.0496243   -0.0427881    4.3197917  
C   -0.9437528   -0.7922060    3.5801400  
O   -1.8685244   -1.5680278    4.2172520  
C   -0.9124520   -0.7656372    2.1655264  
O   -1.8671164   -1.5663939    1.5732860  
C    0.0000000    0.0000000    1.4700000  
H    2.3005065    1.9304404    0.8477417  
H    2.0679347    1.7444845    5.0445261  
H   -0.0904770   -0.0778569    5.3997470  
H   -2.3849669   -2.0011402    3.5251786  
H   -1.7775064   -1.4909735    0.6183591  
H    3.3468514    2.8078103    3.1724291  
