62

C    2.3576645   -1.9345381   -7.7303361  
C    3.4433947   -2.7658483   -7.8806100  
C    3.8193484   -2.7152752   -9.2556366  
C    2.9193743   -1.8289014   -9.9008609  
N    2.0437138   -1.3741534   -8.9463757  
C    2.9929411   -1.5380133  -11.2664227  
C    3.9934374   -2.1528846  -11.9938281  
O    4.1109417   -1.9040666  -13.3307249  
C    4.9007350   -3.0406201  -11.3680845  
O    5.8396765   -3.5728342  -12.2274339  
C    4.8285851   -3.3282616  -10.0210207  
H    3.9066741   -3.3391367   -7.0959406  
H    1.2975420   -0.7219125   -9.1069696  
H    2.3099767   -0.8634783  -11.7641831  
H    4.8620217   -2.4266020  -13.6407289  
H    6.4125873   -4.1607102  -11.7256584  
H    5.5374747   -4.0124917   -9.5695967  
C    1.7926687   -2.1130094   -5.2695612  
C    1.5709109   -1.6116993   -6.5312979  
C    0.4476590   -0.7372602   -6.4404054  
C    0.0227367   -0.7448287   -5.0871465  
N    0.8596942   -1.5918117   -4.4039632  
C   -1.0641734    0.0073898   -4.6315339  
C   -1.7341471    0.7815829   -5.5588624  
O   -2.8023667    1.5359045   -5.1678127  
C   -1.3255168    0.8020852   -6.9136384  
O   -2.0941820    1.6220711   -7.7137142  
C   -0.2535110    0.0600468   -7.3638698  
H    0.8086763   -1.7900694   -3.4210734  
H   -3.1188177    1.9917709   -5.9585779  
H   -1.7518073    1.5785010   -8.6117589  
H    0.0360304    0.0958170   -8.4075967  
H    2.5416453   -2.8022207   -4.9188733  
C    1.1319248    0.0015675   -0.8009270  
C    0.7969916    0.0034959   -2.1169404  
C   -0.6453336    0.0035703   -2.1842672  
C   -1.1266831    0.0015415   -0.7896027  
N    0.0000000    0.0000000    0.0000000  
C   -2.4346129    0.0013924   -0.4276297  
C   -3.4350110    0.0031352   -1.4820184  
O   -4.6384610    0.0030897   -1.2583919  
C   -2.9478958    0.0050460   -2.9661075  
O   -3.7809377    0.0062160   -3.8623775  
C   -1.5113821    0.0053068   -3.2312125  
H    1.4821240    0.0045436   -2.9459192  
H   -2.7664565    0.0000185    0.6013447  
H    2.1104318    0.0009428   -0.3488058  
C    2.4951002    2.0940188    2.9809380  
C    1.9440701    1.6314916    1.8291961  
C    0.8759964    0.7350050    2.2038498  
C    0.8497377    0.7130254    3.6788474  
N    1.8560616    1.5571714    4.0882609  
C   -0.0205033   -0.0168748    4.4215661  
C   -0.9962600   -0.8356168    3.7214979  
O   -1.8224391   -1.5286685    4.3006425  
C   -0.9864710   -0.8277881    2.1595606  
O   -1.8030528   -1.5133726    1.5592035  
C    0.0000000    0.0000000    1.4700000  
H    2.2509283    1.8888011    0.8310761  
H   -0.0229599   -0.0187323    5.5027230  
H    3.3143982    2.7817323    3.1139444  
H    2.0889452    1.7545833    5.0442112  
