60

C   -0.1553518    0.7067192   -7.3022016  
C   -1.1174746    0.4565606   -8.2531007  
C   -0.5479641   -0.4535114   -9.1922633  
C    0.7748821   -0.7255093   -8.7586490  
N    0.9815271   -0.0035290   -7.6094495  
C    1.6346049   -1.5863770   -9.4475419  
C    1.1499926   -2.1837783  -10.5949035  
O    1.9472129   -3.0334257  -11.3059264  
C   -0.1668889   -1.9246684  -11.0437944  
O   -0.5012410   -2.5950653  -12.2022935  
C   -1.0154868   -1.0753033  -10.3648338  
H   -2.1075715    0.8790060   -8.2686084  
H    2.6439561   -1.7977270   -9.1223615  
H    1.4221764   -3.3346243  -12.0588408  
H   -1.4055613   -2.3650470  -12.4366031  
H   -2.0188851   -0.8960528  -10.7329930  
H   -0.1896412    1.3366976   -6.4299001  
C    1.6707638   -0.0012342   -3.2725973  
C    3.0286798   -0.0026502   -3.2608754  
C    3.4615711   -0.0042638   -4.6383506  
C    2.2357545   -0.0036380   -5.4594256  
N    1.1849517   -0.0021877   -4.5713373  
C    2.2192683   -0.0043573   -6.8164193  
C    3.4939012   -0.0060731   -7.5148769  
O    3.5845456   -0.0068917   -8.7355668  
C    4.8047152   -0.0070137   -6.6654233  
O    5.8837806   -0.0087651   -7.2423779  
C    4.6947478   -0.0058259   -5.2087976  
H    3.6555464   -0.0027555   -2.3870037  
H    5.6070596   -0.0062825   -4.6279272  
H    0.2146122    0.0000906   -4.8272343  
C    1.0965515    0.0001359   -0.8010305  
C    0.0000000    0.0000000    0.0000000  
C   -1.1546564    0.0001470   -0.8669509  
C   -0.6372018    0.0003521   -2.2486279  
N    0.7342868    0.0007339   -2.1395011  
C   -1.4147743    0.0001355   -3.3608714  
C   -2.8576049   -0.0001046   -3.1854455  
O   -3.6427782   -0.0002491   -4.1244898  
C   -3.4275842   -0.0000725   -1.7311664  
O   -4.6406831    0.0000334   -1.5710053  
C   -2.4891868   -0.0001091   -0.6116742  
H   -1.0150456    0.0001619   -4.3654242  
H   -2.8919123   -0.0002920    0.3920869  
H    2.1388270    0.0000663   -0.5261648  
C    0.0000000    0.0000000    1.4700000  
C    1.0662921    0.0000102    2.3034270  
C    0.4961870   -0.0000064    3.6418889  
C   -0.9663858    0.0000850    3.4240247  
N   -1.2632773    0.0000084    2.1528658  
C   -1.8985362    0.0000517    4.5177257  
C   -1.3925775   -0.0004564    5.7720543  
O   -2.1456383   -0.0005410    6.8851312  
C    0.0786232   -0.0009323    6.0245000  
O    0.4683759   -0.0012588    7.1921102  
C    1.0143166   -0.0008442    4.8859032  
H    2.1107198   -0.0000632    2.0421868  
H   -2.9622183    0.0003270    4.3293377  
H   -1.5042274   -0.0009692    7.6184419  
H    2.0724152   -0.0013148    5.1109744  
