64

C    0.0139748    0.0003878   -4.4216235  
C    1.0636167    0.0005122   -5.3108477  
C    0.4994429    0.0000636   -6.6209271  
C   -0.9105895   -0.0000385   -6.4668698  
N   -1.1713294   -0.0017871   -5.1190459  
C   -1.7901128   -0.0001499   -7.5537132  
C   -1.2361239    0.0001487   -8.8191271  
O   -2.0490844    0.0004072   -9.9155342  
C    0.1683294   -0.0001210   -8.9932775  
O    0.5645665   -0.0001916  -10.3147688  
C    1.0366014   -0.0002845   -7.9215365  
H    2.1075102   -0.0002242   -5.0476380  
H   -2.0858272    0.0082990   -4.7048324  
H   -2.8657257   -0.0003722   -7.4429955  
H   -1.4673427    0.0002905  -10.6867940  
H    1.5262067   -0.0003495  -10.3439542  
H    2.1077765   -0.0006721   -8.0860403  
C    3.2798089    0.0005856   -1.4499642  
C    2.5571149    0.0005566   -2.5996548  
C    1.1637440    0.0001548   -2.2210358  
C    1.1336966   -0.0000200   -0.7459468  
N    2.4483517   -0.0001428   -0.3402714  
C    0.0000000    0.0000000    0.0000000  
C   -1.2757362   -0.0000187   -0.6964415  
O   -2.3524596   -0.0000640   -0.1142317  
C   -1.2676489   -0.0000874   -2.2584083  
O   -2.3355758   -0.0004101   -2.8557300  
C    0.0181567    0.0001759   -2.9516296  
H    2.9547363    0.0006074   -3.5989101  
H    2.7563627    0.0012824    0.6148067  
C    6.6001532    0.0019435   -4.3712982  
C    7.6333565    0.0021448   -3.4630268  
C    7.0453170    0.0020500   -2.1634845  
C    5.6383377    0.0015003   -2.3433035  
N    5.4022911    0.0034001   -3.6956701  
C    4.7390854    0.0009614   -1.2727274  
C    5.2698386    0.0006708    0.0026071  
O    4.4369625   -0.0002076    1.0839629  
C    6.6708717    0.0015856    0.2024139  
O    7.0428742    0.0015761    1.5309311  
C    7.5585991    0.0023907   -0.8532686  
H    8.6818886    0.0034415   -3.7071001  
H    4.4955265   -0.0070441   -4.1265414  
H    5.0045015    0.0000322    1.8657326  
H    8.0038197    0.0021942    1.5776988  
H    8.6265865    0.0032638   -0.6692011  
H    6.6229035    0.0023219   -5.4476078  
C    0.8576279    0.7185626    2.2703808  
C    0.0000000    0.0000000    1.4700000  
C   -0.8668858   -0.7285659    2.3373528  
C   -0.4876752   -0.4117774    3.6669281  
N    0.5635254    0.4678311    3.5902241  
C   -1.1297612   -0.9515493    4.7854808  
C   -2.1738724   -1.8268314    4.5576857  
O   -2.8357962   -2.3827064    5.6140350  
C   -2.5667212   -2.1555554    3.2384331  
O   -3.6226318   -3.0413663    3.1773122  
C   -1.9335634   -1.6236449    2.1344818  
H    1.0363952    0.8769718    4.3757045  
H   -0.8454472   -0.7142436    5.8013813  
H   -3.5178062   -2.9546422    5.2385129  
H   -3.8247440   -3.2102924    2.2519915  
H   -2.2566033   -1.8942483    1.1360343  
H    1.6567807    1.3889844    2.0042067  
