60

C   -0.0456301   -0.0074895   -8.8209595  
C    0.7274565   -0.6820527   -9.7373496  
C    0.2503704   -0.3194644  -11.0317673  
C   -0.8237901    0.5869369  -10.8406071  
N   -0.9782910    0.7529937   -9.4866611  
C   -1.5344038    1.1524817  -11.9036107  
C   -1.1535266    0.7967709  -13.1829002  
O   -1.8132774    1.3198082  -14.2572253  
C   -0.0845652   -0.1063246  -13.3939843  
O    0.1733930   -0.3608903  -14.7251489  
C    0.6167414   -0.6648443  -12.3457724  
H    1.5351078   -1.3537783   -9.5018117  
H   -1.6576533    1.3485757   -9.0487908  
H   -2.3541300    1.8438012  -11.7645828  
H   -1.3944771    0.9458516  -15.0433725  
H    0.9084247   -0.9792421  -14.7796787  
H    1.4308342   -1.3537684  -12.5384245  
C    2.5563882   -2.1074461   -5.9371925  
C    1.9637245   -1.6426522   -7.0671445  
C    0.9098266   -0.7472310   -6.6519876  
C    0.9372953   -0.7283019   -5.1769697  
N    1.9574936   -1.5736540   -4.8062056  
C    0.0950446    0.0004351   -4.4015596  
C   -0.9054231    0.8207083   -5.0639425  
O   -1.7097172    1.5127953   -4.4536742  
C   -0.9528375    0.8157257   -6.6252025  
O   -1.7910234    1.5021485   -7.1939976  
C    0.0078424   -0.0105939   -7.3519361  
H    2.2338702   -1.8980703   -8.0763008  
H    3.3801406   -2.7951875   -5.8355355  
H    2.2269418   -1.7707467   -3.8598447  
C    3.3321173    0.0004713   -1.3379338  
C    2.6974181    0.0000116   -2.5332314  
C    1.2800438   -0.0002119   -2.2052841  
C    1.2395034    0.0000643   -0.7271299  
N    2.4394062    0.0005460   -0.2131038  
C    0.0000000    0.0000000    0.0000000  
C   -1.1468702    0.0000634   -0.7169543  
O   -2.3742203    0.0000074   -0.1695487  
C   -1.1388770    0.0001607   -2.2096355  
O   -2.2206234    0.0000905   -2.7970411  
C    0.1454522    0.0001815   -2.9324241  
H    3.1367984   -0.0000653   -3.5160950  
H   -2.9844346    0.0001026   -0.9290167  
H    4.3940038    0.0007618   -1.1498640  
C    2.5528530    2.1414826    2.8079335  
C    2.0663498    1.7338582    4.0032312  
C    0.9804344    0.8229586    3.6752840  
C    0.9495562    0.7966882    2.1971295  
N    1.8690446    1.5676019    1.6831036  
C    0.0000000    0.0000000    1.4700000  
C   -0.8785127   -0.7372425    2.1869543  
O   -1.8187535   -1.5261249    1.6395491  
C   -0.8723269   -0.7321790    3.6796354  
O   -1.7010379   -1.4274584    4.2670412  
C    0.1115397    0.0933559    4.4024240  
H    2.4028853    2.0163452    4.9860947  
H   -2.2861435   -1.9184361    2.3990168  
H    0.0832434    0.0693689    5.4835595  
H    3.3664920    2.8238276    2.6198634  
