60

C    7.5236625   -4.3737159    0.5285922  
C    6.7384676   -5.0052975    1.4650962  
C    5.3956238   -4.5822972    1.2360941  
C    5.4233674   -3.6854765    0.1375182  
N    6.7310206   -3.5797326   -0.2668059  
C    4.2730235   -3.0709693   -0.3663454  
C    3.0727674   -3.3674289    0.2498321  
O    1.9188033   -2.7954302   -0.2020498  
C    3.0247481   -4.2594525    1.3474684  
O    1.7552785   -4.4518906    1.8522035  
C    4.1592301   -4.8658337    1.8452420  
H    7.0904258   -5.6861843    2.2210809  
H    7.0578936   -3.0204952   -1.0338707  
H    1.2088210   -3.1323672    0.3597894  
H    1.8112890   -5.0668794    2.5899409  
H    4.0913588   -5.5445651    2.6873795  
H    8.5865910   -4.4256765    0.3659810  
C    4.2926951   -2.1403411   -1.5040819  
C    5.3604713   -1.7320203   -2.2284483  
C    4.8134480   -0.8208699   -3.2219625  
C    3.3612075   -0.7952317   -2.9446115  
N    3.0500074   -1.5667022   -1.9386409  
C    2.4521483    0.0014840   -3.7217481  
C    2.9703732    0.7393570   -4.7298758  
O    2.2390461    1.5283420   -5.5352975  
C    4.4316780    0.7349410   -5.0343919  
O    4.8335653    1.4307762   -5.9668722  
C    5.3436400   -0.0906354   -4.2228053  
H    6.3919449   -2.0142014   -2.1038958  
H    2.8845122    1.9211534   -6.1502981  
H    6.3952200   -0.0661680   -4.4754102  
C    0.0000000    0.0000000    0.0000000  
C    1.0662923   -0.0000101   -0.8334270  
C    0.4961873    0.0000065   -2.1718887  
C   -0.9663854   -0.0000848   -1.9540250  
N   -1.2632773   -0.0000083   -0.6828660  
C   -1.8985359   -0.0000514   -3.0477261  
C   -1.3925770    0.0004566   -4.3020547  
O   -2.1456378    0.0005414   -5.4151314  
C    0.0786240    0.0009326   -4.5545000  
O    0.4683767    0.0012591   -5.7221100  
C    1.0143171    0.0008444   -3.4159031  
H    2.1107200    0.0000633   -0.5721865  
H   -2.9622181   -0.0003268   -2.8593381  
H   -1.5042265    0.0009697   -6.1484419  
C    0.0000000    0.0000000    1.4700000  
C    1.0541688    0.0001722    2.3260392  
C    0.5103138    0.0000454    3.6635956  
C   -0.9576371   -0.0002459    3.5155732  
N   -1.2018458    0.0001392    2.1615969  
C   -1.8348311   -0.0008317    4.5510609  
C   -1.2972847   -0.0009736    5.9014604  
O   -2.0050672   -0.0014265    6.9001319  
C    0.2542623   -0.0004184    6.0817573  
O    0.7184670   -0.0002256    7.2139121  
C    1.0974552   -0.0000873    4.8889129  
H    2.0940752    0.0005483    2.0517982  
H   -2.9081052   -0.0011668    4.4207061  
H    2.1707277    0.0000911    5.0223670  
H   -2.1128194   -0.0014912    1.7406791  
