62

C    9.1320815    0.0020685   -2.4059690  
C   10.1677595    0.0008880   -1.5005204  
C   11.3791658    0.0016214   -2.2535761  
C   11.0167590    0.0035520   -3.6249198  
N    9.6451313    0.0018247   -3.6819503  
C   11.9604400    0.0050263   -4.6565464  
C   13.2942675    0.0048502   -4.2972640  
O   14.2573218    0.0065992   -5.2644956  
C   13.6757108    0.0025615   -2.9344316  
O   15.0414863    0.0022633   -2.7394954  
C   12.7452874    0.0008328   -1.9161808  
H   10.0630090   -0.0014545   -0.4290658  
H    9.0992966    0.0131445   -4.5245160  
H   11.6907108    0.0063565   -5.7036599  
H   15.1066429    0.0058341   -4.8041502  
H   15.2136139    0.0006987   -1.7929366  
H   13.0675424   -0.0010862   -0.8814700  
C    6.6801370   -0.0033361    1.2661380  
C    7.7093285   -0.0019932    0.3802270  
C    7.1273475   -0.0004472   -0.9411853  
C    5.6642441   -0.0009742   -0.7511361  
N    5.4589561   -0.0031398    0.6092839  
C    4.7577216    0.0005129   -1.7610467  
C    5.2563291    0.0025579   -3.1263017  
O    4.5202042    0.0039399   -4.1042686  
C    6.8020687    0.0028972   -3.3510092  
O    7.2336222    0.0043058   -4.4960071  
C    7.6791158    0.0014554   -2.1828318  
H    8.7566698   -0.0022586    0.6245395  
H    6.7110426   -0.0046695    2.3436042  
H    4.5604248   -0.0024244    1.0561488  
C    3.3041270    0.0001177   -1.5420435  
C    2.5845370   -0.0004780   -0.3695856  
C    1.2040004   -0.0000007   -0.7283590  
C    1.1422370    0.0006038   -2.1454373  
N    2.4348634    0.0026110   -2.6077469  
C   -0.0655187    0.0008799   -2.8497918  
C   -1.2321769    0.0002326   -2.1101398  
O   -2.4392822    0.0001149   -2.7472517  
C   -1.1911211   -0.0000007   -0.6955263  
O   -2.4371526   -0.0002319   -0.1032858  
C    0.0000000    0.0000000    0.0000000  
H    3.0031534   -0.0000661    0.6222578  
H    2.7054623   -0.0071098   -3.5745266  
H   -0.1193555    0.0014846   -3.9297472  
H   -3.1132992   -0.0000646   -2.0551783  
H   -2.3200279   -0.0004070    0.8516411  
C    2.4951002    2.0940188    2.9809380  
C    1.9440701    1.6314916    1.8291961  
C    0.8759964    0.7350050    2.2038498  
C    0.8497377    0.7130254    3.6788474  
N    1.8560616    1.5571714    4.0882609  
C   -0.0205033   -0.0168748    4.4215661  
C   -0.9962600   -0.8356168    3.7214979  
O   -1.8224391   -1.5286685    4.3006425  
C   -0.9864710   -0.8277881    2.1595606  
O   -1.8030528   -1.5133726    1.5592035  
C    0.0000000    0.0000000    1.4700000  
H    2.2509283    1.8888011    0.8310761  
H   -0.0229599   -0.0187323    5.5027230  
H    3.3143982    2.7817323    3.1139444  
H    2.0889452    1.7545833    5.0442112  
