62

C    2.1528779   -1.8455356   -8.4934318  
C    3.1069918   -2.6650057   -9.0507491  
C    2.9537495   -2.5796610  -10.4663169  
C    1.8814770   -1.6852548  -10.7157064  
N    1.4165724   -1.2593740   -9.4962369  
C    1.4506653   -1.3621415  -12.0059731  
C    2.1145949   -1.9524491  -13.0637588  
O    1.7350969   -1.6717325  -14.3444591  
C    3.1865518   -2.8477086  -12.8352068  
O    3.7450412   -3.3527735  -13.9912104  
C    3.6119180   -3.1671358  -11.5625892  
H    3.8243855   -3.2529202   -8.5042177  
H    0.6644171   -0.6091566   -9.3567338  
H    0.6339806   -0.6813227  -12.2027343  
H    2.3198065   -2.1813000  -14.9204112  
H    4.4609124   -3.9478734  -13.7483345  
H    4.4357569   -3.8563754  -11.4186581  
C    2.5365544   -2.0936799   -5.9975191  
C    2.0254115   -1.6312727   -4.8274817  
C    0.9452520   -0.7345685   -5.1651398  
C    0.8684333   -0.7123308   -6.6383653  
N    1.8600007   -1.5565501   -7.0821874  
C   -0.0266555    0.0178219   -7.3506841  
C   -0.9777107    0.8365828   -6.6174311  
O   -1.8231599    1.5298524   -7.1677885  
C   -0.9143685    0.8284831   -5.0567494  
O   -1.7097814    1.5140808   -4.4286293  
C    0.0950446    0.0004351   -4.4015596  
H    2.3662773   -1.8887982   -3.8405139  
H   -0.0661842    0.0198663   -8.4311199  
H    3.3507073   -2.7814875   -6.1586566  
C    3.3321173    0.0004713   -1.3379338  
C    2.6974181    0.0000116   -2.5332314  
C    1.2800438   -0.0002119   -2.2052841  
C    1.2395034    0.0000643   -0.7271299  
N    2.4394062    0.0005460   -0.2131038  
C    0.0000000    0.0000000    0.0000000  
C   -1.1468702    0.0000634   -0.7169543  
O   -2.3742203    0.0000074   -0.1695487  
C   -1.1388770    0.0001607   -2.2096355  
O   -2.2206234    0.0000905   -2.7970411  
C    0.1454522    0.0001815   -2.9324241  
H    3.1367984   -0.0000653   -3.5160950  
H   -2.9844346    0.0001026   -0.9290167  
H    4.3940038    0.0007618   -1.1498640  
C    0.8576279    0.7185626    2.2703808  
C    0.0000000    0.0000000    1.4700000  
C   -0.8668858   -0.7285659    2.3373528  
C   -0.4876752   -0.4117774    3.6669281  
N    0.5635254    0.4678311    3.5902241  
C   -1.1297612   -0.9515493    4.7854808  
C   -2.1738724   -1.8268314    4.5576857  
O   -2.8357962   -2.3827064    5.6140350  
C   -2.5667212   -2.1555554    3.2384331  
O   -3.6226318   -3.0413663    3.1773122  
C   -1.9335634   -1.6236449    2.1344818  
H    1.0363952    0.8769718    4.3757045  
H   -0.8454472   -0.7142436    5.8013813  
H   -3.5178062   -2.9546422    5.2385129  
H   -3.8247440   -3.2102924    2.2519915  
H   -2.2566033   -1.8942483    1.1360343  
H    1.6567807    1.3889844    2.0042067  
