62

C   -7.3958352    3.0496266    0.4643675  
C   -6.9311042    1.8267318    0.0389008  
C   -7.9921706    0.8912823    0.2224011  
C   -9.0886537    1.6072694    0.7673916  
N   -8.6921269    2.9145164    0.9033664  
C  -10.3093952    1.0001738    1.0772524  
C  -10.4254580   -0.3543225    0.8322063  
O  -11.5955997   -0.9971867    1.1159450  
C   -9.3425865   -1.0859894    0.2891885  
O   -9.6144721   -2.4257545    0.1035781  
C   -8.1379139   -0.4877812   -0.0164867  
H   -9.2640038    3.6608197    1.2554612  
H  -11.1488612    1.5402633    1.4929463  
H  -11.4643210   -1.9229915    0.8732199  
H   -8.8321620   -2.8465103   -0.2659620  
H   -7.3263246   -1.0740773   -0.4312851  
H   -6.9047162    4.0072617    0.4907528  
C   -4.4234436    2.1223640   -0.0294720  
C   -3.3650556    1.6607020   -0.7772354  
C   -3.9025226    0.7730946   -1.7559502  
C   -5.3060603    0.7325805   -1.5550349  
N   -5.5885469    1.5615827   -0.4978816  
C   -6.1607755   -0.0439294   -2.3432496  
C   -5.5882321   -0.7929544   -3.3528701  
O   -6.3766930   -1.5687273   -4.1525697  
C   -4.1898433   -0.7660324   -3.5687438  
O   -3.7729985   -1.5664195   -4.6122780  
C   -3.3460097   -0.0004262   -2.7913647  
H   -2.3324974    1.9296470   -0.6341106  
H   -7.2312982   -0.0792640   -2.1951468  
H   -5.7851989   -2.0015455   -4.7819092  
H   -2.8170937   -1.4907765   -4.6905559  
H   -4.4392678    2.8061852    0.8018504  
C    0.0000000    0.0000000    0.0000000  
C    1.0662919   -0.0000103   -0.8334272  
C    0.4961868    0.0000066   -2.1718889  
C   -0.9663860   -0.0000849   -1.9540248  
N   -1.2632775   -0.0000084   -0.6828659  
C   -1.8985364   -0.0000515   -3.0477258  
C   -1.3925778    0.0004567   -4.3020543  
O   -2.1456385    0.0005412   -5.4151314  
C    0.0786229    0.0009326   -4.5544999  
O    0.4683756    0.0012594   -5.7221104  
C    1.0143162    0.0008443   -3.4159034  
H    2.1107195    0.0000631   -0.5721869  
H   -1.5042277    0.0009692   -6.1484420  
H    2.0724151    0.0013151   -3.6409746  
C    1.0672568    0.0000697    2.3021913  
C    0.0000000    0.0000000    1.4700000  
C   -1.1601224    0.0000736    2.3478473  
C   -0.5938729    0.0000769    3.7138435  
N    0.7113367    0.0001554    3.6934124  
C   -1.4286986    0.0001879    4.8835240  
C   -2.7683114    0.0006799    4.6970523  
O   -3.6653903    0.0008304    5.6976972  
C   -3.3702025    0.0010610    3.3310774  
O   -4.5974910    0.0013779    3.2362962  
C   -2.4926826    0.0008943    2.1470656  
H   -0.9878360   -0.0000190    5.8697035  
H   -4.5324246    0.0012261    5.2533954  
H   -2.9677772    0.0012974    1.1752040  
H    2.1134392    0.0000545    2.0405121  
