62

C    3.3041277    0.0001177   -1.5420422  
C    2.5845376   -0.0004780   -0.3695847  
C    1.2040008   -0.0000007   -0.7283587  
C    1.1422386    0.0006037   -2.1454370  
N    2.4348649    0.0026109   -2.6077461  
C   -0.0655170    0.0008800   -2.8497924  
C   -1.2321762    0.0002326   -2.1101400  
O   -2.4392810    0.0001149   -2.7472528  
C   -1.1911205   -0.0000007   -0.6955268  
O   -2.4371522   -0.0002319   -0.1032867  
C    0.0000000    0.0000000    0.0000000  
H    3.0031535   -0.0000662    0.6222589  
H    2.7054639   -0.0071098   -3.5745257  
H   -0.1193542    0.0014846   -3.9297471  
H   -3.1132985   -0.0000646   -2.0551793  
H   -2.3200288   -0.0004071    0.8516403  
C    6.6801371   -0.0033361    1.2661401  
C    7.7093289   -0.0019931    0.3802296  
C    7.1273481   -0.0004471   -0.9411831  
C    5.6642447   -0.0009742   -0.7511341  
N    5.4589564   -0.0031398    0.6092855  
C    4.7577228    0.0005128   -1.7610450  
C    5.2563305    0.0025579   -3.1263002  
O    4.5202061    0.0039398   -4.1042669  
C    6.8020705    0.0028972   -3.3510072  
O    7.2336245    0.0043059   -4.4960050  
C    7.6791171    0.0014556   -2.1828291  
H    8.7566702   -0.0022584    0.6245425  
H    8.7481218    0.0019067   -2.3470001  
H    4.5604254   -0.0024245    1.0561502  
C   10.0216308   -0.0053218    4.1524602  
C    9.2694855   -0.0043295    3.0218188  
C    7.8863577   -0.0056005    3.4362972  
C    7.8944178   -0.0073985    4.9116691  
N    9.2191122   -0.0075357    5.2832554  
C    6.7803655   -0.0085648    5.6866465  
C    5.4870673   -0.0082385    5.0233860  
O    4.4257404   -0.0092723    5.6332097  
C    5.4548107   -0.0065960    3.4617323  
O    4.3718133   -0.0066143    2.8921913  
C    6.7222835   -0.0051545    2.7355348  
H    9.6411660   -0.0030556    2.0126282  
H    6.8082886   -0.0097473    6.7674468  
H   11.0946769   -0.0048388    4.2547442  
H    9.5516863   -0.0070545    6.2300610  
C    2.5311839    2.1237619    3.0120429  
C    1.9795631    1.6616747    1.8395852  
C    0.9223175    0.7739173    2.1983588  
C    0.8753926    0.7337535    3.6154372  
N    1.8668922    1.5631002    4.0777464  
C   -0.0496243   -0.0427881    4.3197917  
C   -0.9437528   -0.7922060    3.5801400  
O   -1.8685244   -1.5680278    4.2172520  
C   -0.9124520   -0.7656372    2.1655264  
O   -1.8671164   -1.5663939    1.5732860  
C    0.0000000    0.0000000    1.4700000  
H    2.3005065    1.9304404    0.8477417  
H    2.0679347    1.7444845    5.0445261  
H   -0.0904770   -0.0778569    5.3997470  
H   -2.3849669   -2.0011402    3.5251786  
H   -1.7775064   -1.4909735    0.6183591  
H    3.3468514    2.8078103    3.1724291  
