60

C    9.8351541   -0.7099173   -2.0353338  
C   11.1827371   -0.4593989   -1.9181611  
C   11.5295409    0.4493962   -2.9614343  
C   10.3425117    0.7202803   -3.6891102  
N    9.3330569   -0.0011080   -3.1015590  
C   10.3106877    1.5797361   -4.7914311  
C   11.4987469    2.1768457   -5.1658050  
O   11.5242589    3.0251326   -6.2348095  
C   12.6935520    1.9188322   -4.4525815  
O   13.7927921    2.5887678   -4.9487678  
C   12.7257394    1.0708598   -3.3651844  
H   11.8357088   -0.8807913   -1.1731446  
H    9.4092912    1.7902327   -5.3503379  
H   12.4379433    3.3263621   -6.3225939  
H   14.5569344    2.3595549   -4.4110396  
H   13.6560286    0.8924262   -2.8386847  
H    9.1927043   -1.3392411   -1.4435841  
C    5.6736559   -0.0009558   -0.7359122  
C    4.7161325   -0.0005435   -1.6923264  
C    5.4441200   -0.0005498   -2.9519031  
C    6.8695485   -0.0008929   -2.5585357  
N    7.0103269   -0.0012127   -1.2607796  
C    7.9272785   -0.0010475   -3.5313119  
C    7.5769325   -0.0012565   -4.8376780  
O    8.4592368   -0.0014099   -5.8513741  
C    6.1471274   -0.0012911   -5.2664175  
O    5.9016318   -0.0013616   -6.4726314  
C    5.0804442   -0.0010863   -4.2495047  
H    7.9113445   -0.0015669   -6.6569584  
H    4.0573860   -0.0012340   -4.6010477  
H    5.5430682   -0.0010921    0.3345643  
C    3.2573665   -0.0002920   -1.5109385  
C    2.5379463   -0.0001709   -0.3591964  
C    1.1435038    0.0000331   -0.7338500  
C    1.1092599   -0.0000083   -2.2088477  
N    2.4227553    0.0001909   -2.6182613  
C   -0.0265539   -0.0002524   -2.9515660  
C   -1.3003040   -0.0002640   -2.2514977  
O   -2.3786790   -0.0004133   -2.8306421  
C   -1.2877727    0.0000311   -0.6895603  
O   -2.3539959    0.0003306   -0.0892030  
C    0.0000000    0.0000000    0.0000000  
H    2.9384091   -0.0000367    0.6389234  
H   -0.0296303   -0.0004086   -4.0327229  
H    2.7280482   -0.0013407   -3.5742119  
C    0.0000000    0.0000000    1.4700000  
C    1.0662921    0.0000102    2.3034270  
C    0.4961870   -0.0000064    3.6418889  
C   -0.9663858    0.0000850    3.4240247  
N   -1.2632773    0.0000084    2.1528658  
C   -1.8985362    0.0000517    4.5177257  
C   -1.3925775   -0.0004564    5.7720543  
O   -2.1456383   -0.0005410    6.8851312  
C    0.0786232   -0.0009323    6.0245000  
O    0.4683759   -0.0012588    7.1921102  
C    1.0143166   -0.0008442    4.8859032  
H    2.1107198   -0.0000632    2.0421868  
H   -2.9622183    0.0003270    4.3293377  
H   -1.5042274   -0.0009692    7.6184419  
H    2.0724152   -0.0013148    5.1109744  
