60

C    0.0175673   -2.7691620   -9.6909505  
C    0.1655164   -2.2425495  -10.9531930  
C   -0.1340902   -0.8509921  -10.8615215  
C   -0.4606320   -0.5838823   -9.5072885  
N   -0.3605548   -1.7705242   -8.8242927  
C   -0.8097243    0.6906689   -9.0507341  
C   -0.8292405    1.7142797   -9.9781052  
O   -1.1628487    2.9784387   -9.5861594  
C   -0.5068923    1.4675449  -11.3338454  
O   -0.5722944    2.5896352  -12.1338320  
C   -0.1626758    0.2103677  -11.7850056  
H    0.4528440   -2.7938044  -11.8321442  
H   -0.5239528   -1.8896900   -7.8408899  
H   -1.1152432    3.5310420  -10.3771263  
H   -0.3404877    2.3363515  -13.0325638  
H    0.0791111    0.0518202  -12.8294580  
H    0.1504571   -3.7783849   -9.3405691  
C    0.8798787   -0.7257942   -5.2251217  
C    0.6207793   -0.5088630   -6.5403725  
C   -0.4843405    0.4181987   -6.6044216  
C   -0.8504418    0.7258113   -5.2086658  
N    0.0139741    0.0003876   -4.4216236  
C   -1.8515224    1.5662625   -4.8437224  
C   -2.6198144    2.2107140   -5.8958365  
O   -3.5411793    2.9841147   -5.6694767  
C   -2.2496259    1.8993181   -7.3810300  
O   -2.8896237    2.4357468   -8.2754058  
C   -1.1496889    0.9762966   -7.6493981  
H    1.1439790   -0.9482815   -7.3709062  
H   -2.1037058    1.7783407   -3.8139959  
H    1.6304050   -1.3552328   -4.7752251  
C    3.2798085    0.0005853   -1.4499648  
C    2.5571144    0.0005562   -2.5996554  
C    1.1637436    0.0001546   -2.2210360  
C    1.1336965   -0.0000201   -0.7459470  
N    2.4483513   -0.0001430   -0.3402717  
C    0.0000000    0.0000000    0.0000000  
C   -1.2757367   -0.0000188   -0.6964414  
O   -2.3524597   -0.0000640   -0.1142313  
C   -1.2676494   -0.0000875   -2.2584081  
O   -2.3355762   -0.0004102   -2.8557294  
C    0.0181562    0.0001757   -2.9516296  
H    2.9547357    0.0006072   -3.5989105  
H    4.3498550    0.0008609   -1.3200021  
H    2.7563627    0.0012824    0.6148063  
C    0.8400945    0.7047457    2.2710304  
C    0.0000000    0.0000000    1.4700000  
C   -0.8844236   -0.7423113    2.3369512  
C   -0.4878984   -0.4098547    3.7186280  
N    0.5629682    0.4714286    3.6095011  
C   -1.0836927   -0.9095027    4.8308716  
C   -2.1891196   -1.8367527    4.6554461  
O   -2.7906899   -2.3413415    5.5944904  
C   -2.6257283   -2.2031529    3.2011665  
O   -3.5549479   -2.9829990    3.0410059  
C   -1.9068976   -1.5999348    2.0816745  
H   -0.7774656   -0.6525820    5.8354244  
H   -2.2155208   -1.8586617    1.0779135  
H    1.6384792    1.3747609    1.9961646  
H    1.0518368    0.8833920    4.3830260  
