62

C    8.3832308   -0.7219982    0.7148877  
C    8.1698811   -0.0026513   -0.4381470  
C    9.3683048    0.7240412   -0.7032851  
C   10.2856554    0.4053542    0.3305577  
N    9.6549292   -0.4735335    1.1757547  
C   11.5749292    0.9429816    0.3898887  
C   11.9449868    1.8180312   -0.6128694  
O   13.1924688    2.3718490   -0.6036740  
C   11.0436867    2.1486293   -1.6526678  
O   11.5606936    3.0339355   -2.5758574  
C    9.7715393    1.6188352   -1.7116851  
H   10.0628646   -0.8836537    1.9963466  
H   12.2787842    0.7042222    1.1752456  
H   13.2429386    2.9439934   -1.3804416  
H   10.8889844    3.2042182   -3.2432514  
H    9.1032601    1.8908423   -2.5203218  
H    7.7283942   -1.3915412    1.2457924  
C    5.6463485   -0.0007504   -0.7029965  
C    4.7161325   -0.0005435   -1.6923264  
C    5.4339816   -0.0003284   -2.9451344  
C    6.8689501   -0.0004570   -2.6021236  
N    6.9298893   -0.0003136   -1.2276507  
C    7.8767467   -0.0007183   -3.5109972  
C    7.5246255   -0.0006576   -4.9211555  
O    8.3596092   -0.0008157   -5.8161997  
C    6.0111289   -0.0002696   -5.3073303  
O    5.7025039    0.0000911   -6.4913959  
C    5.0159834   -0.0002905   -4.2379666  
H    8.9229464   -0.0009388   -3.2382781  
H    3.9701999   -0.0002262   -4.5137575  
H    5.5021930   -0.0009684    0.3652304  
C    3.2573665   -0.0002920   -1.5109385  
C    2.5379463   -0.0001709   -0.3591964  
C    1.1435038    0.0000331   -0.7338500  
C    1.1092599   -0.0000083   -2.2088477  
N    2.4227553    0.0001909   -2.6182613  
C   -0.0265539   -0.0002524   -2.9515660  
C   -1.3003040   -0.0002640   -2.2514977  
O   -2.3786790   -0.0004133   -2.8306421  
C   -1.2877727    0.0000311   -0.6895603  
O   -2.3539959    0.0003306   -0.0892030  
C    0.0000000    0.0000000    0.0000000  
H    2.9384091   -0.0000367    0.6389234  
H   -0.0296303   -0.0004086   -4.0327229  
H    2.7280482   -0.0013407   -3.5742119  
C    2.5311839    2.1237619    3.0120429  
C    1.9795631    1.6616747    1.8395852  
C    0.9223175    0.7739173    2.1983588  
C    0.8753926    0.7337535    3.6154372  
N    1.8668922    1.5631002    4.0777464  
C   -0.0496243   -0.0427881    4.3197917  
C   -0.9437528   -0.7922060    3.5801400  
O   -1.8685244   -1.5680278    4.2172520  
C   -0.9124520   -0.7656372    2.1655264  
O   -1.8671164   -1.5663939    1.5732860  
C    0.0000000    0.0000000    1.4700000  
H    2.3005065    1.9304404    0.8477417  
H    2.0679347    1.7444845    5.0445261  
H   -0.0904770   -0.0778569    5.3997470  
H   -2.3849669   -2.0011402    3.5251786  
H   -1.7775064   -1.4909735    0.6183591  
H    3.3468514    2.8078103    3.1724291  
