60

C    4.5911201   -0.5498984   -7.5019895  
C    5.6525194   -0.4443736   -8.3707594  
C    5.7185328    0.9193242   -8.7837608  
C    4.6632713    1.6041863   -8.1285401  
N    3.9972525    0.6823365   -7.3596269  
C    4.4262710    2.9711476   -8.3018518  
C    5.2701055    3.6593421   -9.1518571  
O    5.0839575    4.9958672   -9.3569455  
C    6.3283371    2.9935620   -9.8149550  
O    7.0800007    3.8165481  -10.6279978  
C    6.5625667    1.6449843   -9.6446604  
H    6.2989226   -1.2512791   -8.6708604  
H    3.6236214    3.4989532   -7.8054871  
H    5.7712541    5.2755091   -9.9755646  
H    7.7725265    3.2891433  -11.0377004  
H    7.3808508    1.1623257  -10.1661303  
H    4.2098275   -1.4069406   -6.9737344  
C    2.8494834   -0.7287730   -3.3362168  
C    3.4912468   -0.5137437   -4.5134920  
C    2.6833704    0.4134335   -5.2701384  
C    1.5099399    0.7231864   -4.4311485  
N    1.6707636   -0.0012343   -3.2725974  
C    0.5077408    1.5643698   -4.7913042  
C    0.5901949    2.2074066   -6.0921655  
O   -0.2621867    2.9813187   -6.5078658  
C    1.8239371    1.8937370   -6.9973163  
O    1.9040961    2.4289607   -8.0947544  
C    2.8403299    0.9701079   -6.4996155  
H    4.4240235   -0.9544939   -4.8172678  
H   -0.3442074    1.7780236   -4.1608710  
H    3.1383512   -1.3576871   -2.5098315  
C    1.0965514    0.0001358   -0.8010306  
C    0.0000000    0.0000000    0.0000000  
C   -1.1546565    0.0001470   -0.8669508  
C   -0.6372019    0.0003520   -2.2486278  
N    0.7342867    0.0007338   -2.1395012  
C   -1.4147744    0.0001354   -3.3608712  
C   -2.8576052   -0.0001047   -3.1854454  
O   -3.6427785   -0.0002490   -4.1244896  
C   -3.4275841   -0.0000727   -1.7311660  
O   -4.6406832    0.0000333   -1.5710049  
C   -2.4891868   -0.0001090   -0.6116739  
H   -1.0150456    0.0001617   -4.3654239  
H   -2.8919122   -0.0002919    0.3920871  
H    2.1388270    0.0000663   -0.5261650  
C    2.5128556    2.1077716    2.9199648  
C    1.9592212    1.6432552    4.0696553  
C    0.8915788    0.7479214    3.6910360  
C    0.8684491    0.7287414    2.2159470  
N    1.8754542    1.5738793    1.8102719  
C    0.0000000    0.0000000    1.4700000  
C   -0.9772830   -0.8200135    2.1664417  
O   -1.8021297   -1.5120829    1.5842315  
C   -0.9711318   -0.8147624    3.7284083  
O   -1.7894187   -1.5009653    4.3257297  
C    0.0140216    0.0115358    4.4216297  
H    2.2638494    1.8988021    5.0689105  
H    0.0117648    0.0094386    5.5031631  
H    3.3327358    2.7953732    2.7900019  
H    2.1123206    1.7707734    0.8551938  
