64

C    2.0825035   -2.3688211   -7.1284230  
C    1.6527656   -1.0658419   -7.2286114  
C    2.4760035   -0.4297763   -8.2044693  
C    3.3977487   -1.4025326   -8.6692895  
N    3.1324799   -2.5679702   -7.9940075  
C    4.3643950   -1.1252051   -9.6406143  
C    4.4010179    0.1573986  -10.1522429  
O    5.3246766    0.4822612  -11.1032086  
C    3.4900147    1.1418773   -9.7009222  
O    3.6542655    2.3705376  -10.3065294  
C    2.5363066    0.8690666   -8.7425166  
H    3.6196923   -3.4364746   -8.1217032  
H    5.0698731   -1.8621306   -9.9990068  
H    5.1788089    1.4125442  -11.3189874  
H    3.0006590    2.9773061   -9.9456487  
H    1.8520916    1.6436528   -8.4164136  
H    1.7240497   -3.1714850   -6.5069728  
C    0.2810595   -0.7180971   -5.1362603  
C   -0.8287665    0.0000939   -4.7555305  
C   -1.2664169    0.7286056   -5.9011017  
C   -0.3775037    0.4121681   -6.9601704  
N    0.5511372   -0.4671875   -6.4611948  
C   -0.5073503    0.9519908   -8.2433381  
C   -1.5537892    1.8269638   -8.4614345  
O   -1.7271371    2.3828726   -9.6959102  
C   -2.4509439    2.1553352   -7.4173548  
O   -3.4401355    3.0408654   -7.7924277  
C   -2.3232914    1.6233739   -6.1511600  
H    0.1668880    0.7149522   -9.0547670  
H   -2.5031987    2.9545631   -9.6313841  
H   -4.0023410    3.2095628   -7.0301489  
H   -3.0257717    1.8937041   -5.3714668  
H    0.9022076   -1.3883666   -4.5671617  
C    1.0672569   -0.0000698   -0.8321910  
C    0.0000000    0.0000000    0.0000000  
C   -1.1601223   -0.0000736   -0.8778472  
C   -0.5938729   -0.0000768   -2.2438435  
N    0.7113367   -0.0001553   -2.2234123  
C   -1.4286985   -0.0001877   -3.4135239  
C   -2.7683113   -0.0006798   -3.2270524  
O   -3.6653902   -0.0008302   -4.2276970  
C   -3.3702024   -0.0010610   -1.8610774  
O   -4.5974910   -0.0013779   -1.7662963  
C   -2.4926825   -0.0008943   -0.6770658  
H   -4.5324245   -0.0012258   -3.7833954  
H   -2.9677772   -0.0012974    0.2947961  
H    2.1134391   -0.0000547   -0.5705119  
C    0.0000000    0.0000000    1.4700000  
C    1.0521667    0.0011902    2.3562342  
C    0.4917218    0.0011957    3.6679131  
C   -0.9187428   -0.0003148    3.5178682  
N   -1.1833171    0.0009411    2.1707914  
C   -1.7951701   -0.0010350    4.6072090  
C   -1.2375837   -0.0005224    5.8710424  
O   -2.0474215   -0.0015360    6.9697579  
C    0.1673580    0.0013566    6.0411963  
O    0.5673524    0.0020687    7.3615553  
C    1.0325770    0.0023412    4.9669890  
H    2.0953057    0.0030649    2.0900562  
H   -2.0989778   -0.0102372    1.7591824  
H   -2.8710934   -0.0020419    4.4995513  
H   -1.4634884   -0.0006497    7.7393593  
H    1.5290710    0.0033153    7.3880045  
H    2.1042148    0.0039609    5.1284455  
