64

C    0.6675602   -0.7200185   -5.1594012  
C   -0.1496422   -0.0015612   -4.3176963  
C   -1.0591324    0.7259468   -5.1412004  
C   -0.7463753    0.4086513   -6.4878383  
N    0.3079383   -0.4702277   -6.4630982  
C   -1.4437235    0.9473696   -7.5733229  
C   -2.4757927    1.8220995   -7.2942919  
O   -3.1898678    2.3769432   -8.3166715  
C   -2.8026933    2.1513156   -5.9572920  
O   -3.8548527    3.0364720   -5.8441467  
C   -2.1149948    1.6204449   -4.8859503  
H    0.7413911   -0.8795054   -7.2709296  
H   -3.8527236    2.9486470   -7.9079638  
H   -4.0107585    3.2057916   -4.9100013  
H   -2.3881059    1.8914039   -3.8728020  
H    1.4794299   -1.3897675   -4.9329890  
C    3.3003543    0.0005271   -1.4738993  
C    2.5232810    0.0003494   -2.6090758  
C    1.1623195   -0.0001318   -2.1820108  
C    1.1711880    0.0000584   -0.7636147  
N    2.4852301   -0.0014924   -0.3662365  
C    0.0000000    0.0000000    0.0000000  
C   -1.2020384    0.0000521   -0.6806477  
O   -2.3759249    0.0003496    0.0157747  
C   -1.2314662   -0.0005111   -2.0955508  
O   -2.5054396   -0.0008035   -2.6250178  
C   -0.0764520   -0.0007272   -2.8495197  
H    2.8919946   -0.0005619   -3.6205309  
H    2.8036268    0.0088178    0.5858657  
H   -3.0835641    0.0000350   -0.6418819  
H   -2.4360055   -0.0011524   -3.5845921  
H    4.3715548    0.0004892   -1.3667144  
C   -0.2914822   -2.8699046   -9.5958003  
C   -0.6545242   -1.9251371   -8.6640911  
C   -0.7861443   -0.6856093   -9.3575228  
C   -0.4888717   -0.9380200  -10.7212834  
N   -0.1908600   -2.2736005  -10.8309713  
C   -0.5198177    0.0605081  -11.6994306  
C   -0.8572968    1.3370378  -11.2935284  
O   -0.9030469    2.3496476  -12.2076077  
C   -1.1568221    1.6087546   -9.9373307  
O   -1.4741108    2.9287574   -9.6918410  
C   -1.1262280    0.6242258   -8.9717770  
H   -0.8048012   -2.1067667   -7.6136530  
H    0.0496503   -2.7464632  -11.6833427  
H   -0.2941548   -0.1253635  -12.7404551  
H   -1.1550145    3.1453792  -11.7212035  
H   -1.6627481    3.0267954   -8.7535408  
H   -0.0949624   -3.9216488   -9.4767475  
C    0.8175213    0.6860729    2.3021913  
C    0.0000000    0.0000000    1.4700000  
C   -0.8887526   -0.7456559    2.3478473  
C   -0.4549825   -0.3816753    3.7138435  
N    0.5448156    0.4573574    3.6934124  
C   -1.0945674   -0.9182058    4.8835240  
C   -2.1210866   -1.7789155    4.6970523  
O   -2.8083856   -2.3554314    5.6976972  
C   -2.5824069   -2.1655116    3.3310774  
O   -3.5227682   -2.9541547    3.2362962  
C   -1.9100805   -1.6015804    2.1470656  
H   -0.7567140   -0.6349833    5.8697035  
H   -3.4728268   -2.9124471    5.2533954  
H   -2.2742832   -1.9066565    1.1752040  
H    1.6189533    1.3585343    2.0405121  
