64

C    4.6640010   -0.6232454   -7.4858254  
C    4.0904394    0.6214828   -7.3668848  
C    4.8545814    1.5113164   -8.1786015  
C    5.8901713    0.7462827   -8.7737500  
N    5.7465027   -0.5450254   -8.3304671  
C    6.8375997    1.3003692   -9.6398671  
C    6.7376034    2.6513024   -9.9103450  
O    7.6365123    3.2434274  -10.7496101  
C    5.7116084    3.4314308   -9.3259242  
O    5.7463675    4.7607583   -9.6933816  
C    4.7767686    2.8855327   -8.4711763  
H    6.3320193   -1.3172287   -8.5928662  
H    7.6293952    0.7227371  -10.0965955  
H    7.3896880    4.1760577  -10.8000348  
H    5.0208958    5.2164026   -9.2555657  
H    4.0024232    3.5081910   -8.0385510  
H    4.3874311   -1.5603669   -7.0338620  
C    2.8410616   -0.7209468   -3.3424825  
C    1.6707636   -0.0012343   -3.2725974  
C    1.5557837    0.7262496   -4.4941321  
C    2.6948099    0.4076464   -5.2770987  
N    3.4554131   -0.4719556   -4.5474407  
C    2.9129639    0.9459794   -6.5488675  
C    1.9638377    1.8216618   -7.0392925  
O    2.1270880    2.3761830   -8.2757677  
C    0.8208862    2.1521881   -6.2729831  
O   -0.0311443    3.0381774   -6.8994107  
C    0.6051596    1.6216976   -5.0181650  
H    4.3199272   -0.8821911   -4.8512550  
H    1.3626831    2.9486839   -8.4213476  
H   -0.7762636    3.2083607   -6.3150826  
H   -0.2796645    1.8936672   -4.4546067  
H    3.2868719   -1.3910851   -2.6275510  
C    1.0965514    0.0001358   -0.8010306  
C    0.0000000    0.0000000    0.0000000  
C   -1.1546565    0.0001470   -0.8669508  
C   -0.6372019    0.0003520   -2.2486278  
N    0.7342867    0.0007338   -2.1395012  
C   -1.4147744    0.0001354   -3.3608712  
C   -2.8576052   -0.0001047   -3.1854454  
O   -3.6427785   -0.0002490   -4.1244896  
C   -3.4275841   -0.0000727   -1.7311660  
O   -4.6406832    0.0000333   -1.5710049  
C   -2.4891868   -0.0001090   -0.6116739  
H   -1.0150456    0.0001617   -4.3654239  
H   -2.8919122   -0.0002919    0.3920871  
H    2.1388270    0.0000663   -0.5261650  
C    2.5311839    2.1237619    3.0120429  
C    1.9795631    1.6616747    1.8395852  
C    0.9223175    0.7739173    2.1983588  
C    0.8753926    0.7337535    3.6154372  
N    1.8668922    1.5631002    4.0777464  
C   -0.0496243   -0.0427881    4.3197917  
C   -0.9437528   -0.7922060    3.5801400  
O   -1.8685244   -1.5680278    4.2172520  
C   -0.9124520   -0.7656372    2.1655264  
O   -1.8671164   -1.5663939    1.5732860  
C    0.0000000    0.0000000    1.4700000  
H    2.3005065    1.9304404    0.8477417  
H    2.0679347    1.7444845    5.0445261  
H   -0.0904770   -0.0778569    5.3997470  
H   -2.3849669   -2.0011402    3.5251786  
H   -1.7775064   -1.4909735    0.6183591  
H    3.3468514    2.8078103    3.1724291  
