60

C    5.6968605   -3.0361265   -7.6644424  
C    6.2804546   -2.2476942   -8.6289416  
C    5.8137579   -0.9165679   -8.4170516  
C    4.9409667   -0.9544542   -7.2995883  
N    4.8909255   -2.2567017   -6.8680034  
C    4.2954760    0.1829702   -6.8052229  
C    4.5356724    1.3805083   -7.4505026  
O    3.9314702    2.5220337   -7.0090596  
C    5.4029549    1.4385002   -8.5673178  
O    5.5389663    2.7036942   -9.1003537  
C    6.0398743    0.3167548   -9.0557305  
H    6.9582066   -2.5900740   -9.3921071  
H    4.3595599   -2.5879959   -6.0832259  
H    4.2309896    3.2322510   -7.5914199  
H    6.1405143    2.6550149   -9.8496028  
H    6.6985027    0.3920481   -9.9130616  
H    5.7906171   -4.0930381   -7.4824957  
C    4.6014566   -2.0165231   -3.0560761  
C    3.4769384   -1.6328845   -2.4081116  
C    2.8127343   -0.7151038   -3.3208061  
C    3.6989100   -0.6588454   -4.5032234  
N    4.7490140   -1.4197419   -4.3538651  
C    3.3894066    0.1527210   -5.6480614  
C    2.2463721    0.8749435   -5.6134073  
O    1.8335167    1.6749948   -6.6111590  
C    1.3311609    0.8390162   -4.4347394  
O    0.3078533    1.5221557   -4.4719306  
C    1.6707636   -0.0012343   -3.2725974  
H    3.1397620   -1.9354141   -1.4314521  
H    0.9923242    2.0514417   -6.2951910  
H    5.3663744   -2.6952862   -2.7137966  
C    1.0965514    0.0001358   -0.8010306  
C    0.0000000    0.0000000    0.0000000  
C   -1.1546565    0.0001470   -0.8669508  
C   -0.6372019    0.0003520   -2.2486278  
N    0.7342867    0.0007338   -2.1395012  
C   -1.4147744    0.0001354   -3.3608712  
C   -2.8576052   -0.0001047   -3.1854454  
O   -3.6427785   -0.0002490   -4.1244896  
C   -3.4275841   -0.0000727   -1.7311660  
O   -4.6406832    0.0000333   -1.5710049  
C   -2.4891868   -0.0001090   -0.6116739  
H   -1.0150456    0.0001617   -4.3654239  
H   -2.8919122   -0.0002919    0.3920871  
H    2.1388270    0.0000663   -0.5261650  
C    2.3971438    2.0127888    3.1728260  
C    1.9431056    1.6308205    1.9564670  
C    0.8496017    0.7127664    2.2356185  
C    0.7794028    0.6545384    3.7115134  
N    1.6840587    1.4146091    4.2663826  
C   -0.1885723   -0.1578550    4.3957118  
C   -1.0476298   -0.8789867    3.6398520  
O   -2.0015663   -1.6796266    4.1448486  
C   -1.0022026   -0.8410666    2.1483229  
O   -1.8147390   -1.5232959    1.5241687  
C    0.0000000    0.0000000    1.4700000  
H    2.3054237    1.9346118    0.9892483  
H   -0.2170646   -0.1815267    5.4753125  
H   -2.4487139   -2.0549881    3.3649027  
H    3.2048689    2.6911772    3.3971983  
