60

C    5.5965691   -3.6503050    0.0306852  
C    5.2754209   -4.4739573    1.0846912  
C    3.8656073   -4.3736416    1.2769475  
C    3.3761438   -3.4666510    0.3024117  
N    4.4535441   -3.0447660   -0.4363970  
C    2.0238925   -3.1275830    0.1964008  
C    1.1497861   -3.7150471    1.0902703  
O   -0.1814382   -3.4195106    1.0310033  
C    1.6190423   -4.6221346    2.0699687  
O    0.6253414   -5.1219045    2.8861364  
C    2.9529730   -4.9568870    2.1753055  
H    5.9717947   -5.0725123    1.6466427  
H    1.6445172   -2.4368989   -0.5440255  
H   -0.6058209   -3.9292223    1.7333980  
H    1.0263451   -5.7257557    3.5187232  
H    3.2828611   -5.6546555    2.9360761  
H    6.5507379   -3.4457704   -0.4239423  
C    4.3939417   -2.1065670   -1.5664985  
C    5.4031217   -1.6413492   -2.3470132  
C    4.8103426   -0.7457934   -3.3121181  
C    3.3627147   -0.7272471   -3.0278290  
N    3.1757291   -1.5729266   -1.9588330  
C    2.4521483    0.0014840   -3.7217481  
C    2.9297301    0.8221550   -4.8221799  
O    2.1884022    1.5142697   -5.5075341  
C    4.4587969    0.8175814   -5.1411456  
O    4.8725549    1.5043410   -6.0654977  
C    5.3421066   -0.0087720   -4.3221491  
H    6.4439798   -1.8965716   -2.2570682  
H    6.3995019   -0.0062030   -4.5493776  
H    2.2909027   -1.7703225   -1.5285260  
C    0.0000000    0.0000000    0.0000000  
C    1.0662923   -0.0000101   -0.8334270  
C    0.4961873    0.0000065   -2.1718887  
C   -0.9663854   -0.0000848   -1.9540250  
N   -1.2632773   -0.0000083   -0.6828660  
C   -1.8985359   -0.0000514   -3.0477261  
C   -1.3925770    0.0004566   -4.3020547  
O   -2.1456378    0.0005414   -5.4151314  
C    0.0786240    0.0009326   -4.5545000  
O    0.4683767    0.0012591   -5.7221100  
C    1.0143171    0.0008444   -3.4159031  
H    2.1107200    0.0000633   -0.5721865  
H   -2.9622181   -0.0003268   -2.8593381  
H   -1.5042265    0.0009697   -6.1484419  
C    0.0000000    0.0000000    1.4700000  
C    1.0541688    0.0001722    2.3260392  
C    0.5103138    0.0000454    3.6635956  
C   -0.9576371   -0.0002459    3.5155732  
N   -1.2018458    0.0001392    2.1615969  
C   -1.8348311   -0.0008317    4.5510609  
C   -1.2972847   -0.0009736    5.9014604  
O   -2.0050672   -0.0014265    6.9001319  
C    0.2542623   -0.0004184    6.0817573  
O    0.7184670   -0.0002256    7.2139121  
C    1.0974552   -0.0000873    4.8889129  
H    2.0940752    0.0005483    2.0517982  
H   -2.9081052   -0.0011668    4.4207061  
H    2.1707277    0.0000911    5.0223670  
H   -2.1128194   -0.0014912    1.7406791  
