64

C   -2.7909570   -0.4750100   -4.0232748  
C   -4.0248516   -0.6876961   -4.5931315  
C   -3.8443008   -0.6393729   -6.0072270  
C   -2.4675675   -0.3923471   -6.2428331  
N   -1.8571982   -0.2959926   -5.0169530  
C   -1.9281001   -0.2821247   -7.5279850  
C   -2.7941606   -0.4241573   -8.5947292  
O   -2.3202375   -0.3260403   -9.8709672  
C   -4.1710981   -0.6706082   -8.3799703  
O   -4.9029821   -0.7873732   -9.5436094  
C   -4.7040364   -0.7791961   -7.1124094  
H   -4.9424106   -0.8557742   -4.0557039  
H   -0.8776947   -0.1341096   -4.8674626  
H   -0.8797494   -0.0937967   -7.7142540  
H   -3.0792774   -0.4540692  -10.4546906  
H   -5.8214717   -0.9528037   -9.3099138  
C   -3.2549643   -0.5678608   -1.5420432  
C   -2.5461791   -0.4436276   -0.3695852  
C   -1.1860938   -0.2068814   -0.7283593  
C   -1.1251451   -0.1968641   -2.1454371  
N   -2.3982015   -0.4209522   -2.6077468  
C    0.0646944    0.0103916   -2.8497920  
C    1.2138897    0.2114950   -2.1101401  
O    2.4030211    0.4190267   -2.7472528  
C    1.1734051    0.2046701   -0.6955265  
O    2.4008649    0.4190023   -0.1032865  
C    0.0000000    0.0000000    0.0000000  
H   -2.9584983   -0.5159639    0.6222578  
H    0.1178345    0.0190467   -3.9297479  
H    3.0669828    0.5350192   -2.0551795  
H    2.2854518    0.3990492    0.8516401  
H   -4.3036170   -0.7510640   -1.7024290  
C   -7.7054950    0.8136759   -4.2066113  
C   -6.5473597    0.5572538   -4.9033445  
C   -6.8731930   -0.3906712   -5.9181702  
C   -8.2564037   -0.6778057   -5.7908574  
N   -8.7306477    0.0687388   -4.7409138  
C   -8.9229761   -1.5750737   -6.6307260  
C   -8.1797306   -2.1935225   -7.6172777  
O   -8.7807045   -3.0783545   -8.4651666  
C   -6.7984803   -1.9203702   -7.7599425  
O   -6.1977494   -2.6157165   -8.7890000  
C   -6.1401777   -1.0355121   -6.9315768  
H   -5.5857261    0.9982476   -4.7039007  
H   -9.6820435    0.0809032   -4.4204779  
H   -9.9769695   -1.7983443   -6.5388022  
H   -8.0926122   -3.3896346   -9.0675770  
H   -5.2669400   -2.3739960   -8.8167133  
H   -7.8810754    1.4679281   -3.3699004  
C    2.5128556    2.1077716    2.9199648  
C    1.9592212    1.6432552    4.0696553  
C    0.8915788    0.7479214    3.6910360  
C    0.8684491    0.7287414    2.2159470  
N    1.8754542    1.5738793    1.8102719  
C    0.0000000    0.0000000    1.4700000  
C   -0.9772830   -0.8200135    2.1664417  
O   -1.8021297   -1.5120829    1.5842315  
C   -0.9711318   -0.8147624    3.7284083  
O   -1.7894187   -1.5009653    4.3257297  
C    0.0140216    0.0115358    4.4216297  
H    2.2638494    1.8988021    5.0689105  
H    0.0117648    0.0094386    5.5031631  
H    3.3327358    2.7953732    2.7900019  
H    2.1123206    1.7707734    0.8551938  
