60

C    5.1888630   -4.4083199   -6.9095929  
C    4.1018415   -3.5853531   -6.7263462  
C    3.7513317   -3.6597645   -5.3456921  
C    4.6677956   -4.5509722   -4.7310631  
N    5.5257772   -4.9887944   -5.7092230  
C    4.6211407   -4.8633009   -3.3690558  
C    3.6314764   -4.2648265   -2.6136941  
O    3.5405840   -4.5343327   -1.2787337  
C    2.7075910   -3.3731664   -3.2088366  
O    1.7819219   -2.8595751   -2.3241309  
C    2.7528554   -3.0647961   -4.5524827  
H    3.6200382   -3.0038767   -7.4936420  
H    6.2906543   -5.6237524   -5.5686174  
H    5.3166024   -5.5418494   -2.8946009  
H    2.7924881   -4.0210252   -0.9468703  
H    1.1964161   -2.2675738   -2.8061278  
H    5.7496244   -4.6282708   -7.8018514  
C    1.7744462   -2.1336756   -5.1326812  
C    1.6746901   -1.7240756   -6.4187042  
C    0.5405880   -0.8130115   -6.4352721  
C    0.0614873   -0.7888181   -5.0365368  
N    0.7809199   -1.5609927   -4.2683232  
C   -1.0641734    0.0073898   -4.6315339  
C   -1.6828412    0.7461574   -5.5806429  
O   -2.7449529    1.5348090   -5.3440238  
C   -1.2228405    0.7432055   -7.0006961  
O   -1.8334839    1.4397974   -7.8113104  
C   -0.0658199   -0.0818749   -7.3911696  
H    2.2942502   -2.0053647   -7.2530297  
H   -2.9590931    1.9284671   -6.2090843  
H    0.2361347   -0.0563396   -8.4296300  
C    1.1319248    0.0015675   -0.8009270  
C    0.7969916    0.0034959   -2.1169404  
C   -0.6453336    0.0035703   -2.1842672  
C   -1.1266831    0.0015415   -0.7896027  
N    0.0000000    0.0000000    0.0000000  
C   -2.4346129    0.0013924   -0.4276297  
C   -3.4350110    0.0031352   -1.4820184  
O   -4.6384610    0.0030897   -1.2583919  
C   -2.9478958    0.0050460   -2.9661075  
O   -3.7809377    0.0062160   -3.8623775  
C   -1.5113821    0.0053068   -3.2312125  
H    1.4821240    0.0045436   -2.9459192  
H   -2.7664565    0.0000185    0.6013447  
H    2.1104318    0.0009428   -0.3488058  
C    0.8175213    0.6860729    2.3021913  
C    0.0000000    0.0000000    1.4700000  
C   -0.8887526   -0.7456559    2.3478473  
C   -0.4549825   -0.3816753    3.7138435  
N    0.5448156    0.4573574    3.6934124  
C   -1.0945674   -0.9182058    4.8835240  
C   -2.1210866   -1.7789155    4.6970523  
O   -2.8083856   -2.3554314    5.6976972  
C   -2.5824069   -2.1655116    3.3310774  
O   -3.5227682   -2.9541547    3.2362962  
C   -1.9100805   -1.6015804    2.1470656  
H   -0.7567140   -0.6349833    5.8697035  
H   -3.4728268   -2.9124471    5.2533954  
H   -2.2742832   -1.9066565    1.1752040  
H    1.6189533    1.3585343    2.0405121  
