62

C   -3.3002205   -0.0299019   -1.4738972  
C   -2.5231801   -0.0228079   -2.6090738  
C   -1.1622769   -0.0102133   -2.1820096  
C   -1.1711424   -0.0104823   -0.7636139  
N   -2.4851454   -0.0206275   -0.3662349  
C    0.0000000    0.0000000    0.0000000  
C    1.2019904    0.0106464   -0.6806491  
O    2.3758334    0.0207970    0.0157732  
C    1.2314107    0.0114715   -2.0955517  
O    2.5053305    0.0231027   -2.6250194  
C    0.0764403    0.0014074   -2.8495195  
H   -2.8034370   -0.0337709    0.5858677  
H    3.0834411    0.0274098   -0.6418835  
H    2.4358956    0.0228335   -3.5845934  
H    0.1303898    0.0025024   -3.9319089  
H   -4.3713785   -0.0393977   -1.3667116  
C   -3.0266341   -0.0260441   -3.9901686  
C   -4.3138277   -0.0375801   -4.4079945  
C   -4.2366310   -0.0353511   -5.8607632  
C   -2.7879630   -0.0214595   -6.1569930  
N   -2.0736861   -0.0160336   -5.0643967  
C   -2.2868059   -0.0154109   -7.5038007  
C   -3.1917273   -0.0232886   -8.5089829  
O   -2.8654564   -0.0189650   -9.8126576  
C   -4.6603411   -0.0377195   -8.2422880  
O   -5.4263915   -0.0441662   -9.2057948  
C   -5.1494512   -0.0436466   -6.8520862  
H   -5.2055717   -0.0465907   -3.8048470  
H   -1.2229836   -0.0050333   -7.6911079  
H   -3.7191916   -0.0268494  -10.2819418  
C   -7.5945749    2.0717962   -3.9308247  
C   -8.8420103    1.6521737   -4.2461070  
C   -8.6598756    0.7438581   -5.3678418  
C   -7.2003017    0.7320578   -5.6046716  
N   -6.5705883    1.5085434   -4.7653142  
C   -6.6050017   -0.0580547   -6.6469899  
C   -7.4302613   -0.8028343   -7.4174344  
O   -7.0116966   -1.5868971   -8.4254470  
C   -8.9074572   -0.8123975   -7.2030447  
O   -9.5979035   -1.5139153   -7.9422173  
C   -9.4939541    0.0066242   -6.1273352  
H   -9.7710239    1.9252228   -3.7755204  
H   -7.8250686   -1.9869233   -8.7825988  
H  -10.5681750   -0.0279759   -6.0045316  
H   -7.3015148    2.7564568   -3.1508705  
C    2.5311839    2.1237619    3.0120429  
C    1.9795631    1.6616747    1.8395852  
C    0.9223175    0.7739173    2.1983588  
C    0.8753926    0.7337535    3.6154372  
N    1.8668922    1.5631002    4.0777464  
C   -0.0496243   -0.0427881    4.3197917  
C   -0.9437528   -0.7922060    3.5801400  
O   -1.8685244   -1.5680278    4.2172520  
C   -0.9124520   -0.7656372    2.1655264  
O   -1.8671164   -1.5663939    1.5732860  
C    0.0000000    0.0000000    1.4700000  
H    2.3005065    1.9304404    0.8477417  
H    2.0679347    1.7444845    5.0445261  
H   -0.0904770   -0.0778569    5.3997470  
H   -2.3849669   -2.0011402    3.5251786  
H   -1.7775064   -1.4909735    0.6183591  
H    3.3468514    2.8078103    3.1724291  
