64

C    3.3003547    0.0005275   -1.4738980  
C    2.5232816    0.0003495   -2.6090742  
C    1.1623206   -0.0001320   -2.1820096  
C    1.1711889    0.0000583   -0.7636136  
N    2.4852300   -0.0014920   -0.3662353  
C    0.0000000    0.0000000    0.0000000  
C   -1.2020382    0.0000519   -0.6806479  
O   -2.3759247    0.0003494    0.0157745  
C   -1.2314650   -0.0005113   -2.0955508  
O   -2.5054383   -0.0008037   -2.6250181  
C   -0.0764510   -0.0007273   -2.8495192  
H    2.8919962   -0.0005621   -3.6205295  
H    2.8036265    0.0088181    0.5858667  
H   -3.0835641    0.0000347   -0.6418820  
H   -2.4360047   -0.0011529   -3.5845921  
C    4.7630506    0.0004754   -1.3275394  
C    5.7496393    0.0026152   -2.2862397  
C    6.9990004    0.0020518   -1.5979842  
C    6.7092702   -0.0007684   -0.2094690  
N    5.3425447    0.0002886   -0.0803284  
C    7.7059381   -0.0023442    0.7710610  
C    9.0190063   -0.0013564    0.3420781  
O   10.0316329   -0.0031639    1.2572828  
C    9.3281960    0.0018263   -1.0389393  
O   10.6818189    0.0028645   -1.3054854  
C    8.3454703    0.0036555   -2.0068098  
H    5.5886424    0.0054718   -3.3506949  
H    4.8418148   -0.0117287    0.7897905  
H    7.4916922   -0.0043502    1.8309183  
H   10.8555478   -0.0017605    0.7528768  
H   10.8038896    0.0050067   -2.2597904  
H    8.6128214    0.0062685   -3.0570458  
C    0.6672015   -0.7204490   -5.1593827  
C   -0.1496409   -0.0015614   -4.3176961  
C   -1.0587663    0.7263816   -5.1412187  
C   -0.7461677    0.4088959   -6.4878484  
N    0.3077053   -0.4705107   -6.4630860  
C   -1.4432453    0.9479362   -7.5733466  
C   -2.4748764    1.8231902   -7.2943382  
O   -3.1886730    2.3783662   -8.3167319  
C   -2.8016123    2.1526038   -5.9573459  
O   -3.8533284    3.0382902   -5.8442232  
C   -2.1141800    1.6214150   -4.8859911  
H    0.7409535   -0.8800258   -7.2709067  
H   -1.2098223    0.7100969   -8.6020097  
H   -3.8512426    2.9504124   -7.9080383  
H   -4.0091493    3.2077108   -4.9100819  
H   -2.3871560    1.8925362   -3.8728494  
H    1.4787355   -1.3905993   -4.9329527  
C    0.0000000    0.0000000    1.4700000  
C    1.0662921    0.0000102    2.3034270  
C    0.4961870   -0.0000064    3.6418889  
C   -0.9663858    0.0000850    3.4240247  
N   -1.2632773    0.0000084    2.1528658  
C   -1.8985362    0.0000517    4.5177257  
C   -1.3925775   -0.0004564    5.7720543  
O   -2.1456383   -0.0005410    6.8851312  
C    0.0786232   -0.0009323    6.0245000  
O    0.4683759   -0.0012588    7.1921102  
C    1.0143166   -0.0008442    4.8859032  
H    2.1107198   -0.0000632    2.0421868  
H   -2.9622183    0.0003270    4.3293377  
H   -1.5042274   -0.0009692    7.6184419  
H    2.0724152   -0.0013148    5.1109744  
