62

C    0.0000000    0.0000000    0.0000000  
C    1.0521663   -0.0012045   -0.8862348  
C    0.4917207   -0.0012024   -2.1979137  
C   -0.9187436    0.0003273   -2.0478681  
N   -1.1833172   -0.0009251   -0.7007908  
C   -1.7951715    0.0010596   -3.1372085  
C   -1.2375856    0.0005393   -4.4010423  
O   -2.0474234    0.0015638   -5.4997572  
C    0.1673564   -0.0013591   -4.5711968  
O    0.5673498   -0.0020764   -5.8915551  
C    1.0325757   -0.0023552   -3.4969898  
H    2.0953052   -0.0030934   -0.6200571  
H   -2.0989776    0.0102657   -0.2891816  
H   -1.4634914    0.0006698   -6.2693588  
H    1.5290683   -0.0033362   -5.9180052  
H    2.1042128   -0.0039896   -3.6584466  
C   -4.3329539    2.1450432   -0.3175470  
C   -5.5711353    1.7385772   -0.6826101  
C   -5.3537974    0.8274321   -1.7957493  
C   -3.8860875    0.7997670   -1.9736439  
N   -3.2823388    1.5701406   -1.1099302  
C   -3.2578665    0.0024482   -2.9908495  
C   -4.0594235   -0.7340647   -3.7935882  
O   -3.6090990   -1.5234087   -4.7836311  
C   -5.5440664   -0.7275914   -3.6388163  
O   -6.2117205   -1.4222667   -4.4049003  
C   -6.1645247    0.0985679   -2.5879038  
H   -6.5153407    2.0219728   -0.2498991  
H   -4.4116988   -1.9149746   -5.1730693  
H   -4.0641638    2.8271623    0.4733000  
C   -9.3534055    3.1131632   -1.8083544  
C   -8.1357618    2.5546795   -2.0007594  
C   -8.4025404    1.1429537   -2.2295809  
C   -9.8734144    1.0219182   -2.1375930  
N  -10.4362544    2.1735903   -1.8909096  
C  -10.5453978   -0.2368184   -2.3082044  
C   -9.7826793   -1.3250997   -2.5596795  
O  -10.2761309   -2.5620093   -2.7402369  
C   -8.2959850   -1.2352039   -2.6587776  
O   -7.6650687   -2.2665922   -2.8898688  
C   -7.6302186    0.0673626   -2.4798900  
H   -7.1751799    3.0407035   -1.9889643  
H  -11.6215505   -0.2961748   -2.2355326  
H   -9.4937476   -3.1202694   -2.8995288  
H   -9.5856723    4.1470049   -1.6078629  
C    3.3003543   -0.0005276    2.9438989  
C    2.5232812   -0.0003497    4.0790748  
C    1.1623199    0.0001319    3.6520102  
C    1.1711883   -0.0000583    2.2336141  
N    2.4852299    0.0014920    1.8362361  
C    0.0000000    0.0000000    1.4700000  
C   -1.2020384   -0.0000520    2.1506477  
O   -2.3759250   -0.0003494    1.4542253  
C   -1.2314658    0.0005113    3.5655508  
O   -2.5054393    0.0008037    4.0950179  
C   -0.0764518    0.0007272    4.3195194  
H    2.8919952    0.0005619    5.0905303  
H    2.8036267   -0.0088181    0.8841339  
H   -3.0835639   -0.0000348    2.1118817  
H   -2.4360050    0.0011527    5.0545920  
H   -0.1304098    0.0013421    5.4019087  
H    4.3715549   -0.0004895    2.8367138  
