62

C   -0.7294753    2.1207875   -5.7077425  
C    0.5420558    1.6594242   -5.9583827  
C    0.4510514    0.7716268   -7.0710974  
C   -0.9122656    0.7306937   -7.4604775  
N   -1.6018181    1.5596405   -6.6107819  
C   -1.3706722   -0.0460968   -8.5287699  
C   -0.4357386   -0.7949772   -9.2167062  
O   -0.8289713   -1.5710112  -10.2684443  
C    0.9289869   -0.7676384   -8.8430815  
O    1.7356321   -1.5679291   -9.6255131  
C    1.3818831   -0.0017551   -7.7891202  
H    1.4262266    1.9286855   -5.4063554  
H   -2.5885903    1.7404653   -6.6503374  
H   -2.4084176   -0.0817512   -8.8304561  
H   -0.0320197   -2.0036681  -10.6015236  
H    2.6402326   -1.4919990   -9.3068656  
H   -1.0833790    2.8046272   -4.9553637  
C    3.2973507   -0.0000930   -3.8752373  
C    4.6109361    0.0001678   -4.2009260  
C    4.6367192   -0.0000873   -5.6555166  
C    3.2125792   -0.0006166   -6.0535230  
N    2.4227566   -0.0005416   -5.0142111  
C    2.8079495   -0.0009501   -7.4324213  
C    3.7817669   -0.0003744   -8.3710449  
O    3.5485413   -0.0006026   -9.6945429  
C    5.2278970    0.0005395   -8.0010886  
O    6.0602352    0.0009039   -8.9079698  
C    5.6174380    0.0008223   -6.5797569  
H    5.4578082    0.0005835   -3.5361832  
H    4.4333802   -0.0000281  -10.1022326  
H    6.6752631    0.0016050   -6.3534027  
C    3.3321175    0.0004715   -1.3379331  
C    2.6974186    0.0000117   -2.5332308  
C    1.2800441   -0.0002117   -2.2052838  
C    1.2395036    0.0000644   -0.7271292  
N    2.4394065    0.0005460   -0.2131033  
C    0.0000000    0.0000000    0.0000000  
C   -1.1468701    0.0000635   -0.7169542  
O   -2.3742199    0.0000073   -0.1695491  
C   -1.1388766    0.0001607   -2.2096354  
O   -2.2206227    0.0000905   -2.7970412  
C    0.1454526    0.0001817   -2.9324239  
H   -2.9844344    0.0001026   -0.9290168  
H    0.1083579    0.0003683   -4.0135594  
H    4.3940038    0.0007619   -1.1498630  
C    2.5285572    2.1210227    2.9438989  
C    1.9331703    1.6216660    4.0790748  
C    0.8903039    0.7472258    3.6520102  
C    0.8972198    0.7527806    2.2336141  
N    1.9028376    1.5986179    1.8362361  
C    0.0000000    0.0000000    1.4700000  
C   -0.9207814   -0.7726952    2.1506477  
O   -1.8198395   -1.5274828    1.4542253  
C   -0.9436862   -0.7911793    3.5655508  
O   -1.9197945   -1.6098497    4.0950179  
C   -0.0590329   -0.0485852    4.3195194  
H    2.2150357    1.8593692    5.0905303  
H    2.1533708    1.7953814    0.8841339  
H   -2.3621246   -1.9821033    2.1118817  
H   -1.8668290   -1.5649508    5.0545920  
H   -0.1007624   -0.0827977    5.4019087  
H    3.3491200    2.8096064    2.8367138  
