62

C   -8.4448434    1.1137931   -2.0528376  
C   -9.7644324    0.7385508   -1.9511188  
C   -9.8193500   -0.6638161   -2.2059732  
C   -8.4913386   -1.0932105   -2.4588251  
N   -7.6821512    0.0113406   -2.3598349  
C   -8.1685278   -2.4223105   -2.7487815  
C   -9.2051824   -3.3346137   -2.7838305  
O   -8.9459948   -4.6455652   -3.0617510  
C  -10.5368333   -2.9254247   -2.5346552  
O  -11.4562892   -3.9514748   -2.6065341  
C  -10.8560616   -1.6143522   -2.2488082  
H  -10.5864774    1.3950533   -1.7225578  
H   -7.1584087   -2.7559396   -2.9425649  
H   -9.7963612   -5.1032914   -3.0366706  
H  -12.3295902   -3.5905101   -2.4258314  
H  -11.8852726   -1.3306530   -2.0624798  
H   -7.9875294    2.0808737   -1.9321006  
C   -4.4297974    2.1087670   -0.2339398  
C   -5.6380117    1.6447705   -0.6450366  
C   -5.3911869    0.7496345   -1.7507690  
C   -3.9296543    0.7300040   -1.9515853  
N   -3.4052343    1.5747188   -1.0006228  
C   -3.2941076    0.0012878   -2.9038237  
C   -4.1035802   -0.8182213   -3.7902175  
O   -3.6253063   -1.5102279   -4.6794205  
C   -5.6534087   -0.8124879   -3.5957847  
O   -6.3452681   -1.4982638   -4.3362584  
C   -6.2225101    0.0137344   -2.5340254  
H   -6.5931606    1.9005373   -0.2220858  
H   -4.2016945    2.7960862    0.5644657  
H   -2.4284974    1.7712471   -0.8805867  
C    0.0000000    0.0000000    0.0000000  
C    1.0541688   -0.0001723   -0.8560392  
C    0.5103136   -0.0000455   -2.1935956  
C   -0.9576373    0.0002461   -2.0455730  
N   -1.2018460   -0.0001389   -0.6915968  
C   -1.8348314    0.0008319   -3.0810607  
C   -1.2972851    0.0009739   -4.4314603  
O   -2.0050676    0.0014268   -5.4301316  
C    0.2542619    0.0004184   -4.6117572  
O    0.7184666    0.0002257   -5.7439122  
C    1.0974551    0.0000873   -3.4189129  
H    2.0940752   -0.0005484   -0.5817983  
H    2.1707276   -0.0000912   -3.5523673  
H   -2.1128194    0.0014915   -0.2706789  
C    1.1188642   -0.0008217    2.2703808  
C    0.0000000    0.0000000    1.4700000  
C   -1.1323862   -0.0008904    2.3373528  
C   -0.6382662   -0.0019682    3.6669281  
N    0.7324016   -0.0038477    3.5902241  
C   -1.4770914   -0.0027325    4.7854808  
C   -2.8395474   -0.0020958    4.5576857  
O   -3.7039201   -0.0024443    5.6140350  
C   -3.3517868   -0.0013946    3.2384331  
O   -4.7300496   -0.0012389    3.1773122  
C   -2.5248543   -0.0009135    2.1344818  
H    1.3576314    0.0056174    4.3757045  
H   -1.1067570   -0.0036993    5.8013813  
H   -4.5940033   -0.0021850    5.2385129  
H   -4.9934601   -0.0007286    2.2519915  
H   -2.9462578   -0.0005617    1.1360343  
H    2.1619896   -0.0009344    2.0042067  
