64

C    6.2909041   -1.9546659   -7.1116563  
C    7.3762514   -2.7869142   -7.2594831  
C    7.7522265   -2.7405607   -8.6346526  
C    6.8526596   -1.8556753   -9.2824825  
N    5.9772099   -1.3977177   -8.3293397  
C    6.9263585   -1.5688407  -10.6488944  
C    7.9265710   -2.1863104  -11.3744871  
O    8.0441879   -1.9414816  -12.7121104  
C    8.8334608   -3.0726180  -10.7461338  
O    9.7721561   -3.6077907  -11.6039132  
C    8.7611801   -3.3562612   -9.3982295  
H    7.8392679   -3.3581042   -6.4731301  
H    5.2313380   -0.7456089   -8.4918523  
H    6.2437041   -0.8954591  -11.1486377  
H    8.7950271   -2.4652725  -13.0205753  
H   10.3447969   -4.1944512  -11.1004099  
H    9.4697554   -4.0394860   -8.9447939  
C    5.7258292   -2.1256352   -4.6503670  
C    5.5043005   -1.6279379   -5.9135734  
C    4.3814514   -0.7527184   -5.8252546  
C    3.9565273   -0.7561091   -4.4719793  
N    4.7930957   -1.6014631   -3.7863066  
C    2.8699641   -0.0020530   -4.0185824  
C    2.2003456    0.7697162   -4.9481851  
O    1.1324736    1.5256768   -4.5593570  
C    2.6089836    0.7860435   -6.3030156  
O    1.8406947    1.6040254   -7.1055010  
C    3.6806472    0.0421902   -6.7510613  
H    4.7419878   -1.7968040   -2.8028376  
H    0.8162315    1.9793599   -5.3514603  
H    2.1830482    1.5576553   -8.0034135  
H    3.9702038    0.0747557   -7.7948889  
H    6.4744890   -2.8141560   -4.2976524  
C    3.2573670   -0.0002921   -1.5109382  
C    2.5379468   -0.0001711   -0.3591962  
C    1.1435043    0.0000330   -0.7338498  
C    1.1092608   -0.0000085   -2.2088474  
N    2.4227562    0.0001906   -2.6182610  
C   -0.0265533   -0.0002525   -2.9515663  
C   -1.3003033   -0.0002641   -2.2514979  
O   -2.3786785   -0.0004132   -2.8306425  
C   -1.2877724    0.0000310   -0.6895608  
O   -2.3539956    0.0003306   -0.0892035  
C    0.0000000    0.0000000    0.0000000  
H    2.9384091   -0.0000370    0.6389240  
H   -0.0296290   -0.0004088   -4.0327231  
H    4.3270394   -0.0004767   -1.6439445  
C    0.8676693    0.7151171    2.2619005  
C    0.5875920    0.4624972    3.5848544  
C   -0.5048400   -0.4542819    3.6114698  
C   -0.8517165   -0.7276451    2.2635546  
N    0.0000000    0.0000000    1.4700000  
C   -1.8902865   -1.5946756    1.9108239  
C   -2.5912627   -2.1969500    2.9375057  
O   -3.6148162   -3.0527051    2.6493466  
C   -2.2603868   -1.9365747    4.2886322  
O   -3.0513550   -2.6123276    5.1947621  
C   -1.2361111   -1.0811317    4.6373480  
H    1.1060808    0.8876438    4.4271209  
H   -2.1597133   -1.8070987    0.8854031  
H   -3.9636755   -3.3565188    3.4974381  
H   -2.7621927   -2.3810384    6.0827341  
H   -1.0058879   -0.9010589    5.6809233  
H    1.6167816    1.3499334    1.8205408  
