60

C    8.1892491    0.0036053   -2.5367312  
C    8.3678377    0.0063040   -3.9007567  
C    9.7746173    0.0086356   -4.1364797  
C   10.4091936    0.0069241   -2.8679228  
N    9.4176844    0.0058282   -1.9184355  
C   11.7992307    0.0081538   -2.7176436  
C   12.5625731    0.0108592   -3.8689381  
O   13.9245803    0.0118090   -3.7797845  
C   11.9479074    0.0129747   -5.1436925  
O   12.8438599    0.0159858   -6.1927882  
C   10.5766593    0.0120364   -5.2926988  
H    7.5809650    0.0076657   -4.6354828  
H    9.5651038   -0.0060319   -0.9254060  
H   12.2890195    0.0070054   -1.7536371  
H   14.2575652    0.0140198   -4.6866370  
H   12.3473051    0.0172363   -7.0168236  
H   10.1344798    0.0138922   -6.2821193  
C    5.6664810    0.0014065   -2.2647026  
C    4.7390840    0.0009613   -1.2727298  
C    5.4604950    0.0006395   -0.0219693  
C    6.8944812    0.0009652   -0.3690619  
N    6.9515096    0.0010262   -1.7437027  
C    7.9048599    0.0011991    0.5369402  
C    7.5567537    0.0008990    1.9480947  
O    8.3942798    0.0010140    2.8407597  
C    6.0443612    0.0002996    2.3385746  
O    5.7391067   -0.0002636    3.5235134  
C    5.0461773    0.0003722    1.2720470  
H    8.9502793    0.0015667    0.2612453  
H    4.0011828    0.0001603    1.5508123  
H    5.5192864    0.0017636   -3.3325147  
C    3.2798077    0.0005856   -1.4499661  
C    2.5571132    0.0005565   -2.5996564  
C    1.1637425    0.0001547   -2.2210366  
C    1.1336959   -0.0000200   -0.7459475  
N    2.4483509   -0.0001429   -0.3402730  
C    0.0000000    0.0000000    0.0000000  
C   -1.2757370   -0.0000187   -0.6964411  
O   -2.3524597   -0.0000640   -0.1142306  
C   -1.2676502   -0.0000874   -2.2584078  
O   -2.3355774   -0.0004102   -2.8557287  
C    0.0181551    0.0001758   -2.9516297  
H    2.9547342    0.0006074   -3.5989118  
H    0.0150776    0.0003317   -4.0331632  
H    2.7563626    0.0012823    0.6148051  
C    0.0000000    0.0000000    1.4700000  
C    1.0541688    0.0001722    2.3260392  
C    0.5103138    0.0000454    3.6635956  
C   -0.9576371   -0.0002459    3.5155732  
N   -1.2018458    0.0001392    2.1615969  
C   -1.8348311   -0.0008317    4.5510609  
C   -1.2972847   -0.0009736    5.9014604  
O   -2.0050672   -0.0014265    6.9001319  
C    0.2542623   -0.0004184    6.0817573  
O    0.7184670   -0.0002256    7.2139121  
C    1.0974552   -0.0000873    4.8889129  
H    2.0940752    0.0005483    2.0517982  
H   -2.9081052   -0.0011668    4.4207061  
H    2.1707277    0.0000911    5.0223670  
H   -2.1128194   -0.0014912    1.7406791  
