60

C   10.0364323   -2.1236103   -1.1024244  
C   11.2558109   -1.6249530   -1.4985618  
C   11.0106933   -0.7511106   -2.5989783  
C    9.6113676   -0.7562923   -2.8308962  
N    9.0500850   -1.6013432   -1.9059812  
C    9.0099430   -0.0039230   -3.8443149  
C    9.8361476    0.7679696   -4.6378792  
O    9.3012663    1.5223271   -5.6418015  
C   11.2347270    0.7860708   -4.4223182  
O   11.9212366    1.6039399   -5.2958945  
C   11.8287627    0.0438819   -3.4229165  
H   12.2053044   -1.8627275   -1.0503245  
H    8.0693245   -1.7976889   -1.8191531  
H   10.0409836    1.9764085   -6.0659406  
H   12.8581895    1.5588278   -5.0821451  
H   12.9027461    0.0777849   -3.2818889  
H    9.7924078   -2.8116081   -0.3111795  
C    5.5795936   -0.0015221   -1.1027758  
C    4.5679461   -0.0016854   -2.0086701  
C    5.1756903   -0.0023284   -3.3184346  
C    6.6347916   -0.0025573   -3.0997720  
N    6.8134023   -0.0016468   -1.7355920  
C    7.5609148   -0.0035412   -4.0917392  
C    7.0891366   -0.0042082   -5.4664974  
O    7.8442695   -0.0050456   -6.4298633  
C    5.5480930   -0.0037283   -5.7214287  
O    5.1390419   -0.0039759   -6.8746586  
C    4.6483398   -0.0029381   -4.5706482  
H    3.5827546   -0.0028151   -4.7557203  
H    5.5275967   -0.0011044   -0.0261209  
H    7.7030101   -0.0031108   -1.2712192  
C    3.1301149   -0.0010311   -1.7028252  
C    2.5367768   -0.0002767   -0.4864665  
C    1.1089904    0.0001028   -0.7656183  
C    1.0177872   -0.0004148   -2.2415132  
N    2.1993578   -0.0011611   -2.7963820  
C   -0.2459209   -0.0002877   -2.9257118  
C   -1.3675319   -0.0000605   -2.1698524  
O   -2.6129313    0.0000867   -2.6748490  
C   -1.3083584    0.0000910   -0.6783232  
O   -2.3693261    0.0004206   -0.0541692  
C    0.0000000    0.0000000    0.0000000  
H    3.0096017   -0.0001007    0.4807525  
H   -0.2829630   -0.0004687   -4.0053125  
H   -3.1967441    0.0002094   -1.8949034  
C    0.8175213    0.6860729    2.3021913  
C    0.0000000    0.0000000    1.4700000  
C   -0.8887526   -0.7456559    2.3478473  
C   -0.4549825   -0.3816753    3.7138435  
N    0.5448156    0.4573574    3.6934124  
C   -1.0945674   -0.9182058    4.8835240  
C   -2.1210866   -1.7789155    4.6970523  
O   -2.8083856   -2.3554314    5.6976972  
C   -2.5824069   -2.1655116    3.3310774  
O   -3.5227682   -2.9541547    3.2362962  
C   -1.9100805   -1.6015804    2.1470656  
H   -0.7567140   -0.6349833    5.8697035  
H   -3.4728268   -2.9124471    5.2533954  
H   -2.2742832   -1.9066565    1.1752040  
H    1.6189533    1.3585343    2.0405121  
