64

C    3.5555669   -3.6504884   -5.3969649  
C    2.5718380   -3.0243255   -4.6671261  
C    2.7148733   -3.4594100   -3.3162586  
C    3.8120898   -4.3576789   -3.2822707  
N    4.2983426   -4.4526206   -4.5625682  
C    4.2414359   -4.9830114   -2.1077879  
C    3.5507530   -4.6960897   -0.9464046  
O    3.9280359   -5.2788655    0.2287734  
C    2.4531851   -3.8027965   -0.9601411  
O    1.8692298   -3.6206726    0.2764552  
C    2.0289033   -3.1857382   -2.1184803  
H    5.0840083   -5.0101831   -4.8451173  
H    5.0768680   -5.6687204   -2.0752568  
H    3.3226857   -4.9472670    0.9046860  
H    1.1371477   -3.0040594    0.1792549  
H    1.1848466   -2.5063036   -2.0981036  
H    3.7852474   -3.5894916   -6.4469574  
C    1.5730417   -2.0888198   -5.2039079  
C    1.4267857   -1.6687779   -6.4820917  
C    0.2928026   -0.7579746   -6.4501588  
C   -0.1353499   -0.7453431   -5.0348464  
N    0.6114414   -1.5235251   -4.2995067  
C   -1.2456329    0.0471727   -4.5828766  
C   -1.8982730    0.7934563   -5.5029073  
O   -2.9511439    1.5798097   -5.2215673  
C   -1.4899805    0.8022335   -6.9386583  
O   -2.1295866    1.5052158   -7.7209243  
C   -0.3478313   -0.0192623   -7.3774796  
H    2.0157441   -1.9430541   -7.3405653  
H   -3.1964702    1.9804406   -6.0750677  
H   -0.0836678    0.0148381   -8.4259472  
C    1.1243410    0.0099923   -0.7919003  
C    0.7474076    0.0234544   -2.1148543  
C   -0.6787381    0.0234490   -2.1414700  
C   -1.1201745    0.0098592   -0.7935546  
N    0.0000000    0.0000000    0.0000000  
C   -2.4730816    0.0063709   -0.4408240  
C   -3.3971958    0.0170982   -1.4675058  
O   -4.7313517    0.0146259   -1.1793471  
C   -2.9763648    0.0303504   -2.8186324  
O   -4.0166480    0.0395118   -3.7247624  
C   -1.6418562    0.0335260   -3.1673481  
H    1.4178717    0.0310972   -2.9571209  
H   -2.8160166   -0.0041111    0.5845966  
H   -5.1938818    0.0230867   -2.0274384  
H   -3.6464675    0.0482293   -4.6127343  
H    2.1062467    0.0052819   -0.3505407  
C    2.5285572    2.1210227    2.9438989  
C    1.9331703    1.6216660    4.0790748  
C    0.8903039    0.7472258    3.6520102  
C    0.8972198    0.7527806    2.2336141  
N    1.9028376    1.5986179    1.8362361  
C    0.0000000    0.0000000    1.4700000  
C   -0.9207814   -0.7726952    2.1506477  
O   -1.8198395   -1.5274828    1.4542253  
C   -0.9436862   -0.7911793    3.5655508  
O   -1.9197945   -1.6098497    4.0950179  
C   -0.0590329   -0.0485852    4.3195194  
H    2.2150357    1.8593692    5.0905303  
H    2.1533708    1.7953814    0.8841339  
H   -2.3621246   -1.9821033    2.1118817  
H   -1.8668290   -1.5649508    5.0545920  
H   -0.1007624   -0.0827977    5.4019087  
H    3.3491200    2.8096064    2.8367138  
