62

C    7.0211681   -0.7308387   -5.8269217  
C    6.3687792   -0.0125562   -6.8020763  
C    7.3644221    0.7126434   -7.5213684  
C    8.6161632    0.3941844   -6.9351475  
N    8.3715094   -0.4831353   -5.9079807  
C    9.8236877    0.9305876   -7.3922535  
C    9.7665762    1.8041556   -8.4608023  
O   10.9158749    2.3567357   -8.9474056  
C    8.5272198    2.1345029   -9.0588670  
O    8.6365621    3.0182690  -10.1125964  
C    7.3355471    1.6059163   -8.6082700  
H    9.0709901   -0.8927542   -5.3155956  
H   10.7809894    0.6919942   -6.9497068  
H   10.6547257    2.9279684   -9.6814078  
H    7.7554797    3.1884838  -10.4594739  
H    6.4017009    1.8776957   -9.0863336  
H    6.6299508   -1.3991381   -5.0790686  
C    2.8699641   -0.0020527   -4.0185824  
C    4.1418711   -0.0047199   -4.5427127  
C    4.0070340   -0.0066609   -5.9627180  
C    2.6177782   -0.0047543   -6.2488845  
N    1.9559320   -0.0039232   -5.0461476  
C    2.1142961   -0.0055928   -7.5532209  
C    3.0299402   -0.0081002   -8.5875165  
O    2.5927437   -0.0086675   -9.8805249  
C    4.4200523   -0.0104052   -8.3221857  
O    5.2027708   -0.0131798   -9.4582705  
C    4.9174612   -0.0098529   -7.0356748  
H    5.0545875   -0.0063119   -3.9718018  
H    0.9584585    0.0079917   -4.9326308  
H    1.0566197   -0.0042943   -7.7779891  
H    3.3831284   -0.0107971  -10.4359999  
H    6.1269502   -0.0145805   -9.1908868  
C    3.2573673   -0.0002921   -1.5109381  
C    2.5379469   -0.0001710   -0.3591962  
C    1.1435042    0.0000332   -0.7338498  
C    1.1092607   -0.0000083   -2.2088474  
N    2.4227562    0.0001908   -2.6182610  
C   -0.0265532   -0.0002523   -2.9515663  
C   -1.3003033   -0.0002639   -2.2514979  
O   -2.3786784   -0.0004132   -2.8306425  
C   -1.2877726    0.0000312   -0.6895609  
O   -2.3539956    0.0003308   -0.0892035  
C    0.0000000    0.0000000    0.0000000  
H    2.9384091   -0.0000368    0.6389240  
H   -0.0296292   -0.0004086   -4.0327231  
H    4.3270395   -0.0004765   -1.6439444  
C    0.0000000    0.0000000    1.4700000  
C    1.0541688    0.0001722    2.3260392  
C    0.5103138    0.0000454    3.6635956  
C   -0.9576371   -0.0002459    3.5155732  
N   -1.2018458    0.0001392    2.1615969  
C   -1.8348311   -0.0008317    4.5510609  
C   -1.2972847   -0.0009736    5.9014604  
O   -2.0050672   -0.0014265    6.9001319  
C    0.2542623   -0.0004184    6.0817573  
O    0.7184670   -0.0002256    7.2139121  
C    1.0974552   -0.0000873    4.8889129  
H    2.0940752    0.0005483    2.0517982  
H   -2.9081052   -0.0011668    4.4207061  
H    2.1707277    0.0000911    5.0223670  
H   -2.1128194   -0.0014912    1.7406791  
