64

C   -3.9582765    0.7120005   -2.0436193  
C   -5.3029542    0.4626329   -2.1923642  
C   -5.4396993   -0.4462424   -3.2831650  
C   -4.1334642   -0.7183592   -3.7644427  
N   -3.2578657    0.0024038   -2.9908501  
C   -3.8873044   -1.5782278   -4.8390683  
C   -4.9796589   -2.1744904   -5.4385775  
O   -4.7962362   -3.0231312   -6.4917524  
C   -6.2907033   -1.9152428   -4.9729922  
O   -7.2721845   -2.5844469   -5.6745648  
C   -6.5343103   -1.0668623   -3.9130711  
H   -6.0887192    0.8848246   -1.5896031  
H   -2.8941507   -1.7896628   -5.2107442  
H   -5.6753432   -3.3236391   -6.7565764  
H   -8.1265769   -2.3544160   -5.2968033  
H   -7.5494853   -0.8874780   -3.5788238  
H   -3.4434898    1.3410027   -1.3377088  
C    0.0000000    0.0000000    0.0000000  
C    1.0521666   -0.0011902   -0.8862342  
C    0.4917215   -0.0011958   -2.1979130  
C   -0.9187431    0.0003147   -2.0478680  
N   -1.1833172   -0.0009412   -0.7007911  
C   -1.7951703    0.0010349   -3.1372087  
C   -1.2375842    0.0005222   -4.4010418  
O   -2.0474221    0.0015357   -5.4997576  
C    0.1673575   -0.0013569   -4.5711960  
O    0.5673518   -0.0020691   -5.8915554  
C    1.0325767   -0.0023415   -3.4969891  
H    2.0953058   -0.0030650   -0.6200564  
H   -2.0989777    0.0102372   -0.2891820  
H   -1.4634890    0.0006494   -6.2693593  
H    1.5290704   -0.0033156   -5.9180047  
C    2.4861699   -0.0045385   -3.7159923  
C    3.5192648   -0.0070041   -2.8076002  
C    4.7328077   -0.0089962   -3.5572066  
C    4.3743059   -0.0073274   -4.9295767  
N    3.0028453   -0.0065824   -4.9905084  
C    5.3209174   -0.0082763   -5.9585154  
C    6.6537142   -0.0106518   -5.5954393  
O    7.6195173   -0.0113182   -6.5599281  
C    7.0312773   -0.0127194   -4.2315264  
O    8.3964902   -0.0153862   -4.0327051  
C    6.0979600   -0.0120580   -3.2159257  
H    3.4114637   -0.0084322   -1.7364466  
H    2.4594297    0.0051683   -5.8346307  
H    5.0541694   -0.0071589   -7.0063922  
H    8.4675236   -0.0133274   -6.0971684  
H    8.5659211   -0.0166273   -3.0856594  
H    6.4172669   -0.0138689   -2.1803010  
C    3.2798086   -0.0005857    2.9199648  
C    2.5571146   -0.0005566    4.0696553  
C    1.1637436   -0.0001548    3.6910360  
C    1.1336965    0.0000200    2.2159470  
N    2.4483514    0.0001428    1.8102719  
C    0.0000000    0.0000000    1.4700000  
C   -1.2757367    0.0000186    2.1664417  
O   -2.3524596    0.0000640    1.5842315  
C   -1.2676493    0.0000873    3.7284083  
O   -2.3355761    0.0004100    4.3257297  
C    0.0181563   -0.0001760    4.4216297  
H    2.9547357   -0.0006076    5.0689105  
H    0.0150794   -0.0003319    5.5031631  
H    4.3498549   -0.0008612    2.7900019  
H    2.7563627   -0.0012824    0.8551938  
