62

C   -3.2970966    0.0011731   -7.4031306  
C   -4.0709364    0.0032122   -6.2657495  
C   -5.4331064    0.0042700   -6.6889410  
C   -5.4282742    0.0024972   -8.1073549  
N   -4.1153685    0.0025913   -8.5084715  
C   -6.6016308    0.0026114   -8.8676345  
C   -7.8017270    0.0042437   -8.1835700  
O   -8.9775903    0.0040788   -8.8766491  
C   -7.8271270    0.0064015   -6.7685905  
O   -9.0995882    0.0082659   -6.2355020  
C   -6.6699726    0.0065634   -6.0179113  
H   -3.6993445    0.0049628   -5.2553487  
H   -3.7996902   -0.0090224   -9.4614639  
H   -6.6047078    0.0014100   -9.9489250  
H   -9.6833544    0.0056705   -8.2169831  
H   -9.0274236    0.0096275   -5.2761298  
H   -6.7208498    0.0084225   -4.9353745  
C   -0.0307354   -0.0004645   -4.4215603  
C    1.0189059   -0.0016748   -5.3107842  
C    0.4547315   -0.0019272   -6.6208633  
C   -0.9553006   -0.0005398   -6.4668061  
N   -1.2160413   -0.0016284   -5.1189823  
C   -1.8348235   -0.0000669   -7.5536496  
C   -1.2808351   -0.0007047   -8.8190637  
O   -2.0937953    0.0000670   -9.9154712  
C    0.1236171   -0.0024643   -8.9932143  
O    0.5198537   -0.0033261  -10.3147050  
C    0.9918889   -0.0032050   -7.9214727  
H    2.0627981   -0.0034040   -5.0475745  
H   -2.1305285    0.0095155   -4.7047714  
H   -1.5120540   -0.0008704  -10.6867301  
H    1.4814934   -0.0044777  -10.3438909  
H    2.0630634   -0.0047380   -8.0859766  
C    3.2573669   -0.0002919   -1.5109381  
C    2.5379467   -0.0001709   -0.3591962  
C    1.1435042    0.0000332   -0.7338501  
C    1.1092607   -0.0000081   -2.2088477  
N    2.4227561    0.0001910   -2.6182614  
C   -0.0265534   -0.0002522   -2.9515663  
C   -1.3003036   -0.0002639   -2.2514981  
O   -2.3786785   -0.0004131   -2.8306428  
C   -1.2877726    0.0000312   -0.6895608  
O   -2.3539957    0.0003306   -0.0892035  
C    0.0000000    0.0000000    0.0000000  
H    2.9384091   -0.0000368    0.6389238  
H    4.3270391   -0.0004764   -1.6439447  
H    2.7280492   -0.0013405   -3.5742114  
C    0.0000000    0.0000000    1.4700000  
C    1.0662921    0.0000102    2.3034270  
C    0.4961870   -0.0000064    3.6418889  
C   -0.9663858    0.0000850    3.4240247  
N   -1.2632773    0.0000084    2.1528658  
C   -1.8985362    0.0000517    4.5177257  
C   -1.3925775   -0.0004564    5.7720543  
O   -2.1456383   -0.0005410    6.8851312  
C    0.0786232   -0.0009323    6.0245000  
O    0.4683759   -0.0012588    7.1921102  
C    1.0143166   -0.0008442    4.8859032  
H    2.1107198   -0.0000632    2.0421868  
H   -2.9622183    0.0003270    4.3293377  
H   -1.5042274   -0.0009692    7.6184419  
H    2.0724152   -0.0013148    5.1109744  
