60

C    4.5236614   -2.7974352   -9.0843278  
C    3.8730149   -1.8761299   -8.2967205  
C    3.9629613   -0.6193480   -8.9653074  
C    4.6855944   -0.8375372  -10.1661908  
N    5.0126205   -2.1702269  -10.2063235  
C    4.9643086    0.1854098  -11.0776109  
C    4.5049018    1.4516257  -10.7713114  
O    4.7488575    2.4870476  -11.6265322  
C    3.7824345    1.6893086   -9.5778437  
O    3.3935160    3.0030146   -9.4157879  
C    3.5073455    0.6806746   -8.6781162  
H    3.3935998   -2.0840793   -7.3554919  
H    5.5183266   -2.6216555  -10.9469009  
H    5.5146879    0.0256603  -11.9945430  
H    4.3479077    3.2704979  -11.2281465  
H    2.9119140    3.0775156   -8.5862618  
H    4.6788737   -3.8520522   -8.9338235  
C    3.9401659   -0.7297684   -4.5164159  
C    4.0974222   -0.5149780   -5.8480353  
C    3.0659753    0.4122204   -6.2496023  
C    2.2893659    0.7222461   -5.0340559  
N    2.8699641   -0.0020530   -4.0185824  
C    1.2252020    1.5635280   -4.9952719  
C    0.8173885    2.2063907   -6.2333959  
O   -0.1284207    2.9803730   -6.3019364  
C    1.6253360    1.8924315   -7.5328017  
O    1.2911306    2.4275068   -8.5812585  
C    2.7538829    0.9687189   -7.4492041  
H    4.8499670   -0.9558997   -6.4772237  
H    0.6692887    1.7773825   -4.0929762  
H    4.5159219   -1.3586207   -3.8569165  
C    3.2573670   -0.0002921   -1.5109382  
C    2.5379468   -0.0001711   -0.3591962  
C    1.1435043    0.0000330   -0.7338498  
C    1.1092608   -0.0000085   -2.2088474  
N    2.4227562    0.0001906   -2.6182610  
C   -0.0265533   -0.0002525   -2.9515663  
C   -1.3003033   -0.0002641   -2.2514979  
O   -2.3786785   -0.0004132   -2.8306425  
C   -1.2877724    0.0000310   -0.6895608  
O   -2.3539956    0.0003306   -0.0892035  
C    0.0000000    0.0000000    0.0000000  
H    2.9384091   -0.0000370    0.6389240  
H   -0.0296290   -0.0004088   -4.0327231  
H    4.3270394   -0.0004767   -1.6439445  
C    2.5128556    2.1077716    2.9199648  
C    1.9592212    1.6432552    4.0696553  
C    0.8915788    0.7479214    3.6910360  
C    0.8684491    0.7287414    2.2159470  
N    1.8754542    1.5738793    1.8102719  
C    0.0000000    0.0000000    1.4700000  
C   -0.9772830   -0.8200135    2.1664417  
O   -1.8021297   -1.5120829    1.5842315  
C   -0.9711318   -0.8147624    3.7284083  
O   -1.7894187   -1.5009653    4.3257297  
C    0.0140216    0.0115358    4.4216297  
H    2.2638494    1.8988021    5.0689105  
H    0.0117648    0.0094386    5.5031631  
H    3.3327358    2.7953732    2.7900019  
H    2.1123206    1.7707734    0.8551938  
