60

C    7.1066610    0.0009526    2.3854222  
C    5.8416570   -0.0003122    2.9260058  
C    5.9948978   -0.0005056    4.3441442  
C    7.3877486    0.0009725    4.6122678  
N    8.0339416   -0.0001211    3.4010492  
C    7.9081029    0.0015216    5.9099658  
C    7.0059482    0.0008681    6.9560505  
O    7.4598762    0.0017118    8.2432815  
C    5.6125116   -0.0009814    6.7087721  
O    4.8445909   -0.0018474    7.8549149  
C    5.0984599   -0.0017973    5.4288206  
H    4.9216127   -0.0021149    2.3669813  
H    9.0298653    0.0110763    3.2745915  
H    8.9686061    0.0025030    6.1209971  
H    6.6767604    0.0007486    8.8089610  
H    3.9170208   -0.0030622    7.5995405  
H    4.0263551   -0.0033984    5.2704967  
C    4.7390840    0.0009613   -1.2727298  
C    5.6949926    0.0015506   -2.2307577  
C    6.9549534    0.0016803   -1.5034347  
C    6.5623376    0.0012140   -0.0777992  
N    5.2646562    0.0007106    0.0636643  
C    7.5356720    0.0011403    0.9794175  
C    8.8418533    0.0011264    0.6283828  
O    9.8560149    0.0010679    1.5101523  
C    9.2698380    0.0012200   -0.8016485  
O   10.4759225    0.0013257   -1.0477807  
C    8.2523630    0.0013383   -1.8677953  
H    5.5615832    0.0017688   -3.2990634  
H   10.6613103    0.0010472    0.9618348  
H    8.6033659    0.0012884   -2.8910385  
C    3.2798077    0.0005856   -1.4499661  
C    2.5571132    0.0005565   -2.5996564  
C    1.1637425    0.0001547   -2.2210366  
C    1.1336959   -0.0000200   -0.7459475  
N    2.4483509   -0.0001429   -0.3402730  
C    0.0000000    0.0000000    0.0000000  
C   -1.2757370   -0.0000187   -0.6964411  
O   -2.3524597   -0.0000640   -0.1142306  
C   -1.2676502   -0.0000874   -2.2584078  
O   -2.3355774   -0.0004102   -2.8557287  
C    0.0181551    0.0001758   -2.9516297  
H    2.9547342    0.0006074   -3.5989118  
H    0.0150776    0.0003317   -4.0331632  
H    2.7563626    0.0012823    0.6148051  
C    0.0000000    0.0000000    1.4700000  
C    1.0541688    0.0001722    2.3260392  
C    0.5103138    0.0000454    3.6635956  
C   -0.9576371   -0.0002459    3.5155732  
N   -1.2018458    0.0001392    2.1615969  
C   -1.8348311   -0.0008317    4.5510609  
C   -1.2972847   -0.0009736    5.9014604  
O   -2.0050672   -0.0014265    6.9001319  
C    0.2542623   -0.0004184    6.0817573  
O    0.7184670   -0.0002256    7.2139121  
C    1.0974552   -0.0000873    4.8889129  
H    2.0940752    0.0005483    2.0517982  
H   -2.9081052   -0.0011668    4.4207061  
H    2.1707277    0.0000911    5.0223670  
H   -2.1128194   -0.0014912    1.7406791  
