62

C    9.2819201    0.0021530    0.6006726  
C    9.9373251    0.0029636   -0.6088362  
C   11.3351795    0.0034349   -0.3249300  
C   11.4731682    0.0025866    1.0867657  
N   10.2073140    0.0037718    1.6180186  
C   12.7171034    0.0024526    1.7250556  
C   13.8422349    0.0028815    0.9236479  
O   15.0818991    0.0024232    1.4948278  
C   13.7250573    0.0041039   -0.4867010  
O   14.9373862    0.0048171   -1.1451852  
C   12.4982074    0.0045100   -1.1170716  
H    9.4659005    0.0042929   -1.5766953  
H    9.9891751   -0.0070231    2.5979574  
H   12.8290223    0.0019518    2.8005450  
H   15.7176688    0.0031399    0.7674607  
H   14.7690049    0.0056009   -2.0924186  
H   12.4398442    0.0056336   -2.1992316  
C    5.7595788    0.0007158   -2.0216249  
C    4.7795901    0.0008674   -1.0815733  
C    5.4318897    0.0011976    0.2065808  
C    6.8826349    0.0012555   -0.0619868  
N    7.0143612    0.0005547   -1.4314894  
C    7.8422293    0.0019357    0.8976397  
C    7.4178692    0.0024332    2.2877670  
O    8.2055926    0.0029962    3.2246724  
C    5.8864740    0.0021297    2.5953922  
O    5.5172092    0.0022369    3.7619702  
C    4.9477888    0.0016667    1.4761413  
H    3.8891765    0.0016643    1.6976442  
H    5.6706927    0.0004913   -3.0958636  
H    7.8875232    0.0019716   -1.9260937  
C    3.3321168    0.0004716   -1.3379341  
C    2.6974177    0.0000118   -2.5332316  
C    1.2800432   -0.0002116   -2.2052842  
C    1.2395033    0.0000644   -0.7271298  
N    2.4394059    0.0005460   -0.2131041  
C    0.0000000    0.0000000    0.0000000  
C   -1.1468704    0.0000635   -0.7169542  
O   -2.3742206    0.0000074   -0.1695488  
C   -1.1388774    0.0001608   -2.2096352  
O   -2.2206238    0.0000906   -2.7970409  
C    0.1454514    0.0001818   -2.9324241  
H    3.1367978   -0.0000649   -3.5160956  
H   -2.9844350    0.0001027   -0.9290164  
H    0.1083567    0.0003684   -4.0135594  
C    0.8676693    0.7151171    2.2619005  
C    0.5875920    0.4624972    3.5848544  
C   -0.5048400   -0.4542819    3.6114698  
C   -0.8517165   -0.7276451    2.2635546  
N    0.0000000    0.0000000    1.4700000  
C   -1.8902865   -1.5946756    1.9108239  
C   -2.5912627   -2.1969500    2.9375057  
O   -3.6148162   -3.0527051    2.6493466  
C   -2.2603868   -1.9365747    4.2886322  
O   -3.0513550   -2.6123276    5.1947621  
C   -1.2361111   -1.0811317    4.6373480  
H    1.1060808    0.8876438    4.4271209  
H   -2.1597133   -1.8070987    0.8854031  
H   -3.9636755   -3.3565188    3.4974381  
H   -2.7621927   -2.3810384    6.0827341  
H   -1.0058879   -0.9010589    5.6809233  
H    1.6167816    1.3499334    1.8205408  
