64

C   -4.7577222    0.0041170   -1.7610414  
C   -5.7908160    0.0076219   -0.8526514  
C   -7.0043615    0.0076314   -1.6022564  
C   -6.6458624    0.0037378   -2.9746225  
N   -5.2744018    0.0036320   -3.0355572  
C   -7.5924774    0.0023568   -4.0035576  
C   -8.9252742    0.0046468   -3.6404820  
O   -9.8910793    0.0030865   -4.6049668  
C   -9.3028352    0.0089140   -2.2765734  
O  -10.6680482    0.0111879   -2.0777523  
C   -8.3695153    0.0105516   -1.2609766  
H   -5.6830130    0.0109976    0.2184975  
H   -4.7309822   -0.0093112   -3.8796596  
H  -10.7390859    0.0054501   -4.1422085  
H  -10.8374787    0.0140068   -1.1307100  
H   -8.6888204    0.0140149   -0.2253556  
C   -3.3041279    0.0030977   -1.5420399  
C   -2.5845362    0.0029931   -0.3695828  
C   -1.2040010    0.0011725   -0.7283576  
C   -1.1422400    0.0005079   -2.1454361  
N   -2.4348682   -0.0002414   -2.6077441  
C    0.0655140   -0.0009435   -2.8497920  
C    1.2321734   -0.0014315   -2.1101413  
O    2.4392770   -0.0024884   -2.7472544  
C    1.1911195   -0.0011583   -0.6955276  
O    2.4371506   -0.0021397   -0.1032884  
C    0.0000000    0.0000000    0.0000000  
H   -3.0031518    0.0029885    0.6222611  
H   -2.7054585    0.0097428   -3.5745234  
H    0.1193490   -0.0016004   -3.9297474  
H    3.1132953   -0.0029647   -2.0551816  
H    2.3200275   -0.0018506    0.8516388  
C   -4.4181697   -2.1275284   -6.2275718  
C   -4.7145684   -1.6308534   -7.4757422  
C   -5.8295942   -0.7548107   -7.3212535  
C   -6.1728038   -0.7566695   -5.9449797  
N   -5.2972259   -1.6019417   -5.3097662  
C   -7.2298419   -0.0014770   -5.4281210  
C   -7.9534054    0.7698745   -6.3167432  
O   -8.9956475    1.5268996   -5.8654581  
C   -7.6265387    0.7846793   -7.6936083  
O   -8.4409639    1.6024261   -8.4494824  
C   -6.5840462    0.0397042   -8.2042437  
H   -4.1921595   -1.8713266   -8.3858271  
H   -5.2895273   -1.7963395   -4.3248135  
H   -9.3584344    1.9800591   -6.6376605  
H   -8.1529659    1.5549998   -9.3662227  
H   -6.3574331    0.0711134   -9.2635546  
H   -3.6501667   -2.8162170   -5.9196127  
C    0.0000000    0.0000000    1.4700000  
C    1.0541688    0.0001722    2.3260392  
C    0.5103138    0.0000454    3.6635956  
C   -0.9576371   -0.0002459    3.5155732  
N   -1.2018458    0.0001392    2.1615969  
C   -1.8348311   -0.0008317    4.5510609  
C   -1.2972847   -0.0009736    5.9014604  
O   -2.0050672   -0.0014265    6.9001319  
C    0.2542623   -0.0004184    6.0817573  
O    0.7184670   -0.0002256    7.2139121  
C    1.0974552   -0.0000873    4.8889129  
H    2.0940752    0.0005483    2.0517982  
H   -2.9081052   -0.0011668    4.4207061  
H    2.1707277    0.0000911    5.0223670  
H   -2.1128194   -0.0014912    1.7406791  
