62

C    4.4883233   -2.1196450   -1.5653718  
C    3.2264833   -1.6584956   -1.8612908  
C    3.3569169   -0.7714020   -2.9706385  
C    4.7331979   -0.7306581   -3.3113977  
N    5.3921658   -1.5590348   -2.4372290  
C    5.2292260    0.0454725   -4.3632368  
C    4.3192903    0.7938751   -5.0844084  
O    4.7495993    1.5692568   -6.1220171  
C    2.9421617    0.7667152   -4.7594537  
O    2.1637867    1.5664734   -5.5705401  
C    2.4521480    0.0014830   -3.7217483  
H    2.3232778   -1.9274439   -1.3408304  
H    6.3797230   -1.7398425   -2.4416111  
H    6.2770271    0.0809794   -4.6279122  
H    3.9649670    2.0016675   -6.4834556  
H    1.2484454    1.4907074   -5.2841611  
H    4.8153071   -2.8029908   -0.8004673  
C    0.0000000    0.0000000    0.0000000  
C    1.0662921   -0.0000106   -0.8334269  
C    0.4961870    0.0000059   -2.1718889  
C   -0.9663856   -0.0000854   -1.9540246  
N   -1.2632773   -0.0000087   -0.6828657  
C   -1.8985362   -0.0000522   -3.0477258  
C   -1.3925773    0.0004558   -4.3020541  
O   -2.1456384    0.0005402   -5.4151311  
C    0.0786236    0.0009315   -4.5544999  
O    0.4683762    0.0012578   -5.7221098  
C    1.0143167    0.0008435   -3.4159031  
H    2.1107198    0.0000631   -0.5721865  
H   -1.5042271    0.0009682   -6.1484419  
C   -3.3460094   -0.0004268   -2.7913647  
C   -4.0050885   -0.0007134   -1.6040609  
C   -5.4169936   -0.0010569   -1.9063183  
C   -5.5272430   -0.0009755   -3.3775884  
N   -4.2366045   -0.0001896   -3.8541818  
C   -6.6998409   -0.0016249   -4.0607559  
C   -7.9358009   -0.0022337   -3.2959440  
O   -9.0426019   -0.0027795   -3.8187166  
C   -7.8427524   -0.0020786   -1.7367302  
O   -8.8766027   -0.0022802   -1.0821965  
C   -6.5211387   -0.0016359   -1.1144849  
H   -3.5536949   -0.0005048   -0.6279168  
H   -6.7586581   -0.0016819   -5.1403161  
H   -6.4653742   -0.0017365   -0.0343857  
H   -3.9810062   -0.0015048   -4.8246018  
C    1.1188642   -0.0008217    2.2703808  
C    0.0000000    0.0000000    1.4700000  
C   -1.1323862   -0.0008904    2.3373528  
C   -0.6382662   -0.0019682    3.6669281  
N    0.7324016   -0.0038477    3.5902241  
C   -1.4770914   -0.0027325    4.7854808  
C   -2.8395474   -0.0020958    4.5576857  
O   -3.7039201   -0.0024443    5.6140350  
C   -3.3517868   -0.0013946    3.2384331  
O   -4.7300496   -0.0012389    3.1773122  
C   -2.5248543   -0.0009135    2.1344818  
H    1.3576314    0.0056174    4.3757045  
H   -1.1067570   -0.0036993    5.8013813  
H   -4.5940033   -0.0021850    5.2385129  
H   -4.9934601   -0.0007286    2.2519915  
H   -2.9462578   -0.0005617    1.1360343  
H    2.1619896   -0.0009344    2.0042067  
