62

C    1.6736378   -2.3790390   -7.7682431  
C    1.2391460   -1.0756980   -7.6976283  
C    1.6144536   -0.4448542   -8.9206492  
C    2.2803748   -1.4210223   -9.7052313  
N    2.3006622   -2.5833782   -8.9750709  
C    2.7893662   -1.1491494  -10.9787326  
C    2.6228162    0.1314064  -11.4692581  
O    3.1002343    0.4509681  -12.7073875  
C    1.9614920    1.1192258  -10.7013524  
O    1.8755558    2.3452502  -11.3281072  
C    1.4593456    0.8517970   -9.4448266  
H    2.6988287   -3.4532280   -9.2797129  
H    3.2980141   -1.8886962  -11.5816836  
H    2.8816130    1.3806689  -12.8527344  
H    1.4155948    2.9545594  -10.7426310  
H    0.9576191    1.6288424   -8.8800708  
H    1.5871429   -3.1786669   -7.0526506  
C    0.8071496   -0.7052398   -5.2248761  
C   -0.0307352   -0.0004646   -4.4215603  
C   -0.9176981    0.7416309   -5.2860987  
C   -0.5250712    0.4090154   -6.6688499  
N    0.5261924   -0.4721443   -6.5625864  
C   -1.1240788    0.9084416   -7.7794661  
C   -2.2290977    1.8356037   -7.6010302  
O   -2.8333890    2.3399950   -8.5384317  
C   -2.6616049    2.2021691   -6.1455673  
O   -3.5904454    2.9819428   -5.9828759  
C   -1.9395302    1.5991864   -5.0280379  
H   -0.8206845    0.6514074   -8.7848490  
H   -2.2453232    1.8580264   -4.0234399  
H    1.6063820   -1.3751333   -4.9521863  
C    3.2573670   -0.0002920   -1.5109380  
C    2.5379468   -0.0001709   -0.3591961  
C    1.1435043    0.0000332   -0.7338500  
C    1.1092609   -0.0000082   -2.2088477  
N    2.4227562    0.0001909   -2.6182613  
C   -0.0265532   -0.0002522   -2.9515663  
C   -1.3003035   -0.0002639   -2.2514981  
O   -2.3786784   -0.0004131   -2.8306429  
C   -1.2877725    0.0000312   -0.6895608  
O   -2.3539958    0.0003307   -0.0892036  
C    0.0000000    0.0000000    0.0000000  
H    2.9384091   -0.0000369    0.6389239  
H    4.3270394   -0.0004765   -1.6439446  
H    2.7280494   -0.0013406   -3.5742113  
C    2.5311839    2.1237619    3.0120429  
C    1.9795631    1.6616747    1.8395852  
C    0.9223175    0.7739173    2.1983588  
C    0.8753926    0.7337535    3.6154372  
N    1.8668922    1.5631002    4.0777464  
C   -0.0496243   -0.0427881    4.3197917  
C   -0.9437528   -0.7922060    3.5801400  
O   -1.8685244   -1.5680278    4.2172520  
C   -0.9124520   -0.7656372    2.1655264  
O   -1.8671164   -1.5663939    1.5732860  
C    0.0000000    0.0000000    1.4700000  
H    2.3005065    1.9304404    0.8477417  
H    2.0679347    1.7444845    5.0445261  
H   -0.0904770   -0.0778569    5.3997470  
H   -2.3849669   -2.0011402    3.5251786  
H   -1.7775064   -1.4909735    0.6183591  
H    3.3468514    2.8078103    3.1724291  
