62

C   -0.2957820   -0.0648082   -8.7174013  
C    0.4396996   -0.7216298   -9.6766303  
C   -0.0878359   -0.3337250  -10.9438457  
C   -1.1525989    0.5691243  -10.6927097  
N   -1.2532217    0.7088075   -9.3307334  
C   -1.9040998    1.1555116  -11.7155428  
C   -1.5745315    0.8246822  -13.0155869  
O   -2.2757038    1.3687743  -14.0525694  
C   -0.5157484   -0.0744719  -13.2863576  
O   -0.3109446   -0.3031246  -14.6313919  
C    0.2258752   -0.6535441  -12.2777965  
H    1.2553030   -1.3980794   -9.4863672  
H   -1.9140736    1.2959604   -8.8548059  
H   -2.7169260    1.8442541  -11.5307452  
H   -1.8887487    1.0100778  -14.8618089  
H    0.4206767   -0.9205330  -14.7269998  
H    1.0309530   -1.3388445  -12.5158957  
C    2.3338136   -2.1434182   -5.7798768  
C    1.7883286   -1.7365455   -6.9496968  
C    0.7199253   -0.8256236   -6.5685995  
C    0.7626763   -0.7985190   -5.0907561  
N    1.7067550   -1.5690024   -4.6227165  
C   -0.1496415   -0.0015615   -4.3176961  
C   -1.0628927    0.7351418   -4.9904334  
O   -1.9748537    1.5241930   -4.3973341  
C   -1.1310328    0.7292322   -6.4815680  
O   -1.9880865    1.4240535   -7.0273731  
C   -0.1842257   -0.0965644   -7.2519840  
H    2.0755613   -2.0195393   -7.9479394  
H   -2.4795474    1.9160030   -5.1328085  
H    3.1559294   -2.8255339   -5.6321686  
C    3.3003543    0.0005276   -1.4738987  
C    2.5232814    0.0003497   -2.6090747  
C    1.1623200   -0.0001320   -2.1820103  
C    1.1711883    0.0000582   -0.7636140  
N    2.4852300   -0.0014919   -0.3662360  
C    0.0000000    0.0000000    0.0000000  
C   -1.2020384    0.0000519   -0.6806477  
O   -2.3759249    0.0003493    0.0157743  
C   -1.2314656   -0.0005115   -2.0955510  
O   -2.5054392   -0.0008039   -2.6250180  
C   -0.0764516   -0.0007274   -2.8495195  
H    2.8919955   -0.0005620   -3.6205304  
H    2.8036267    0.0088183    0.5858662  
H   -3.0835638    0.0000347   -0.6418818  
H   -2.4360047   -0.0011529   -3.5845921  
H    4.3715549    0.0004895   -1.3667136  
C    0.8175213    0.6860729    2.3021913  
C    0.0000000    0.0000000    1.4700000  
C   -0.8887526   -0.7456559    2.3478473  
C   -0.4549825   -0.3816753    3.7138435  
N    0.5448156    0.4573574    3.6934124  
C   -1.0945674   -0.9182058    4.8835240  
C   -2.1210866   -1.7789155    4.6970523  
O   -2.8083856   -2.3554314    5.6976972  
C   -2.5824069   -2.1655116    3.3310774  
O   -3.5227682   -2.9541547    3.2362962  
C   -1.9100805   -1.6015804    2.1470656  
H   -0.7567140   -0.6349833    5.8697035  
H   -3.4728268   -2.9124471    5.2533954  
H   -2.2742832   -1.9066565    1.1752040  
H    1.6189533    1.3585343    2.0405121  
