60

C    6.3070797   -0.7109745   -3.4260517  
C    5.9945976    0.0077625   -4.5566444  
C    7.1648327    0.7360576   -4.9237073  
C    8.1679300    0.4189317   -3.9723125  
N    7.6132686   -0.4606084   -3.0759994  
C    9.4567789    0.9583759   -4.0238667  
C    9.7382231    1.8336712   -5.0548011  
O   10.9811125    2.3892342   -5.1527240  
C    8.7505907    2.1627288   -6.0135082  
O    9.1852533    3.0485081   -6.9777737  
C    7.4788202    1.6311419   -5.9631114  
H    8.0906665   -0.8699370   -2.2933614  
H   10.2257397    0.7208120   -3.3017411  
H   10.9639595    2.9612387   -5.9310431  
H    8.4585342    3.2176717   -7.5851179  
H    6.7432598    1.9019969   -6.7114878  
H    5.7011425   -1.3812886   -2.8408360  
C    1.7334697    0.0049246   -3.2500361  
C    3.0863258    0.0047395   -3.2131614  
C    3.4995613    0.0065854   -4.6080567  
C    2.2333973    0.0076339   -5.3718701  
N    1.1947442    0.0067482   -4.5811810  
C    2.2116358    0.0095928   -6.8087451  
C    3.4007181    0.0108539   -7.4532716  
O    3.5293452    0.0127176   -8.7909908  
C    4.6955643    0.0102154   -6.7106176  
O    5.7398288    0.0113176   -7.3623315  
C    4.6914550    0.0081545   -5.2368793  
H    3.7249597    0.0035934   -2.3464312  
H    1.2717200    0.0101175   -7.3411622  
H    4.4909169    0.0132660   -8.9476192  
C    1.1319247    0.0015655   -0.8009267  
C    0.7969916    0.0034943   -2.1169401  
C   -0.6453337    0.0035710   -2.1842668  
C   -1.1266832    0.0015433   -0.7896026  
N    0.0000000    0.0000000    0.0000000  
C   -2.4346130    0.0013964   -0.4276294  
C   -3.4350109    0.0031408   -1.4820183  
O   -4.6384610    0.0030973   -1.2583915  
C   -2.9478956    0.0050505   -2.9661075  
O   -3.7809378    0.0062218   -3.8623775  
C   -1.5113821    0.0053090   -3.2312122  
H   -2.7664565    0.0000232    0.6013446  
H   -1.1823527    0.0068407   -4.2614846  
H    2.1104317    0.0009391   -0.3488056  
C    2.3971438    2.0127888    3.1728260  
C    1.9431056    1.6308205    1.9564670  
C    0.8496017    0.7127664    2.2356185  
C    0.7794028    0.6545384    3.7115134  
N    1.6840587    1.4146091    4.2663826  
C   -0.1885723   -0.1578550    4.3957118  
C   -1.0476298   -0.8789867    3.6398520  
O   -2.0015663   -1.6796266    4.1448486  
C   -1.0022026   -0.8410666    2.1483229  
O   -1.8147390   -1.5232959    1.5241687  
C    0.0000000    0.0000000    1.4700000  
H    2.3054237    1.9346118    0.9892483  
H   -0.2170646   -0.1815267    5.4753125  
H   -2.4487139   -2.0549881    3.3649027  
H    3.2048689    2.6911772    3.3971983  
