60

C    8.5696048   -3.0303675   -4.0418869  
C    7.3765912   -2.3474851   -3.9884339  
C    7.6662293   -0.9803533   -4.2741983  
C    9.0642194   -0.8886108   -4.4958557  
N    9.5824538   -2.1508955   -4.3452262  
C    9.7035898    0.3158871   -4.8043668  
C    8.9173306    1.4483492   -4.8909876  
O    9.4902040    2.6506755   -5.1897209  
C    7.5208543    1.3771129   -4.6728261  
O    6.8766314    2.5910026   -4.7944511  
C    6.8894657    0.1892330   -4.3681673  
H    6.4159258   -2.7811492   -3.7692314  
H   10.5495010   -2.3979769   -4.4536306  
H   10.7687002    0.3924917   -4.9742917  
H    8.7742697    3.2992106   -5.1999971  
H    5.9381602    2.4548810   -4.6321355  
H    8.7783812   -4.0749444   -3.8862256  
C    4.5414472   -2.0136866   -1.4319366  
C    3.2784306   -1.6314299   -1.7323495  
C    3.4206903   -0.7132108   -2.8517850  
C    4.8766551   -0.6552127   -3.1035522  
N    5.5387696   -1.4155491   -2.2744067  
C    5.4363359    0.1572548   -4.1484160  
C    4.5803865    0.8786769   -4.9075173  
O    4.9639647    1.6794178   -5.9163398  
C    3.1058537    0.8409940   -4.6783999  
O    2.3863360    1.5234829   -5.4075938  
C    2.5562217   -0.0001543   -3.6003001  
H    2.3632541   -1.9351317   -1.2535045  
H    4.1348748    2.0549943   -6.2637662  
H    4.8636452   -2.6922678   -0.6581863  
C    0.0000000    0.0000000    0.0000000  
C    1.0541688   -0.0001719   -0.8560391  
C    0.5103141   -0.0000449   -2.1935955  
C   -0.9576367    0.0002461   -2.0455733  
N   -1.2018459   -0.0001392   -0.6915970  
C   -1.8348306    0.0008319   -3.0810611  
C   -1.2972842    0.0009739   -4.4314605  
O   -2.0050664    0.0014267   -5.4301321  
C    0.2542628    0.0004190   -4.6117571  
O    0.7184677    0.0002263   -5.7439119  
C    1.0974556    0.0000880   -3.4189127  
H    2.0940752   -0.0005479   -0.5817978  
H   -2.9081050    0.0011669   -2.9507065  
H   -2.1128195    0.0014911   -0.2706793  
C    0.0000000    0.0000000    1.4700000  
C    1.0541688    0.0001722    2.3260392  
C    0.5103138    0.0000454    3.6635956  
C   -0.9576371   -0.0002459    3.5155732  
N   -1.2018458    0.0001392    2.1615969  
C   -1.8348311   -0.0008317    4.5510609  
C   -1.2972847   -0.0009736    5.9014604  
O   -2.0050672   -0.0014265    6.9001319  
C    0.2542623   -0.0004184    6.0817573  
O    0.7184670   -0.0002256    7.2139121  
C    1.0974552   -0.0000873    4.8889129  
H    2.0940752    0.0005483    2.0517982  
H   -2.9081052   -0.0011668    4.4207061  
H    2.1707277    0.0000911    5.0223670  
H   -2.1128194   -0.0014912    1.7406791  
