60

C    9.1209645   -4.4273241   -6.2836369  
C    8.0343223   -3.6033218   -6.1028128  
C    7.6837802   -3.6735087   -4.7219456  
C    8.5998342   -4.5633253   -4.1046968  
N    9.4576129   -5.0044188   -5.0815640  
C    8.5530373   -4.8716231   -2.7417763  
C    7.5636496   -4.2704735   -1.9881788  
O    7.4726347   -4.5360079   -0.6524314  
C    6.6401740   -3.3801435   -2.5859429  
O    5.7147425   -2.8635250   -1.7027525  
C    6.6855787   -3.0757493   -3.9304906  
H    7.5527858   -3.0238842   -6.8718164  
H   10.2221979   -5.6393122   -4.9390905  
H    9.2481872   -5.5490926   -2.2653266  
H    6.7247758   -4.0213822   -0.3220799  
H    5.1295086   -2.2726751   -2.1864894  
H    9.6816234   -4.6501578   -7.1752443  
C    5.7075973   -2.1458899   -4.5134268  
C    5.6080283   -1.7400303   -5.8006495  
C    4.4743455   -0.8284970   -5.8198985  
C    3.9952578   -0.7999672   -4.4212404  
N    4.7143359   -1.5702090   -3.6507578  
C    2.8699641   -0.0020530   -4.0185824  
C    2.2516352    0.7342030   -4.9698613  
O    1.1898869    1.5240362   -4.7355641  
C    2.7116326    0.7268608   -6.3898997  
O    2.1013090    1.4213451   -7.2025603  
C    3.8682730   -0.0998975   -6.7779434  
H    6.2274578   -2.0240585   -6.6341436  
H    0.9759266    1.9152457   -5.6017794  
H    4.1702380   -0.0775571   -7.8164743  
C    3.2573670   -0.0002921   -1.5109382  
C    2.5379468   -0.0001711   -0.3591962  
C    1.1435043    0.0000330   -0.7338498  
C    1.1092608   -0.0000085   -2.2088474  
N    2.4227562    0.0001906   -2.6182610  
C   -0.0265533   -0.0002525   -2.9515663  
C   -1.3003033   -0.0002641   -2.2514979  
O   -2.3786785   -0.0004132   -2.8306425  
C   -1.2877724    0.0000310   -0.6895608  
O   -2.3539956    0.0003306   -0.0892035  
C    0.0000000    0.0000000    0.0000000  
H    2.9384091   -0.0000370    0.6389240  
H   -0.0296290   -0.0004088   -4.0327231  
H    4.3270394   -0.0004767   -1.6439445  
C    0.8400945    0.7047457    2.2710304  
C    0.0000000    0.0000000    1.4700000  
C   -0.8844236   -0.7423113    2.3369512  
C   -0.4878984   -0.4098547    3.7186280  
N    0.5629682    0.4714286    3.6095011  
C   -1.0836927   -0.9095027    4.8308716  
C   -2.1891196   -1.8367527    4.6554461  
O   -2.7906899   -2.3413415    5.5944904  
C   -2.6257283   -2.2031529    3.2011665  
O   -3.5549479   -2.9829990    3.0410059  
C   -1.9068976   -1.5999348    2.0816745  
H   -0.7774656   -0.6525820    5.8354244  
H   -2.2155208   -1.8586617    1.0779135  
H    1.6384792    1.3747609    1.9961646  
H    1.0518368    0.8833920    4.3830260  
