60

C    5.6234052   -2.9840347   -8.4548744  
C    4.8621866   -1.9990546   -7.8693598  
C    5.1196184   -0.7927588   -8.5857252  
C    6.0536964   -1.1059528   -9.6061827  
N    6.3398852   -2.4441791   -9.4972578  
C    6.5358090   -0.1530277  -10.5085621  
C    6.0661940    1.1395485  -10.3786168  
O    6.5037432    2.1094063  -11.2335676  
C    5.1343322    1.4716777   -9.3666197  
O    4.7632562    2.8004535   -9.3670953  
C    4.6584901    0.5321634   -8.4758813  
H    4.2033413   -2.1332231   -7.0285777  
H    6.9647746   -2.9545295  -10.0947819  
H    7.2478806   -0.3853090  -11.2884347  
H    6.0583241    2.9256166  -10.9715246  
H    4.1328386    2.9404421   -8.6539473  
H    5.7130414   -4.0286455   -8.2105111  
C    4.3834955   -0.6859722   -4.3011933  
C    3.2973506   -0.0000934   -3.8752374  
C    2.8440573    0.7452243   -5.0395080  
C    3.7976377    0.3812809   -6.1094678  
N    4.7022577   -0.4574405   -5.6826203  
C    3.6909720    0.9175298   -7.4384316  
C    2.6775117    1.7779344   -7.6873016  
O    2.4582900    2.3541659   -8.8814286  
C    1.6987829    2.1644848   -6.6286089  
O    0.8014172    2.9528433   -6.9260092  
C    1.8294973    1.6008465   -5.2731940  
H    1.6702335    2.9110075   -8.7470890  
H    1.1002949    1.9058792   -4.5346484  
H    5.0085212   -1.3581665   -3.7350919  
C    3.3321174    0.0004714   -1.3379332  
C    2.6974186    0.0000115   -2.5332308  
C    1.2800441   -0.0002119   -2.2052838  
C    1.2395035    0.0000643   -0.7271293  
N    2.4394063    0.0005458   -0.2131034  
C    0.0000000    0.0000000    0.0000000  
C   -1.1468701    0.0000634   -0.7169542  
O   -2.3742201    0.0000072   -0.1695492  
C   -1.1388767    0.0001606   -2.2096354  
O   -2.2206229    0.0000903   -2.7970413  
C    0.1454526    0.0001815   -2.9324239  
H   -2.9844344    0.0001023   -0.9290168  
H    0.1083580    0.0003680   -4.0135594  
H    4.3940040    0.0007617   -1.1498630  
C    0.8400945    0.7047457    2.2710304  
C    0.0000000    0.0000000    1.4700000  
C   -0.8844236   -0.7423113    2.3369512  
C   -0.4878984   -0.4098547    3.7186280  
N    0.5629682    0.4714286    3.6095011  
C   -1.0836927   -0.9095027    4.8308716  
C   -2.1891196   -1.8367527    4.6554461  
O   -2.7906899   -2.3413415    5.5944904  
C   -2.6257283   -2.2031529    3.2011665  
O   -3.5549479   -2.9829990    3.0410059  
C   -1.9068976   -1.5999348    2.0816745  
H   -0.7774656   -0.6525820    5.8354244  
H   -2.2155208   -1.8586617    1.0779135  
H    1.6384792    1.3747609    1.9961646  
H    1.0518368    0.8833920    4.3830260  
