64

C   -6.4248003    2.3754637   -0.9766272  
C   -6.3858710    1.0723056   -1.4156386  
C   -7.5721692    0.4376962   -0.9417533  
C   -8.3027486    1.4114842   -0.2138000  
N   -7.5769898    2.5761086   -0.2530599  
C   -9.5295504    1.1357003    0.3975023  
C  -10.0280604   -0.1463920    0.2713898  
O  -11.2220429   -0.4697580    0.8483274  
C   -9.3136902   -1.1318827   -0.4506206  
O   -9.9415565   -2.3598605   -0.4852490  
C   -8.1032331   -0.8605949   -1.0537148  
H   -7.8507830    3.4450455    0.1688022  
H  -10.0912215    1.8734177    0.9538304  
H  -11.3818743   -1.3999283    0.6421684  
H   -9.3937288   -2.9673904   -0.9916051  
H   -7.5789484   -1.6359290   -1.6000298  
H   -5.7211579    3.1773059   -1.1211781  
C   -3.9682051    0.7216914   -2.0578202  
C   -3.2578655    0.0024282   -2.9908505  
C   -4.2079034   -0.7252724   -3.7670466  
C   -5.4928184   -0.4072580   -3.2573539  
N   -5.3110075    0.4722161   -2.2190442  
C   -6.6702480   -0.9459420   -3.7848637  
C   -6.5483634   -1.8213761   -4.8464368  
O   -7.6658889   -2.3762201   -5.3998781  
C   -5.2750885   -2.1513154   -5.3686716  
O   -5.3202345   -3.0371210   -6.4253900  
C   -4.1130837   -1.6204784   -4.8485914  
H   -7.6525700   -0.7076993   -3.4008241  
H   -7.3606742   -2.9484682   -6.1158675  
H   -4.4197938   -3.2069035   -6.7186204  
H   -3.1520152   -1.8920002   -5.2694261  
H   -3.6231570    1.3918159   -1.2891629  
C    0.0000000    0.0000000    0.0000000  
C    1.0521666   -0.0011982   -0.8862343  
C    0.4917215   -0.0011996   -2.1979132  
C   -0.9187429    0.0003215   -2.0478682  
N   -1.1833171   -0.0009323   -0.7007913  
C   -1.7951703    0.0010483   -3.1372089  
C   -1.2375841    0.0005313   -4.4010422  
O   -2.0474218    0.0015510   -5.4997578  
C    0.1673576   -0.0013585   -4.5711963  
O    0.5673520   -0.0020735   -5.8915554  
C    1.0325768   -0.0023493   -3.4969892  
H    2.0953056   -0.0030808   -0.6200564  
H   -2.0989778    0.0102529   -0.2891822  
H   -1.4634888    0.0006601   -6.2693595  
H    1.5290707   -0.0033271   -5.9180047  
H    2.1042146   -0.0039770   -3.6584456  
C    3.1301144    0.0010313    3.1728260  
C    2.5367765    0.0002768    1.9564670  
C    1.1089900   -0.0001027    2.2356185  
C    1.0177864    0.0004150    3.7115134  
N    2.1993570    0.0011613    4.2663826  
C   -0.2459220    0.0002880    4.3957118  
C   -1.3675327    0.0000606    3.6398520  
O   -2.6129319   -0.0000866    4.1448486  
C   -1.3083589   -0.0000910    2.1483229  
O   -2.3693264   -0.0004206    1.5241687  
C    0.0000000    0.0000000    1.4700000  
H    3.0096015    0.0001008    0.9892483  
H   -0.2829642    0.0004689    5.4753125  
H   -3.1967446   -0.0002093    3.3649027  
H    4.1849273    0.0015113    3.3971983  
