66

C   -4.4706939    2.1246863   -0.3281855  
C   -5.6599773    1.6264302   -0.8075739  
C   -5.3396884    0.7516505   -1.8877475  
C   -3.9276469    0.7558733   -2.0220869  
N   -3.4313253    1.6012783   -1.0610604  
C   -3.2578655    0.0024282   -2.9908505  
C   -4.0275335   -0.7695739   -3.8392613  
O   -3.4247949   -1.5249625   -4.8031636  
C   -5.4377033   -0.7867282   -3.7211783  
O   -6.0624940   -1.6048442   -4.6396918  
C   -6.0991477   -0.0434783   -2.7658795  
H   -6.6381192    1.8650666   -0.4264133  
H   -2.4588255    1.7971334   -0.9065739  
H   -4.1336024   -1.9789340   -5.2772597  
H   -7.0119838   -1.5590482   -4.4914529  
H   -7.1803458   -0.0766723   -2.6996337  
C   -5.1791738    3.6570649    1.5507265  
C   -4.5772373    4.4871343    2.4678545  
C   -3.1709451    4.4048558    2.2438627  
C   -2.9729610    3.5017475    1.1681652  
N   -4.2126224    3.0647260    0.7720983  
C   -1.7050459    3.1793165    0.6749938  
C   -0.6171954    3.7797340    1.2785310  
O    0.6435690    3.5006788    0.8362468  
C   -0.7943453    4.6832027    2.3533234  
O    0.3866021    5.1972421    2.8477631  
C   -2.0448652    5.0015459    2.8405440  
H   -5.0887411    5.0782815    3.2080586  
H   -1.5474302    2.4916755   -0.1444633  
H    1.2465503    4.0172931    1.3865083  
H    0.1781800    5.7975330    3.5701310  
H   -2.1493178    5.6969355    3.6651664  
H   -6.2214082    3.4395808    1.3913271  
C    0.0000000    0.0000000    0.0000000  
C    1.0521666   -0.0011982   -0.8862343  
C    0.4917215   -0.0011996   -2.1979132  
C   -0.9187429    0.0003215   -2.0478682  
N   -1.1833171   -0.0009323   -0.7007913  
C   -1.7951703    0.0010483   -3.1372089  
C   -1.2375841    0.0005313   -4.4010422  
O   -2.0474218    0.0015510   -5.4997578  
C    0.1673576   -0.0013585   -4.5711963  
O    0.5673520   -0.0020735   -5.8915554  
C    1.0325768   -0.0023493   -3.4969892  
H    2.0953056   -0.0030808   -0.6200564  
H   -2.0989778    0.0102529   -0.2891822  
H   -1.4634888    0.0006601   -6.2693595  
H    1.5290707   -0.0033271   -5.9180047  
H    2.1042146   -0.0039770   -3.6584456  
C    3.3041272   -0.0001177    3.0120429  
C    2.5845372    0.0004780    1.8395852  
C    1.2040006    0.0000008    2.1983588  
C    1.1422373   -0.0006037    3.6154372  
N    2.4348639   -0.0026109    4.0777464  
C   -0.0655181   -0.0008797    4.3197917  
C   -1.2321768   -0.0002324    3.5801400  
O   -2.4392816   -0.0001146    4.2172520  
C   -1.1911209    0.0000007    2.1655264  
O   -2.4371527    0.0002320    1.5732860  
C    0.0000000    0.0000000    1.4700000  
H    3.0031534    0.0000661    0.8477417  
H    2.7054629    0.0071099    5.0445261  
H   -0.1193549   -0.0014844    5.3997470  
H   -3.1132988    0.0000648    3.5251786  
H   -2.3200282    0.0004071    0.6183591  
H    4.3686625   -0.0004071    3.1724291  
