66

C    6.1714075   -0.6810750   -3.4796274  
C    7.4588687   -0.4370524   -3.0608611  
C    8.0322760    0.4802822   -3.9905384  
C    7.0390347    0.7628287   -4.9629401  
N    5.9223141    0.0398823   -4.6239709  
C    7.2566004    1.6328981   -6.0355228  
C    8.4993794    2.2288242   -6.1279890  
O    8.7653349    3.0871789   -7.1553683  
C    9.5034621    1.9592552   -5.1677978  
O   10.6871137    2.6295211   -5.3981338  
C    9.2896160    1.1008097   -4.1095598  
H    7.9274953   -0.8681398   -2.1927911  
H    6.5037870    1.8523106   -6.7800572  
H    9.6759691    3.3855949   -7.0330639  
H   11.3108806    2.3921415   -4.7051903  
H   10.0779063    0.9136531   -3.3898030  
H    5.4115713   -1.3134625   -3.0533723  
C    1.6628972    0.0337774   -3.2649299  
C    3.0380376    0.0322475   -3.3030625  
C    3.4164365    0.0450109   -4.6782902  
C    2.2194501    0.0543021   -5.4392526  
N    1.1735139    0.0451979   -4.5501234  
C    2.2121583    0.0682025   -6.8373023  
C    3.4355026    0.0731144   -7.4788484  
O    3.4861490    0.0869570   -8.8427608  
C    4.6406910    0.0636313   -6.7370611  
O    5.7759394    0.0697301   -7.5209734  
C    4.6486387    0.0496435   -5.3578344  
H    3.6884137    0.0219569   -2.4452174  
H    0.2007680    0.0592095   -4.7982174  
H    1.3033138    0.0751925   -7.4230963  
H    4.4223085    0.0878426   -9.0812343  
H    6.5448556    0.0626432   -6.9427681  
C    1.1243417    0.0099160   -0.7919004  
C    0.7474091    0.0234036   -2.1148543  
C   -0.6787366    0.0234950   -2.1414699  
C   -1.1201739    0.0099353   -0.7935547  
N    0.0000000    0.0000000    0.0000000  
C   -2.4730814    0.0065387   -0.4408241  
C   -3.3971947    0.0173286   -1.4675058  
O   -4.7313509    0.0149470   -1.1793468  
C   -2.9763629    0.0305525   -2.8186324  
O   -4.0166449    0.0397843   -3.7247623  
C   -1.6418539    0.0336374   -3.1673480  
H   -2.8160170   -0.0039200    0.5845965  
H   -5.1938800    0.0234391   -2.0274383  
H   -3.6464639    0.0484767   -4.6127342  
H   -1.3497441    0.0436783   -4.2109235  
H    2.1062470    0.0051389   -0.3505406  
C    2.5285572    2.1210227    2.9438989  
C    1.9331703    1.6216660    4.0790748  
C    0.8903039    0.7472258    3.6520102  
C    0.8972198    0.7527806    2.2336141  
N    1.9028376    1.5986179    1.8362361  
C    0.0000000    0.0000000    1.4700000  
C   -0.9207814   -0.7726952    2.1506477  
O   -1.8198395   -1.5274828    1.4542253  
C   -0.9436862   -0.7911793    3.5655508  
O   -1.9197945   -1.6098497    4.0950179  
C   -0.0590329   -0.0485852    4.3195194  
H    2.2150357    1.8593692    5.0905303  
H    2.1533708    1.7953814    0.8841339  
H   -2.3621246   -1.9821033    2.1118817  
H   -1.8668290   -1.5649508    5.0545920  
H   -0.1007624   -0.0827977    5.4019087  
H    3.3491200    2.8096064    2.8367138  
