64

C    7.6373778   -0.9086270   -4.5283523  
C    8.9225301   -0.5085267   -4.8125540  
C    8.8754078    0.8943790   -5.0659997  
C    7.5235889    1.2984686   -4.9203140  
N    6.7983741    0.1789852   -4.5956018  
C    7.1062318    2.6209802   -5.0979799  
C    8.0711542    3.5525908   -5.4284422  
O    7.7184939    4.8581662   -5.6131510  
C    9.4250170    3.1687678   -5.5786112  
O   10.2650365    4.2118651   -5.9097617  
C    9.8374227    1.8642094   -5.4037553  
H    9.7873805   -1.1492268   -4.8355704  
H    6.0774517    2.9353592   -4.9885304  
H    8.5309668    5.3318336   -5.8340389  
H   11.1596207    3.8675685   -5.9921170  
H   10.8813902    1.6001031   -5.5256559  
H    7.2526084   -1.8840233   -4.2843990  
C    4.5241710   -2.0197348   -1.5987489  
C    3.2543048   -1.6359764   -1.8666075  
C    3.3687740   -0.7183911   -2.9897432  
C    4.8178232   -0.6623650   -3.2790555  
N    5.5001626   -1.4232180   -2.4669565  
C    5.3513653    0.1489625   -4.3383793  
C    4.4770152    0.8711784   -5.0754343  
O    4.8354296    1.6710198   -6.0941751  
C    3.0088452    0.8354824   -4.8082935  
O    2.2716040    1.5186018   -5.5189579  
C    2.4861704   -0.0045255   -3.7159919  
H    2.3514149   -1.9383095   -1.3641535  
H    3.9981221    2.0475216   -6.4202358  
H    4.8653811   -2.6984182   -0.8332831  
C    0.0000000    0.0000000    0.0000000  
C    1.0521669   -0.0011848   -0.8862341  
C    0.4917221   -0.0011931   -2.1979130  
C   -0.9187427    0.0003100   -2.0478683  
N   -1.1833170   -0.0009472   -0.7007915  
C   -1.7951698    0.0010259   -3.1372090  
C   -1.2375835    0.0005161   -4.4010425  
O   -2.0474208    0.0015256   -5.4997580  
C    0.1673584   -0.0013557   -4.5711962  
O    0.5673529   -0.0020659   -5.8915551  
C    1.0325773   -0.0023359   -3.4969890  
H    2.0953059   -0.0030542   -0.6200560  
H   -2.0989777    0.0102265   -0.2891825  
H   -2.8710930    0.0020274   -3.0295514  
H   -1.4634881    0.0006427   -6.2693593  
H    1.5290715   -0.0033076   -5.9180042  
C    3.3003543   -0.0005276    2.9438989  
C    2.5232812   -0.0003497    4.0790748  
C    1.1623199    0.0001319    3.6520102  
C    1.1711883   -0.0000583    2.2336141  
N    2.4852299    0.0014920    1.8362361  
C    0.0000000    0.0000000    1.4700000  
C   -1.2020384   -0.0000520    2.1506477  
O   -2.3759250   -0.0003494    1.4542253  
C   -1.2314658    0.0005113    3.5655508  
O   -2.5054393    0.0008037    4.0950179  
C   -0.0764518    0.0007272    4.3195194  
H    2.8919952    0.0005619    5.0905303  
H    2.8036267   -0.0088181    0.8841339  
H   -3.0835639   -0.0000348    2.1118817  
H   -2.4360050    0.0011527    5.0545920  
H   -0.1304098    0.0013421    5.4019087  
H    4.3715549   -0.0004895    2.8367138  
