64

C    1.1188643    0.0008223   -0.8003800  
C    0.0000000    0.0000000    0.0000000  
C   -1.1323863    0.0008900   -0.8673525  
C   -0.6382660    0.0019680   -2.1969276  
N    0.7324020    0.0038481   -2.1202235  
C   -1.4770910    0.0027320   -3.3154805  
C   -2.8395474    0.0020946   -3.0876854  
O   -3.7039197    0.0024427   -4.1440346  
C   -3.3517868    0.0013932   -1.7684330  
O   -4.7300490    0.0012368   -1.7073125  
C   -2.5248544    0.0009124   -0.6644815  
H    1.3576317   -0.0056168   -2.9057037  
H   -4.5940029    0.0021830   -3.7685132  
H   -4.9934599    0.0007264   -0.7819921  
H   -2.9462577    0.0005604    0.3339654  
H    2.1619894    0.0009352   -0.5342064  
C    1.8906703   -2.0861101   -5.2626198  
C    0.9779264   -1.6251676   -4.3690284  
C    0.1016437   -0.7294207   -5.0863857  
C    0.5821191   -0.7061486   -6.4811585  
N    1.6688571   -1.5489157   -6.5215722  
C    0.0179716    0.0235401   -7.4766469  
C   -1.1395629    0.8406742   -7.1527017  
O   -1.7182901    1.5334123   -7.9794359  
C   -1.6653058    0.8314585   -5.6818803  
O   -2.6389757    1.5156844   -5.3971650  
C   -0.9736291    0.0040466   -4.6965759  
H    0.9247008   -1.8830608   -3.3263054  
H    2.7068313   -2.7728805   -5.1073203  
H    2.2153077   -1.7452386   -7.3400443  
C    1.5655947   -3.2182481  -10.0562883  
C    1.8234292   -2.4502019  -11.1680865  
C    1.4528194   -1.1113838  -10.8443356  
C    0.9717057   -1.1237844   -9.5100561  
N    1.0520826   -2.4189119   -9.0619472  
C    0.5182900    0.0273768   -8.8588793  
C    0.5514391    1.2127020   -9.5674573  
O    0.1207760    2.3667576   -8.9794953  
C    1.0276226    1.2452711  -10.8997502  
O    0.9971156    2.5009697  -11.4703943  
C    1.4748298    0.1099620  -11.5428724  
H    2.2277431   -2.8107613  -12.0984201  
H    0.7901702   -2.7330921   -8.1450639  
H    0.2274282    3.0651680   -9.6383683  
H    1.3348559    2.4350475  -12.3688322  
H    1.8337418    0.1658072  -12.5639224  
H    1.7060255   -4.2732501   -9.8943955  
C    0.8576279    0.7185626    2.2703808  
C    0.0000000    0.0000000    1.4700000  
C   -0.8668858   -0.7285659    2.3373528  
C   -0.4876752   -0.4117774    3.6669281  
N    0.5635254    0.4678311    3.5902241  
C   -1.1297612   -0.9515493    4.7854808  
C   -2.1738724   -1.8268314    4.5576857  
O   -2.8357962   -2.3827064    5.6140350  
C   -2.5667212   -2.1555554    3.2384331  
O   -3.6226318   -3.0413663    3.1773122  
C   -1.9335634   -1.6236449    2.1344818  
H    1.0363952    0.8769718    4.3757045  
H   -0.8454472   -0.7142436    5.8013813  
H   -3.5178062   -2.9546422    5.2385129  
H   -3.8247440   -3.2102924    2.2519915  
H   -2.2566033   -1.8942483    1.1360343  
H    1.6567807    1.3889844    2.0042067  
