62

C   10.3566994    2.1259423   -5.9096997  
C   11.5620431    1.6287740   -5.4710232  
C   11.2794862    0.7540165   -4.3803536  
C    9.8728428    0.7571310   -4.1979484  
N    9.3433515    1.6018839   -5.1416906  
C    9.2370983    0.0033964   -3.2067356  
C   10.0358782   -0.7677613   -2.3848810  
O    9.4669720   -1.5233864   -1.4008126  
C   11.4412155   -0.7838046   -2.5509725  
O   12.0976291   -1.6011749   -1.6541057  
C   12.0690952   -0.0402682   -3.5284415  
H   12.5264259    1.8681028   -5.8853686  
H    8.3659901    1.7969110   -5.2629744  
H   10.1919036   -1.9766602   -0.9510542  
H   13.0414744   -1.5546483   -1.8346434  
H   13.1474325   -0.0726040   -3.6315056  
H   10.1397738    2.8140134   -6.7087359  
C    6.8354437    0.0008785   -4.0255229  
C    5.5758880    0.0005992   -3.5179857  
C    5.7016160    0.0007905   -2.0795742  
C    7.1480383    0.0012364   -1.7886230  
N    7.7802454    0.0008702   -3.0105899  
C    7.6812948    0.0019204   -0.5406879  
C    6.7698185    0.0020123    0.5914546  
O    7.1520246    0.0025454    1.7543039  
C    5.2340026    0.0012939    0.3067213  
O    4.4569011    0.0010578    1.2519060  
C    4.7795901    0.0008674   -1.0815733  
H    4.6629019    0.0001118   -4.0863788  
H    8.7453471    0.0023685   -0.3491106  
H    7.1529577    0.0008730   -5.0556078  
C    3.3321168    0.0004716   -1.3379341  
C    2.6974177    0.0000118   -2.5332316  
C    1.2800432   -0.0002116   -2.2052842  
C    1.2395033    0.0000644   -0.7271298  
N    2.4394059    0.0005460   -0.2131041  
C    0.0000000    0.0000000    0.0000000  
C   -1.1468704    0.0000635   -0.7169542  
O   -2.3742206    0.0000074   -0.1695488  
C   -1.1388774    0.0001608   -2.2096352  
O   -2.2206238    0.0000906   -2.7970409  
C    0.1454514    0.0001818   -2.9324241  
H    3.1367978   -0.0000649   -3.5160956  
H   -2.9844350    0.0001027   -0.9290164  
H    0.1083567    0.0003684   -4.0135594  
C    0.8676693    0.7151171    2.2619005  
C    0.5875920    0.4624972    3.5848544  
C   -0.5048400   -0.4542819    3.6114698  
C   -0.8517165   -0.7276451    2.2635546  
N    0.0000000    0.0000000    1.4700000  
C   -1.8902865   -1.5946756    1.9108239  
C   -2.5912627   -2.1969500    2.9375057  
O   -3.6148162   -3.0527051    2.6493466  
C   -2.2603868   -1.9365747    4.2886322  
O   -3.0513550   -2.6123276    5.1947621  
C   -1.2361111   -1.0811317    4.6373480  
H    1.1060808    0.8876438    4.4271209  
H   -2.1597133   -1.8070987    0.8854031  
H   -3.9636755   -3.3565188    3.4974381  
H   -2.7621927   -2.3810384    6.0827341  
H   -1.0058879   -0.9010589    5.6809233  
H    1.6167816    1.3499334    1.8205408  
