62

C    7.5741797   -0.3799809   -4.8129254  
C    6.9902307    0.8360833   -5.0824788  
C    8.0459464    1.7881394   -5.1993237  
C    9.2621021    1.0888572   -4.9898043  
N    8.9394789   -0.2248597   -4.7559675  
C   10.5115008    1.7149324   -5.0324709  
C   10.5336200    3.0715857   -5.2916633  
O   11.7265826    3.7326595   -5.3449141  
C    9.3308460    3.7867605   -5.5030244  
O    9.5194229    5.1310797   -5.7491719  
C    8.0979094    3.1698229   -5.4608110  
H    9.5984454   -0.9625306   -4.5839607  
H   11.4420318    1.1876337   -4.8734987  
H   11.5184527    4.6566919   -5.5349400  
H    8.6585083    5.5398918   -5.8807171  
H    7.1936872    3.7437687   -5.6264815  
H    7.1247205   -1.3454456   -4.6553715  
C    3.4490067   -0.7155100   -2.8370507  
C    4.7273360   -0.4630731   -3.2782042  
C    4.6191140    0.4538380   -4.3654770  
C    3.2387464    0.7274664   -4.5433513  
N    2.5562217   -0.0001543   -3.6003001  
C    2.7607144    1.5946843   -5.5303701  
C    3.6931623    2.1968774   -6.3526125  
O    3.2810596    3.0528073   -7.3326983  
C    5.0747446    1.9362386   -6.1910118  
O    5.8764709    2.6119402   -7.0876748  
C    5.5470307    1.0806102   -5.2176811  
H    5.6270676   -0.8884229   -2.8676513  
H    1.7099225    1.8073103   -5.6711867  
H    4.0796771    3.3565257   -7.7835091  
H    6.7932960    2.3804695   -6.9103158  
H    3.1033416   -1.3503469   -2.0392681  
C    0.0000000    0.0000000    0.0000000  
C    1.0541688   -0.0001719   -0.8560391  
C    0.5103141   -0.0000449   -2.1935955  
C   -0.9576367    0.0002461   -2.0455733  
N   -1.2018459   -0.0001392   -0.6915970  
C   -1.8348306    0.0008319   -3.0810611  
C   -1.2972842    0.0009739   -4.4314605  
O   -2.0050664    0.0014267   -5.4301321  
C    0.2542628    0.0004190   -4.6117571  
O    0.7184677    0.0002263   -5.7439119  
C    1.0974556    0.0000880   -3.4189127  
H    2.0940752   -0.0005479   -0.5817978  
H   -2.9081050    0.0011669   -2.9507065  
H   -2.1128195    0.0014911   -0.2706793  
C    3.1301144    0.0010313    3.1728260  
C    2.5367765    0.0002768    1.9564670  
C    1.1089900   -0.0001027    2.2356185  
C    1.0177864    0.0004150    3.7115134  
N    2.1993570    0.0011613    4.2663826  
C   -0.2459220    0.0002880    4.3957118  
C   -1.3675327    0.0000606    3.6398520  
O   -2.6129319   -0.0000866    4.1448486  
C   -1.3083589   -0.0000910    2.1483229  
O   -2.3693264   -0.0004206    1.5241687  
C    0.0000000    0.0000000    1.4700000  
H    3.0096015    0.0001008    0.9892483  
H   -0.2829642    0.0004689    5.4753125  
H   -3.1967446   -0.0002093    3.3649027  
H    4.1849273    0.0015113    3.3971983  
