64

C    4.7795897    0.0008677   -1.0815734  
C    5.8357356    0.0020744   -1.9630617  
C    7.0295758    0.0025515   -1.1824547  
C    6.6358516    0.0012983    0.1802287  
N    5.2632778    0.0022472    0.2058247  
C    7.5556546    0.0010564    1.2332010  
C    8.8973609    0.0017917    0.9045653  
O    9.8380083    0.0012449    1.8936042  
C    9.3099223    0.0034199   -0.4491726  
O   10.6798043    0.0044032   -0.6127735  
C    8.4030671    0.0039327   -1.4884696  
H    5.7555553    0.0036574   -3.0366361  
H    4.6982919   -0.0088487    1.0356736  
H    7.2620119    0.0002476    2.2738623  
H   10.6976510    0.0022152    1.4528342  
H   10.8735684    0.0054539   -1.5551421  
H    8.7489362    0.0053697   -2.5155286  
C    3.3321166    0.0004717   -1.3379342  
C    2.6974176    0.0000121   -2.5332317  
C    1.2800432   -0.0002115   -2.2052842  
C    1.2395033    0.0000645   -0.7271297  
N    2.4394059    0.0005461   -0.2131042  
C    0.0000000    0.0000000    0.0000000  
C   -1.1468704    0.0000636   -0.7169540  
O   -2.3742206    0.0000073   -0.1695488  
C   -1.1388774    0.0001610   -2.2096351  
O   -2.2206238    0.0000908   -2.7970408  
C    0.1454514    0.0001820   -2.9324241  
H    3.1367977   -0.0000646   -3.5160953  
H   -2.9844351    0.0001027   -0.9290163  
C    2.5712576   -2.1206942   -5.9616532  
C    1.9373690   -1.6210564   -7.0756613  
C    0.9098903   -0.7465409   -6.6129409  
C    0.9654392   -0.7523415   -5.1956171  
N    1.9839661   -1.5983910   -4.8330980  
C    0.0950440    0.0004357   -4.4015596  
C   -0.8484208    0.7733799   -5.0501034  
O   -1.7229570    1.5281759   -4.3231345  
C   -0.9198274    0.7921115   -6.4633854  
O   -1.9133957    1.6110128   -6.9589329  
C   -0.0616591    0.0495210   -7.2473710  
H    2.1843497   -1.8586253   -8.0962272  
H    2.2669711   -1.7953546   -3.8901795  
H   -2.2874071    1.9829875   -4.9617329  
H   -1.8933725    1.5662720   -7.9197661  
H   -0.1404748    0.0839263   -8.3276867  
H    3.3949106   -2.8094136   -5.8827840  
C    0.0000000    0.0000000    1.4700000  
C    1.0521667    0.0011902    2.3562342  
C    0.4917218    0.0011957    3.6679131  
C   -0.9187428   -0.0003148    3.5178682  
N   -1.1833171    0.0009411    2.1707914  
C   -1.7951701   -0.0010350    4.6072090  
C   -1.2375837   -0.0005224    5.8710424  
O   -2.0474215   -0.0015360    6.9697579  
C    0.1673580    0.0013566    6.0411963  
O    0.5673524    0.0020687    7.3615553  
C    1.0325770    0.0023412    4.9669890  
H    2.0953057    0.0030649    2.0900562  
H   -2.0989778   -0.0102372    1.7591824  
H   -2.8710934   -0.0020419    4.4995513  
H   -1.4634884   -0.0006497    7.7393593  
H    1.5290710    0.0033153    7.3880045  
H    2.1042148    0.0039609    5.1284455  
