60

C    2.0948547   -2.1211268   -8.3540524  
C    3.0936178   -2.9717343   -8.7680643  
C    3.0625520   -2.9875275  -10.1940331  
C    2.0153607   -2.1198847  -10.5971604  
N    1.4472371   -1.6119784   -9.4552835  
C    1.6969009   -1.8914491  -11.9392444  
C    2.4494782   -2.5506723  -12.8917311  
O    2.1813352   -2.3635207  -14.2169050  
C    3.4981454   -3.4206388  -12.5092769  
O    4.1540819   -4.0024467  -13.5744490  
C    3.8126952   -3.6466788  -11.1854606  
H    3.7616020   -3.5149650   -8.1217739  
H    0.6856476   -0.9583934   -9.4271915  
H    0.8999052   -1.2314949  -12.2530292  
H    2.8135529   -2.9087007  -14.7030580  
H    4.8466447   -4.5742918  -13.2295517  
H    4.6213614   -4.3187161  -10.9229674  
C    2.2088378   -2.1426210   -5.8191627  
C    1.6816912   -1.7351244   -6.9971456  
C    0.6077901   -0.8240083   -6.6323116  
C    0.6276207   -0.7974856   -5.1539720  
N    1.5640845   -1.5684501   -4.6716456  
C   -0.2963293   -0.0005341   -4.3948471  
C   -1.1988047    0.7367188   -5.0813820  
O   -2.1196089    1.5258328   -4.5021937  
C   -1.2438084    0.7314044   -6.5733969  
O   -2.0920749    1.4267084   -7.1321599  
C   -0.2854233   -0.0943982   -7.3293548  
H   -2.6127106    1.9180864   -5.2452551  
H   -0.3507725   -0.0705881   -8.4088885  
H    3.0283492   -2.8250552   -5.6589860  
C    3.1301146   -0.0010313   -1.7028256  
C    2.5367765   -0.0002766   -0.4864669  
C    1.1089901    0.0001027   -0.7656184  
C    1.0177865   -0.0004150   -2.2415133  
N    2.1993571   -0.0011612   -2.7963824  
C   -0.2459219   -0.0002879   -2.9257116  
C   -1.3675326   -0.0000606   -2.1698520  
O   -2.6129318    0.0000865   -2.6748483  
C   -1.3083588    0.0000910   -0.6783229  
O   -2.3693264    0.0004206   -0.0541685  
C    0.0000000    0.0000000    0.0000000  
H    3.0096016   -0.0001007    0.4807518  
H   -3.1967444    0.0002093   -1.8949026  
H    4.1849275   -0.0015114   -1.9271979  
C    0.8400945    0.7047457    2.2710304  
C    0.0000000    0.0000000    1.4700000  
C   -0.8844236   -0.7423113    2.3369512  
C   -0.4878984   -0.4098547    3.7186280  
N    0.5629682    0.4714286    3.6095011  
C   -1.0836927   -0.9095027    4.8308716  
C   -2.1891196   -1.8367527    4.6554461  
O   -2.7906899   -2.3413415    5.5944904  
C   -2.6257283   -2.2031529    3.2011665  
O   -3.5549479   -2.9829990    3.0410059  
C   -1.9068976   -1.5999348    2.0816745  
H   -0.7774656   -0.6525820    5.8354244  
H   -2.2155208   -1.8586617    1.0779135  
H    1.6384792    1.3747609    1.9961646  
H    1.0518368    0.8833920    4.3830260  
