64

C    8.2370238   -0.0110427   -0.6188249  
C    8.4796132   -0.0156353    0.7352784  
C    9.8958418   -0.0319035    0.9044943  
C   10.4699612   -0.0363501   -0.3925386  
N    9.4348976   -0.0253582   -1.2942820  
C   11.8512982   -0.0513147   -0.6081086  
C   12.6679471   -0.0616781    0.5059633  
O   14.0241686   -0.0760913    0.3527707  
C   12.1140035   -0.0578331    1.8082490  
O   13.0582930   -0.0698042    2.8139908  
C   10.7513701   -0.0433456    2.0216630  
H    7.7282388   -0.0092826    1.5062444  
H    9.5355001   -0.0148639   -2.2931566  
H   12.2951334   -0.0549208   -1.5941105  
H   14.3994527   -0.0816805    1.2429372  
H   12.6011062   -0.0662203    3.6604962  
H   10.3562784   -0.0409202    3.0308087  
C    5.7158607   -0.0000960   -0.7739112  
C    4.7577216    0.0005129   -1.7610467  
C    5.4466896    0.0033021   -3.0100124  
C    6.8350415    0.0040105   -2.7194883  
N    6.9633982    0.0038532   -1.3526885  
C    7.8161411    0.0063093   -3.7155941  
C    7.3879072    0.0076154   -5.0289073  
O    8.3036910    0.0095194   -6.0410086  
C    6.0070627    0.0073131   -5.3388861  
O    5.7412875    0.0091682   -6.6926599  
C    5.0386296    0.0053189   -4.3567148  
H    8.8758772    0.0070045   -3.5007424  
H    7.7997539    0.0104683   -6.8652115  
H    4.7870506    0.0087968   -6.8152754  
H    3.9885434    0.0053185   -4.6246651  
H    5.6080642   -0.0015893    0.2972267  
C    3.3041270    0.0001177   -1.5420435  
C    2.5845370   -0.0004780   -0.3695856  
C    1.2040004   -0.0000007   -0.7283590  
C    1.1422370    0.0006038   -2.1454373  
N    2.4348634    0.0026110   -2.6077469  
C   -0.0655187    0.0008799   -2.8497918  
C   -1.2321769    0.0002326   -2.1101398  
O   -2.4392822    0.0001149   -2.7472517  
C   -1.1911211   -0.0000007   -0.6955263  
O   -2.4371526   -0.0002319   -0.1032858  
C    0.0000000    0.0000000    0.0000000  
H    3.0031534   -0.0000661    0.6222578  
H    2.7054623   -0.0071098   -3.5745266  
H   -0.1193555    0.0014846   -3.9297472  
H   -3.1132992   -0.0000646   -2.0551783  
H   -2.3200279   -0.0004070    0.8516411  
C    2.5528530    2.1414826    2.8079335  
C    2.0663498    1.7338582    4.0032312  
C    0.9804344    0.8229586    3.6752840  
C    0.9495562    0.7966882    2.1971295  
N    1.8690446    1.5676019    1.6831036  
C    0.0000000    0.0000000    1.4700000  
C   -0.8785127   -0.7372425    2.1869543  
O   -1.8187535   -1.5261249    1.6395491  
C   -0.8723269   -0.7321790    3.6796354  
O   -1.7010379   -1.4274584    4.2670412  
C    0.1115397    0.0933559    4.4024240  
H    2.4028853    2.0163452    4.9860947  
H   -2.2861435   -1.9184361    2.3990168  
H    0.0832434    0.0693689    5.4835595  
H    3.3664920    2.8238276    2.6198634  
