64

C   -3.2578654    0.0024039   -2.9908509  
C   -4.0349373    0.0043588   -1.8556756  
C   -5.3958979    0.0056181   -2.2827405  
C   -5.3870306    0.0040491   -3.7011359  
N   -4.0729890    0.0040658   -4.0985153  
C   -6.5582196    0.0043938   -4.4647492  
C   -7.7602568    0.0060512   -3.7841020  
O   -8.9341430    0.0061074   -4.4805241  
C   -7.7896824    0.0080078   -2.3692002  
O   -9.0636548    0.0099264   -1.8397338  
C   -6.6346680    0.0079422   -1.6152321  
H   -3.6662215    0.0059256   -0.8442214  
H   -3.7546018   -0.0074431   -5.0506065  
H   -6.5582203    0.0033486   -5.5460455  
H   -9.6417817    0.0076768   -3.8228681  
H   -8.9942195    0.0111423   -0.8801604  
C    0.0000000    0.0000000    0.0000000  
C    1.0521666   -0.0011902   -0.8862343  
C    0.4917218   -0.0011958   -2.1979130  
C   -0.9187430    0.0003147   -2.0478683  
N   -1.1833172   -0.0009412   -0.7007915  
C   -1.7951704    0.0010350   -3.1372092  
C   -1.2375841    0.0005223   -4.4010425  
O   -2.0474217    0.0015359   -5.4997579  
C    0.1673583   -0.0013568   -4.5711966  
O    0.5673521   -0.0020690   -5.8915552  
C    1.0325768   -0.0023414   -3.4969890  
H    2.0953062   -0.0030650   -0.6200564  
H   -2.0989777    0.0102372   -0.2891825  
H   -1.4634887    0.0006496   -6.2693596  
H    1.5290715   -0.0033156   -5.9180049  
H    2.1042153   -0.0039611   -3.6584457  
C   -4.2535841    2.1311338    1.4476713  
C   -4.9052764    1.6341484    2.5525561  
C   -5.9265072    0.7600546    2.0754319  
C   -5.8489754    0.7633667    0.6591327  
N   -4.8239295    1.6075945    0.3110265  
C   -6.7078561    0.0102594   -0.1470570  
C   -7.6621967   -0.7604627    0.4880794  
O   -8.5262613   -1.5154693   -0.2510903  
C   -7.7555377   -0.7766940    1.9001140  
O   -8.7576580   -1.5935757    2.3815731  
C   -6.9087384   -0.0337762    2.6960600  
H   -4.6738688    1.8731705    3.5764272  
H   -4.5260968    1.8026123   -0.6277201  
H   -9.1010956   -1.9685230    0.3794433  
H   -8.7524864   -1.5472159    3.3425247  
H   -7.0043420   -0.0662417    3.7750802  
H   -3.4279778    2.8187463    1.3804240  
C    0.0000000    0.0000000    1.4700000  
C    1.0541688    0.0001722    2.3260392  
C    0.5103138    0.0000454    3.6635956  
C   -0.9576371   -0.0002459    3.5155732  
N   -1.2018458    0.0001392    2.1615969  
C   -1.8348311   -0.0008317    4.5510609  
C   -1.2972847   -0.0009736    5.9014604  
O   -2.0050672   -0.0014265    6.9001319  
C    0.2542623   -0.0004184    6.0817573  
O    0.7184670   -0.0002256    7.2139121  
C    1.0974552   -0.0000873    4.8889129  
H    2.0940752    0.0005483    2.0517982  
H   -2.9081052   -0.0011668    4.4207061  
H    2.1707277    0.0000911    5.0223670  
H   -2.1128194   -0.0014912    1.7406791  
