62

C    2.1835664   -4.5907686   -6.4999483  
C    3.1339010   -4.3769089   -7.4713371  
C    3.0131680   -3.0154623   -7.8793633  
C    1.9637118   -2.4435382   -7.1155111  
N    1.4805078   -3.4277097   -6.2893522  
C    1.5672979   -1.1099752   -7.2542745  
C    2.2428084   -0.3396527   -8.1808086  
O    1.8966764    0.9689020   -8.3565664  
C    3.2923873   -0.8923180   -8.9526671  
O    3.8662547    0.0024333   -9.8321212  
C    3.6838112   -2.2079051   -8.8164940  
H    3.8279595   -5.1120731   -7.8412157  
H    0.7379417   -3.3135880   -5.6233547  
H    2.4840358    1.3172944   -9.0398649  
H    4.5652678   -0.4503397  -10.3137638  
H    4.4911192   -2.6033104   -9.4217920  
H    1.9506679   -5.4813047   -5.9416818  
C    0.2315723   -0.7260311   -5.1498917  
C    0.4808492   -0.5092797   -6.4670686  
C   -0.5209820    0.4176779   -6.9381514  
C   -1.3804962    0.7254254   -5.7791354  
N   -0.8712826    0.0001710   -4.7267111  
C   -2.4455082    1.5658328   -5.8133230  
C   -2.7668039    2.2100917   -7.0759529  
O   -3.7062272    2.9834392   -7.2090649  
C   -1.8701936    1.8985508   -8.3164521  
O   -2.1311534    2.4348170   -9.3848989  
C   -0.7493924    0.9755930   -8.1558118  
H   -3.0629970    1.7780122   -4.9515819  
H   -0.1333322    0.7653440   -9.0195191  
H    0.7606230   -1.3553504   -4.4527891  
C    1.0965514    0.0001359   -0.8010305  
C    0.0000000    0.0000000    0.0000000  
C   -1.1546563    0.0001470   -0.8669513  
C   -0.6372014    0.0003519   -2.2486282  
N    0.7342871    0.0007337   -2.1395014  
C   -1.4147739    0.0001352   -3.3608717  
C   -2.8576049   -0.0001048   -3.1854462  
O   -3.6427779   -0.0002494   -4.1244907  
C   -3.4275840   -0.0000725   -1.7311666  
O   -4.6406831    0.0000333   -1.5710060  
C   -2.4891867   -0.0001091   -0.6116744  
H   -2.8919122   -0.0002918    0.3920866  
H    2.1388272    0.0000663   -0.5261648  
H    1.3735872   -0.0006099   -2.9130262  
C    2.5285572    2.1210227    2.9438989  
C    1.9331703    1.6216660    4.0790748  
C    0.8903039    0.7472258    3.6520102  
C    0.8972198    0.7527806    2.2336141  
N    1.9028376    1.5986179    1.8362361  
C    0.0000000    0.0000000    1.4700000  
C   -0.9207814   -0.7726952    2.1506477  
O   -1.8198395   -1.5274828    1.4542253  
C   -0.9436862   -0.7911793    3.5655508  
O   -1.9197945   -1.6098497    4.0950179  
C   -0.0590329   -0.0485852    4.3195194  
H    2.2150357    1.8593692    5.0905303  
H    2.1533708    1.7953814    0.8841339  
H   -2.3621246   -1.9821033    2.1118817  
H   -1.8668290   -1.5649508    5.0545920  
H   -0.1007624   -0.0827977    5.4019087  
H    3.3491200    2.8096064    2.8367138  
