64

C   -2.4861733   -0.0034646   -3.7159914  
C   -3.5192705   -0.0043702   -2.8075989  
C   -4.7328136   -0.0062599   -3.5572052  
C   -4.3743087   -0.0067134   -4.9295754  
N   -3.0028530   -0.0030323   -4.9905072  
C   -5.3209195   -0.0087734   -5.9585132  
C   -6.6537170   -0.0107123   -5.5954370  
O   -7.6195171   -0.0131194   -6.5599253  
C   -7.0312835   -0.0099212   -4.2315238  
O   -8.3964981   -0.0116663   -4.0327020  
C   -6.0979690   -0.0076160   -3.2159235  
H   -3.4114740   -0.0026406   -1.7364452  
H   -2.4594035   -0.0129939   -5.8346303  
H   -5.0541697   -0.0089853   -7.0063907  
H   -8.4675256   -0.0138652   -6.0971655  
H   -8.5659328   -0.0110123   -3.0856565  
C    0.0000000    0.0000000    0.0000000  
C   -1.0521661   -0.0021967   -0.8862338  
C   -0.4917243   -0.0003872   -2.1979129  
C    0.9187381    0.0026422   -2.0478685  
N    1.1833073    0.0047498   -0.7007916  
C    1.7951629    0.0047430   -3.1372094  
C    1.2375777    0.0034607   -4.4010427  
O    2.0474136    0.0050538   -5.4997585  
C   -0.1673630    0.0008176   -4.5711958  
O   -0.5673581    0.0002421   -5.8915550  
C   -1.0325808   -0.0009827   -3.4969887  
H   -2.0953054   -0.0036795   -0.6200556  
H    2.0989992   -0.0034810   -0.2891831  
H    2.8710839    0.0071992   -3.0295520  
H    1.4634807    0.0040604   -6.2693598  
H   -1.5290761   -0.0016069   -5.9180046  
C   -4.5517414    2.1192930    0.3399616  
C   -5.4545314    1.6197926    1.2498719  
C   -6.3241622    0.7434597    0.5354613  
C   -5.8996454    0.7480613   -0.8179381  
N   -4.8226595    1.5951739   -0.9023150  
C   -6.5310889   -0.0066171   -1.8111793  
C   -7.6105596   -0.7802647   -1.4311923  
O   -8.2635541   -1.5369072   -2.3607637  
C   -8.0493099   -0.7978226   -0.0858273  
O   -9.1370493   -1.6176332    0.1334397  
C   -7.4270202   -0.0533566    0.8945053  
H   -5.4834949    1.8586163    2.2992135  
H   -4.3029711    1.7916755   -1.7385521  
H   -8.9749610   -1.9919142   -1.8915786  
H   -9.3692208   -1.5720009    1.0659728  
H   -7.7857683   -0.0868978    1.9165881  
H   -3.7368986    2.8090648    0.4785444  
C    1.0672568    0.0000697    2.3021913  
C    0.0000000    0.0000000    1.4700000  
C   -1.1601224    0.0000736    2.3478473  
C   -0.5938729    0.0000769    3.7138435  
N    0.7113367    0.0001554    3.6934124  
C   -1.4286986    0.0001879    4.8835240  
C   -2.7683114    0.0006799    4.6970523  
O   -3.6653903    0.0008304    5.6976972  
C   -3.3702025    0.0010610    3.3310774  
O   -4.5974910    0.0013779    3.2362962  
C   -2.4926826    0.0008943    2.1470656  
H   -0.9878360   -0.0000190    5.8697035  
H   -4.5324246    0.0012261    5.2533954  
H   -2.9677772    0.0012974    1.1752040  
H    2.1134392    0.0000545    2.0405121  
