62

C    5.1232763   -1.0772629   -7.1964845  
C    5.8706689   -0.6650516   -8.2753525  
C    5.6615324    0.7390330   -8.4146655  
C    4.7698141    1.1313258   -7.3837090  
N    4.4612582    0.0039979   -6.6636105  
C    4.3411635    2.4515647   -7.2163255  
C    4.8216849    3.3929888   -8.1057062  
O    4.4356598    4.6968558   -7.9876910  
C    5.7118193    3.0210062   -9.1411325  
O    6.1002074    4.0729139   -9.9448669  
C    6.1349034    1.7186982   -9.3070221  
H    6.4895105   -1.2986360   -8.8873975  
H    3.6615572    2.7569747   -6.4327049  
H    4.8797759    5.1784332   -8.6976971  
H    6.6999957    3.7363378  -10.6176033  
H    6.8170845    1.4637602  -10.1095895  
H    5.0089278   -2.0572625   -6.7658059  
C    4.4925594   -2.1138020   -2.7420817  
C    4.8565035   -1.6946788   -3.9763669  
C    3.8030382   -0.7794116   -4.3874586  
C    2.8583249   -0.7634595   -3.2499852  
N    3.2572738   -1.5436999   -2.2824862  
C    1.6628945    0.0339172   -3.2649299  
C    1.4223703    0.7816763   -4.3659925  
O    0.3461535    1.5724674   -4.5158194  
C    2.3568206    0.7871866   -5.5300089  
O    2.0745623    1.4917543   -6.4990985  
C    3.5763791   -0.0392794   -5.4905725  
H    5.7317950   -1.9722543   -4.5384098  
H    0.4536192    1.9730612   -5.3973688  
H    5.0117291   -2.8025035   -2.0946821  
C    1.1243410    0.0100105   -0.7919003  
C    0.7474072    0.0234665   -2.1148542  
C   -0.6787384    0.0234379   -2.1414698  
C   -1.1201748    0.0098411   -0.7935547  
N    0.0000000    0.0000000    0.0000000  
C   -2.4730818    0.0063307   -0.4408240  
C   -3.3971962    0.0170429   -1.4675058  
O   -4.7313520    0.0145490   -1.1793468  
C   -2.9763654    0.0303020   -2.8186325  
O   -4.0166484    0.0394464   -3.7247625  
C   -1.6418567    0.0334992   -3.1673480  
H   -2.8160166   -0.0041569    0.5845966  
H   -5.1938823    0.0230023   -2.0274386  
H   -3.6464680    0.0481700   -4.6127343  
H   -1.3497475    0.0435647   -4.2109234  
H    2.1062466    0.0053162   -0.3505405  
C    2.4951002    2.0940188    2.9809380  
C    1.9440701    1.6314916    1.8291961  
C    0.8759964    0.7350050    2.2038498  
C    0.8497377    0.7130254    3.6788474  
N    1.8560616    1.5571714    4.0882609  
C   -0.0205033   -0.0168748    4.4215661  
C   -0.9962600   -0.8356168    3.7214979  
O   -1.8224391   -1.5286685    4.3006425  
C   -0.9864710   -0.8277881    2.1595606  
O   -1.8030528   -1.5133726    1.5592035  
C    0.0000000    0.0000000    1.4700000  
H    2.2509283    1.8888011    0.8310761  
H   -0.0229599   -0.0187323    5.5027230  
H    3.3143982    2.7817323    3.1139444  
H    2.0889452    1.7545833    5.0442112  
