66

C    3.3003554    0.0005279   -1.4738974  
C    2.5232827    0.0003500   -2.6090737  
C    1.1623213   -0.0001318   -2.1820100  
C    1.1711891    0.0000584   -0.7636139  
N    2.4852307   -0.0014918   -0.3662351  
C    0.0000000    0.0000000    0.0000000  
C   -1.2020377    0.0000521   -0.6806487  
O   -2.3759251    0.0003494    0.0157735  
C   -1.2314643   -0.0005113   -2.0955516  
O   -2.5054380   -0.0008037   -2.6250188  
C   -0.0764500   -0.0007272   -2.8495198  
H    2.8036267    0.0088182    0.5858675  
H   -3.0835632    0.0000344   -0.6418834  
H   -2.4360031   -0.0011528   -3.5845932  
H   -0.1304077   -0.0013419   -3.9319084  
H    4.3715557    0.0004898   -1.3667115  
C    4.1182206   -0.7098242   -4.4345219  
C    4.3063937   -0.4605390   -5.7742663  
C    3.2826558    0.4475822   -6.1766057  
C    2.4931738    0.7193452   -5.0299633  
N    3.0267454   -0.0008948   -3.9901688  
C    1.3904701    1.5784648   -5.0572790  
C    1.0792537    2.1743287   -6.2640385  
O    0.0128535    3.0222365   -6.3468383  
C    1.8547108    1.9154240   -7.4192234  
O    1.4171373    2.5841568   -8.5437985  
C    2.9425281    1.0677821   -7.3930712  
H    0.7846364    1.7896272   -4.1868892  
H   -0.0265946    3.3225741   -7.2641747  
H    1.9945715    2.3544012   -9.2782274  
H    3.5175178    0.8886452   -8.2940571  
H    4.6753598   -1.3383447   -3.7610852  
C    5.8203098   -2.3347614   -6.5500459  
C    5.3695493   -1.0364347   -6.6102949  
C    6.1276729   -0.3791071   -7.6240842  
C    7.0331820   -1.3346963   -8.1521271  
N    6.8213684   -2.5108019   -7.4764585  
C    7.9391392   -1.0342489   -9.1737739  
C    7.9306299    0.2542522   -9.6716391  
O    8.7942542    0.6014483  -10.6699492  
C    7.0349274    1.2218493   -9.1575489  
O    7.1491083    2.4590970   -9.7571527  
C    6.1410911    0.9262268   -8.1494863  
H    7.3111125   -3.3714744   -7.6419125  
H    8.6319464   -1.7580068   -9.5804619  
H    8.6248412    1.5320744  -10.8661617  
H    6.5098270    3.0533613   -9.3524639  
H    5.4671979    1.6882698   -7.7758068  
H    5.5079275   -3.1487621   -5.9185563  
C    2.5285572    2.1210227    2.9438989  
C    1.9331703    1.6216660    4.0790748  
C    0.8903039    0.7472258    3.6520102  
C    0.8972198    0.7527806    2.2336141  
N    1.9028376    1.5986179    1.8362361  
C    0.0000000    0.0000000    1.4700000  
C   -0.9207814   -0.7726952    2.1506477  
O   -1.8198395   -1.5274828    1.4542253  
C   -0.9436862   -0.7911793    3.5655508  
O   -1.9197945   -1.6098497    4.0950179  
C   -0.0590329   -0.0485852    4.3195194  
H    2.2150357    1.8593692    5.0905303  
H    2.1533708    1.7953814    0.8841339  
H   -2.3621246   -1.9821033    2.1118817  
H   -1.8668290   -1.5649508    5.0545920  
H   -0.1007624   -0.0827977    5.4019087  
H    3.3491200    2.8096064    2.8367138  
