66

C    2.8127783   -0.7365250   -3.3573037  
C    1.6478437   -0.0100096   -3.2702997  
C    1.5143087    0.7107914   -4.4939068  
C    2.6370073    0.3812884   -5.2957182  
N    3.4061782   -0.4980964   -4.5748329  
C    2.8346057    0.9108205   -6.5745224  
C    1.8813276    1.7887461   -7.0527328  
O    2.0247688    2.3349769   -8.2953388  
C    0.7544619    2.1300936   -6.2675751  
O   -0.1041855    3.0169822   -6.8836081  
C    0.5590206    1.6082896   -5.0058107  
H    3.6882152    0.6638026   -7.1905868  
H    1.2608975    2.9107773   -8.4303227  
H   -0.8375012    3.1947276   -6.2867335  
H   -0.3138101    1.8884589   -4.4277537  
H    3.2680676   -1.4048169   -2.6466308  
C    5.0306478   -4.5876507   -4.1326514  
C    6.2079999   -4.3837394   -4.8143625  
C    6.2093625   -3.0240658   -5.2455063  
C    4.9969373   -2.4429208   -4.7935980  
N    4.3038961   -3.4201352   -4.1232521  
C    4.6603309   -1.1083173   -5.0391947  
C    5.5642622   -0.3464151   -5.7537504  
O    5.2858662    0.9627365   -6.0213908  
C    6.7790694   -0.9083473   -6.2134191  
O    7.5732066   -0.0212767   -6.9104094  
C    7.1116727   -2.2249671   -5.9717315  
H    6.9713909   -5.1242280   -4.9814066  
H    3.4105941   -3.2987730   -3.6813649  
H    6.0370849    1.3045066   -6.5235156  
H    8.3730567   -0.4800367   -7.1849712  
H    8.0493632   -2.6275671   -6.3366005  
H    4.6511602   -5.4739194   -3.6536150  
C    1.1188642    0.0008224   -0.8003808  
C    0.0000000    0.0000000    0.0000000  
C   -1.1323861    0.0008899   -0.8673529  
C   -0.6382661    0.0019681   -2.1969282  
N    0.7324017    0.0038483   -2.1202240  
C   -1.4770912    0.0027320   -3.3154810  
C   -2.8395474    0.0020946   -3.0876860  
O   -3.7039199    0.0024426   -4.1440353  
C   -3.3517867    0.0013927   -1.7684331  
O   -4.7300496    0.0012363   -1.7073125  
C   -2.5248543    0.0009121   -0.6644818  
H   -1.1067568    0.0036992   -4.3313814  
H   -4.5940031    0.0021828   -3.7685133  
H   -4.9934602    0.0007260   -0.7819919  
H   -2.9462579    0.0005600    0.3339656  
H    2.1619896    0.0009357   -0.5342065  
C    2.5311839    2.1237619    3.0120429  
C    1.9795631    1.6616747    1.8395852  
C    0.9223175    0.7739173    2.1983588  
C    0.8753926    0.7337535    3.6154372  
N    1.8668922    1.5631002    4.0777464  
C   -0.0496243   -0.0427881    4.3197917  
C   -0.9437528   -0.7922060    3.5801400  
O   -1.8685244   -1.5680278    4.2172520  
C   -0.9124520   -0.7656372    2.1655264  
O   -1.8671164   -1.5663939    1.5732860  
C    0.0000000    0.0000000    1.4700000  
H    2.3005065    1.9304404    0.8477417  
H    2.0679347    1.7444845    5.0445261  
H   -0.0904770   -0.0778569    5.3997470  
H   -2.3849669   -2.0011402    3.5251786  
H   -1.7775064   -1.4909735    0.6183591  
H    3.3468514    2.8078103    3.1724291  
