62

C    3.3003545    0.0005275   -1.4738985  
C    2.5232816    0.0003498   -2.6090745  
C    1.1623201   -0.0001318   -2.1820100  
C    1.1711884    0.0000584   -0.7636138  
N    2.4852303   -0.0014918   -0.3662355  
C    0.0000000    0.0000000    0.0000000  
C   -1.2020383    0.0000520   -0.6806475  
O   -2.3759247    0.0003495    0.0157748  
C   -1.2314656   -0.0005111   -2.0955504  
O   -2.5054387   -0.0008035   -2.6250179  
C   -0.0764515   -0.0007273   -2.8495193  
H    2.8919956   -0.0005620   -3.6205297  
H    2.8036266    0.0088180    0.5858667  
H   -3.0835637    0.0000349   -0.6418815  
H   -2.4360046   -0.0011526   -3.5845919  
H    4.3715550    0.0004893   -1.3667129  
C    2.3339072   -2.1433066   -5.7798814  
C    1.7884039   -1.7364551   -6.9497006  
C    0.7199610   -0.8255803   -6.5686008  
C    0.7627111   -0.7984773   -5.0907571  
N    1.7068232   -1.5689207   -4.6227199  
C   -0.1496414   -0.0015612   -4.3176957  
C   -1.0629248    0.7351038   -4.9904306  
O   -1.9749198    1.5241139   -4.3973303  
C   -1.1310647    0.7291946   -6.4815657  
O   -1.9881487    1.4239795   -7.0273692  
C   -0.1842217   -0.0965591   -7.2519837  
H    2.0756490   -2.0194342   -7.9479435  
H   -2.4796306    1.9159033   -5.1328036  
H    3.1560524   -2.8253865   -5.6321748  
C   -0.1679933   -1.1270562   -9.5536824  
C   -0.2957794   -0.0648046   -8.7174008  
C   -0.5598556    1.0907328   -9.5419202  
C   -0.5755844    0.6111694  -10.9371126  
N   -0.3312372   -0.7413818  -10.8755544  
C   -0.7938309    1.4006951  -12.0191119  
C   -1.0287044    2.8173622  -11.7945594  
O   -1.2350422    3.6106418  -12.7036427  
C   -1.0162592    3.3471097  -10.3251994  
O   -1.2124718    4.5379906  -10.1237958  
C   -0.7700734    2.3990479   -9.2414917  
H   -0.8013466    1.0288578  -13.0342918  
H   -0.7632865    2.7738252   -8.2269866  
H    0.0319132   -2.1591489   -9.3155396  
H   -0.2813955   -1.3543107  -11.6685749  
C    2.5311839    2.1237619    3.0120429  
C    1.9795631    1.6616747    1.8395852  
C    0.9223175    0.7739173    2.1983588  
C    0.8753926    0.7337535    3.6154372  
N    1.8668922    1.5631002    4.0777464  
C   -0.0496243   -0.0427881    4.3197917  
C   -0.9437528   -0.7922060    3.5801400  
O   -1.8685244   -1.5680278    4.2172520  
C   -0.9124520   -0.7656372    2.1655264  
O   -1.8671164   -1.5663939    1.5732860  
C    0.0000000    0.0000000    1.4700000  
H    2.3005065    1.9304404    0.8477417  
H    2.0679347    1.7444845    5.0445261  
H   -0.0904770   -0.0778569    5.3997470  
H   -2.3849669   -2.0011402    3.5251786  
H   -1.7775064   -1.4909735    0.6183591  
H    3.3468514    2.8078103    3.1724291  
