62

C    3.1716692   -0.7138301   -7.3339843  
C    2.2350878    0.0040179   -8.0410747  
C    2.9395959    0.7319979   -9.0452222  
C    4.3147425    0.4156048   -8.9010239  
N    4.4208641   -0.4632137   -7.8517221  
C    5.3055298    0.9549819   -9.7269790  
C    4.9007066    1.8294543  -10.7167229  
O    5.8267961    2.3849144  -11.5514902  
C    3.5333710    2.1577737  -10.8761462  
O    3.2906797    3.0427796  -11.9062962  
C    2.5554226    1.6262524  -10.0615116  
H    5.2762760   -0.8719322   -7.5212662  
H    6.3553114    0.7179739   -9.6221542  
H    5.3390452    2.9563030  -12.1588440  
H    2.3443241    3.2114772  -11.9457415  
H    1.5161390    1.8965298  -10.2075181  
H    3.0476057   -1.3836681   -6.5003871  
C   -0.1387078    0.0017019   -4.3179684  
C    0.8715321    0.0021971   -5.2254318  
C    0.2617562    0.0029749   -6.5342510  
C   -1.1970041    0.0029208   -6.3133244  
N   -1.3734971    0.0017348   -4.9488690  
C   -2.1246662    0.0039288   -7.3038527  
C   -1.6550217    0.0049224   -8.6793415  
O   -2.4116492    0.0058073   -9.6415342  
C   -0.1143757    0.0047456   -8.9366641  
O    0.2928845    0.0052690  -10.0905276  
C    0.7871620    0.0038980   -7.7872817  
H    1.9238030    0.0018536   -5.0033071  
H   -3.1901193    0.0039992   -7.1202221  
H   -2.2623840    0.0029666   -4.4831162  
C    3.3041272    0.0001178   -1.5420428  
C    2.5845372   -0.0004779   -0.3695851  
C    1.2040007   -0.0000007   -0.7283589  
C    1.1422375    0.0006038   -2.1454371  
N    2.4348641    0.0026111   -2.6077464  
C   -0.0655179    0.0008799   -2.8497918  
C   -1.2321766    0.0002325   -2.1101402  
O   -2.4392816    0.0001148   -2.7472523  
C   -1.1911209   -0.0000007   -0.6955266  
O   -2.4371527   -0.0002320   -0.1032863  
C    0.0000000    0.0000000    0.0000000  
H    3.0031533   -0.0000660    0.6222584  
H    2.7054632   -0.0071097   -3.5745261  
H   -3.1132986   -0.0000648   -2.0551788  
H   -2.3200284   -0.0004071    0.8516409  
H    4.3686626    0.0004072   -1.7024289  
C    0.8400945    0.7047457    2.2710304  
C    0.0000000    0.0000000    1.4700000  
C   -0.8844236   -0.7423113    2.3369512  
C   -0.4878984   -0.4098547    3.7186280  
N    0.5629682    0.4714286    3.6095011  
C   -1.0836927   -0.9095027    4.8308716  
C   -2.1891196   -1.8367527    4.6554461  
O   -2.7906899   -2.3413415    5.5944904  
C   -2.6257283   -2.2031529    3.2011665  
O   -3.5549479   -2.9829990    3.0410059  
C   -1.9068976   -1.5999348    2.0816745  
H   -0.7774656   -0.6525820    5.8354244  
H   -2.2155208   -1.8586617    1.0779135  
H    1.6384792    1.3747609    1.9961646  
H    1.0518368    0.8833920    4.3830260  
