60

C    6.4444274   -0.0013973   -1.5078646  
C    5.6413387   -0.0018989   -0.3909422  
C    6.5059463   -0.0029433    0.7435411  
C    7.8367146   -0.0027470    0.2526426  
N    7.7633326   -0.0037525   -1.1182079  
C    8.9532331   -0.0032891    1.0941745  
C    8.7221377   -0.0037360    2.4560748  
O    9.7763904   -0.0039235    3.3230033  
C    7.4016485   -0.0043137    2.9651169  
O    7.3371892   -0.0051346    4.3432273  
C    6.2997036   -0.0040527    2.1355134  
H    4.5647768   -0.0026595   -0.3935505  
H    8.5503180    0.0066910   -1.7415262  
H    9.9700283   -0.0032873    0.7263021  
H    9.3987138   -0.0045323    4.2121744  
H    6.4112331   -0.0054565    4.6043959  
H    5.3002384   -0.0046917    2.5544967  
C    2.5562217   -0.0001551   -3.6003001  
C    3.5357958   -0.0006718   -2.6598164  
C    4.7960230   -0.0006607   -3.3645598  
C    4.4679970   -0.0000617   -4.8030274  
N    3.0942343   -0.0001763   -4.8782995  
C    5.3873325    0.0005226   -5.8012894  
C    6.7937410    0.0003381   -5.4344807  
O    7.6974455    0.0007628   -6.2600824  
C    7.1641097   -0.0005463   -3.9170382  
O    8.3448916   -0.0010154   -3.5960804  
C    6.0844250   -0.0008434   -2.9331005  
H    3.3919673   -0.0012035   -1.5940179  
H    5.1255396    0.0010863   -6.8502770  
H    2.5641262    0.0016992   -5.7303728  
C    0.0000000    0.0000000    0.0000000  
C    1.0541688   -0.0001722   -0.8560390  
C    0.5103141   -0.0000453   -2.1935955  
C   -0.9576367    0.0002460   -2.0455731  
N   -1.2018459   -0.0001392   -0.6915969  
C   -1.8348307    0.0008318   -3.0810611  
C   -1.2972843    0.0009738   -4.4314606  
O   -2.0050665    0.0014267   -5.4301321  
C    0.2542628    0.0004186   -4.6117570  
O    0.7184676    0.0002258   -5.7439117  
C    1.0974555    0.0000874   -3.4189127  
H    2.0940752   -0.0005483   -0.5817978  
H   -2.9081051    0.0011670   -2.9507061  
H   -2.1128194    0.0014912   -0.2706792  
C    3.2573670    0.0002920    2.9809380  
C    2.5379467    0.0001709    1.8291961  
C    1.1435042   -0.0000331    2.2038498  
C    1.1092607    0.0000083    3.6788474  
N    2.4227561   -0.0001909    4.0882609  
C   -0.0265533    0.0002524    4.4215661  
C   -1.3003036    0.0002640    3.7214979  
O   -2.3786784    0.0004133    4.3006425  
C   -1.2877726   -0.0000311    2.1595606  
O   -2.3539958   -0.0003306    1.5592035  
C    0.0000000    0.0000000    1.4700000  
H    2.9384090    0.0000368    0.8310761  
H   -0.0296291    0.0004086    5.5027230  
H    4.3270393    0.0004765    3.1139444  
H    2.7280493    0.0013407    5.0442112  
