64

C    5.0606022   -1.0740804   -6.7502869  
C    6.0735969   -1.9601658   -6.4653995  
C    6.7580619   -2.2178129   -7.6900322  
C    6.1125732   -1.4543456   -8.6962074  
N    5.0851694   -0.7731742   -8.0920026  
C    6.5231219   -1.4635143  -10.0326794  
C    7.6051844   -2.2576344  -10.3593156  
O    8.0480038   -2.3035040  -11.6495944  
C    8.2621209   -3.0268585   -9.3695958  
O    9.3221450   -3.7659162   -9.8527988  
C    7.8574801   -3.0185083   -8.0509900  
H    6.2916237   -2.3712180   -5.4945778  
H    4.4567318   -0.1412969   -8.5543641  
H    6.0353112   -0.8840207  -10.8043205  
H    8.8007240   -2.9089770  -11.6585770  
H    9.7100627   -4.2556401   -9.1211614  
H    8.3801914   -3.6183321   -7.3151494  
C    3.9300170   -0.7219423   -4.5190964  
C    2.8699641   -0.0020530   -4.0185824  
C    2.3084610    0.7252951   -5.1095815  
C    3.0740003    0.4064308   -6.2603207  
N    4.0515276   -0.4731893   -5.8662066  
C    2.8029524    0.9445742   -7.5219558  
C    1.7395403    1.8203320   -7.6238416  
O    1.4306806    2.3746757   -8.8322792  
C    0.9641562    2.1511178   -6.4871013  
O   -0.0597837    3.0371512   -6.7513650  
C    1.2311460    1.6208145   -5.2421026  
H    3.3827123    0.7056831   -8.4028712  
H    0.6670882    2.9472679   -8.6828509  
H   -0.5337212    3.2075145   -5.9316319  
H    0.6198245    1.8929815   -4.3896417  
H    4.6099240   -1.3920555   -4.0214687  
C    3.2573670   -0.0002921   -1.5109382  
C    2.5379468   -0.0001711   -0.3591962  
C    1.1435043    0.0000330   -0.7338498  
C    1.1092608   -0.0000085   -2.2088474  
N    2.4227562    0.0001906   -2.6182610  
C   -0.0265533   -0.0002525   -2.9515663  
C   -1.3003033   -0.0002641   -2.2514979  
O   -2.3786785   -0.0004132   -2.8306425  
C   -1.2877724    0.0000310   -0.6895608  
O   -2.3539956    0.0003306   -0.0892035  
C    0.0000000    0.0000000    0.0000000  
H    2.9384091   -0.0000370    0.6389240  
H   -0.0296290   -0.0004088   -4.0327231  
H    4.3270394   -0.0004767   -1.6439445  
C    2.5285572    2.1210227    2.9438989  
C    1.9331703    1.6216660    4.0790748  
C    0.8903039    0.7472258    3.6520102  
C    0.8972198    0.7527806    2.2336141  
N    1.9028376    1.5986179    1.8362361  
C    0.0000000    0.0000000    1.4700000  
C   -0.9207814   -0.7726952    2.1506477  
O   -1.8198395   -1.5274828    1.4542253  
C   -0.9436862   -0.7911793    3.5655508  
O   -1.9197945   -1.6098497    4.0950179  
C   -0.0590329   -0.0485852    4.3195194  
H    2.2150357    1.8593692    5.0905303  
H    2.1533708    1.7953814    0.8841339  
H   -2.3621246   -1.9821033    2.1118817  
H   -1.8668290   -1.5649508    5.0545920  
H   -0.1007624   -0.0827977    5.4019087  
H    3.3491200    2.8096064    2.8367138  
