64

C   -6.0484660   -0.7120738   -6.3327717  
C   -6.4294903   -0.4624473   -7.6308377  
C   -7.5276157    0.4461801   -7.5750190  
C   -7.7737748    0.7178858   -6.2047968  
N   -6.8591837   -0.0028733   -5.4777161  
C   -8.7891860    1.5774261   -5.7747744  
C   -9.5701365    2.1737769   -6.7456817  
O  -10.5753645    3.0221088   -6.3811788  
C   -9.3402705    1.9149375   -8.1178994  
O  -10.2024006    2.5841794   -8.9618129  
C   -8.3388964    1.0668814   -8.5428408  
H   -5.9729099   -0.8843118   -8.5097907  
H   -8.9820094    1.7885473   -4.7319663  
H  -10.9895061    3.3227431   -7.2005505  
H   -9.9793809    2.3544336   -9.8690529  
H   -8.1867744    0.8878063   -9.6007955  
H   -5.2634625   -1.3410096   -5.9491465  
C   -3.3460096   -0.0004265   -2.7913646  
C   -4.0351702    0.0003055   -1.6007663  
C   -5.4244878    0.0001005   -1.9238725  
C   -5.5227199   -0.0010603   -3.3388900  
N   -4.2424270    0.0005973   -3.8343331  
C   -6.7482124   -0.0018647   -4.0119112  
C   -7.8954377   -0.0017972   -3.2424625  
O   -9.1185481   -0.0029120   -3.8482795  
C   -7.8179689   -0.0002715   -1.8293762  
O   -9.0483375    0.0000156   -1.2052468  
C   -6.6093340    0.0007956   -1.1647522  
H   -3.5911531    0.0020178   -0.6200323  
H   -3.9968101   -0.0102739   -4.8077478  
H   -9.7745213   -0.0023507   -3.1390798  
H   -8.9066624    0.0010428   -0.2536529  
H   -6.5814276    0.0021374   -0.0813789  
C    0.0000000    0.0000000    0.0000000  
C    1.0662919   -0.0000103   -0.8334269  
C    0.4961869    0.0000064   -2.1718889  
C   -0.9663859   -0.0000850   -1.9540246  
N   -1.2632774   -0.0000084   -0.6828657  
C   -1.8985363   -0.0000518   -3.0477257  
C   -1.3925778    0.0004564   -4.3020545  
O   -2.1456384    0.0005409   -5.4151311  
C    0.0786230    0.0009323   -4.5544998  
O    0.4683758    0.0012588   -5.7221098  
C    1.0143164    0.0008442   -3.4159030  
H    2.1107195    0.0000633   -0.5721867  
H   -1.5042275    0.0009691   -6.1484418  
H    2.0724152    0.0013148   -3.6409744  
C    1.1188642   -0.0008217    2.2703808  
C    0.0000000    0.0000000    1.4700000  
C   -1.1323862   -0.0008904    2.3373528  
C   -0.6382662   -0.0019682    3.6669281  
N    0.7324016   -0.0038477    3.5902241  
C   -1.4770914   -0.0027325    4.7854808  
C   -2.8395474   -0.0020958    4.5576857  
O   -3.7039201   -0.0024443    5.6140350  
C   -3.3517868   -0.0013946    3.2384331  
O   -4.7300496   -0.0012389    3.1773122  
C   -2.5248543   -0.0009135    2.1344818  
H    1.3576314    0.0056174    4.3757045  
H   -1.1067570   -0.0036993    5.8013813  
H   -4.5940033   -0.0021850    5.2385129  
H   -4.9934601   -0.0007286    2.2519915  
H   -2.9462578   -0.0005617    1.1360343  
H    2.1619896   -0.0009344    2.0042067  
