60

C    2.1349317   -0.0016726   -8.0806843  
C    3.1756835   -0.0021273   -7.1810723  
C    4.3828374   -0.0031191   -7.9409266  
C    4.0127260   -0.0029406   -9.3102117  
N    2.6407990   -0.0040068   -9.3595286  
C    4.9505921   -0.0034423  -10.3471292  
C    6.2864175   -0.0038297   -9.9953508  
O    7.2440191   -0.0039759  -10.9679830  
C    6.6755177   -0.0043889   -8.6346830  
O    8.0423679   -0.0051492   -8.4474277  
C    5.7508337   -0.0041677   -7.6112164  
H    3.0769578   -0.0028911   -6.1090436  
H    2.0902411    0.0064116  -10.1990275  
H    4.6749803   -0.0034537  -11.3927107  
H    8.0959151   -0.0045465  -10.5124196  
H    8.2198134   -0.0054622   -7.5018502  
H    6.0788997   -0.0047911   -6.5783319  
C   -0.2963294   -0.0005341   -4.3948471  
C    0.7278651   -0.0010065   -5.2865309  
C    0.1384644   -0.0010228   -6.6046519  
C   -1.3235472   -0.0004882   -6.4063792  
N   -1.5211839   -0.0006101   -5.0448251  
C   -2.2357329    0.0000548   -7.4111788  
C   -1.7448089   -0.0001094   -8.7792165  
O   -2.4864201    0.0002816   -9.7530304  
C   -0.2003569   -0.0009258   -9.0126110  
O    0.2247525   -0.0013772  -10.1600176  
C    0.6832435   -0.0011826   -7.8493819  
H    1.7765638   -0.0014916   -5.0481103  
H   -3.3039063    0.0005715   -7.2440972  
H   -2.4171880    0.0012263   -4.5929174  
C    3.1301143   -0.0010313   -1.7028257  
C    2.5367765   -0.0002767   -0.4864669  
C    1.1089900    0.0001027   -0.7656184  
C    1.0177864   -0.0004150   -2.2415133  
N    2.1993571   -0.0011613   -2.7963824  
C   -0.2459220   -0.0002879   -2.9257116  
C   -1.3675327   -0.0000606   -2.1698519  
O   -2.6129319    0.0000866   -2.6748482  
C   -1.3083588    0.0000910   -0.6783229  
O   -2.3693264    0.0004206   -0.0541685  
C    0.0000000    0.0000000    0.0000000  
H    3.0096014   -0.0001008    0.4807517  
H   -3.1967445    0.0002093   -1.8949025  
H    4.1849272   -0.0015113   -1.9271980  
C    2.5128556    2.1077716    2.9199648  
C    1.9592212    1.6432552    4.0696553  
C    0.8915788    0.7479214    3.6910360  
C    0.8684491    0.7287414    2.2159470  
N    1.8754542    1.5738793    1.8102719  
C    0.0000000    0.0000000    1.4700000  
C   -0.9772830   -0.8200135    2.1664417  
O   -1.8021297   -1.5120829    1.5842315  
C   -0.9711318   -0.8147624    3.7284083  
O   -1.7894187   -1.5009653    4.3257297  
C    0.0140216    0.0115358    4.4216297  
H    2.2638494    1.8988021    5.0689105  
H    0.0117648    0.0094386    5.5031631  
H    3.3327358    2.7953732    2.7900019  
H    2.1123206    1.7707734    0.8551938  
