60

C   -3.4023856    0.0128652   -8.3085205  
C   -4.4210887    0.0123040   -7.3840143  
C   -5.6462565    0.0133692   -8.1144678  
C   -5.3093515    0.0142803   -9.4922994  
N   -3.9390180    0.0158966   -9.5747610  
C   -6.2720082    0.0151488  -10.5062432  
C   -7.5989393    0.0147897  -10.1222790  
O   -8.5797723    0.0152508  -11.0714797  
C   -7.9550365    0.0142581   -8.7526029  
O   -9.3169621    0.0143743   -8.5323638  
C   -7.0058836    0.0136744   -7.7517867  
H   -4.2964800    0.0123609   -6.3146848  
H   -3.4089086    0.0062681  -10.4273303  
H   -6.0217490    0.0159896  -11.5581803  
H   -9.4204072    0.0151848  -10.5954577  
H   -9.4714996    0.0139643   -7.5827735  
H   -7.3088884    0.0134575   -6.7112740  
C   -1.0641738    0.0073911   -4.6315339  
C    0.2051247    0.0079407   -5.1010655  
C    0.0692340    0.0101849   -6.5495228  
C   -1.3902933    0.0106360   -6.7869341  
N   -2.0598290    0.0090850   -5.6663495  
C   -1.9455307    0.0127607   -8.1123747  
C   -1.0819577    0.0147510   -9.1533232  
O   -1.4607000    0.0168502  -10.4427375  
C    0.3963089    0.0147283   -8.9462286  
O    1.1228021    0.0164817   -9.9399213  
C    0.9412630    0.0124831   -7.5769422  
H    1.1205717    0.0070365   -4.5344694  
H   -0.6266011    0.0179438  -10.9461564  
H    2.0176805    0.0126567   -7.4694464  
C    1.1319245    0.0015656   -0.8009271  
C    0.7969914    0.0034943   -2.1169404  
C   -0.6453340    0.0035712   -2.1842672  
C   -1.1266833    0.0015434   -0.7896027  
N    0.0000000    0.0000000    0.0000000  
C   -2.4346131    0.0013965   -0.4276296  
C   -3.4350110    0.0031409   -1.4820182  
O   -4.6384610    0.0030975   -1.2583916  
C   -2.9478961    0.0050507   -2.9661073  
O   -3.7809383    0.0062220   -3.8623773  
C   -1.5113824    0.0053091   -3.2312124  
H    1.4821237    0.0045409   -2.9459193  
H   -2.7664564    0.0000233    0.6013449  
H    2.1104315    0.0009392   -0.3488061  
C    2.5528530    2.1414826    2.8079335  
C    2.0663498    1.7338582    4.0032312  
C    0.9804344    0.8229586    3.6752840  
C    0.9495562    0.7966882    2.1971295  
N    1.8690446    1.5676019    1.6831036  
C    0.0000000    0.0000000    1.4700000  
C   -0.8785127   -0.7372425    2.1869543  
O   -1.8187535   -1.5261249    1.6395491  
C   -0.8723269   -0.7321790    3.6796354  
O   -1.7010379   -1.4274584    4.2670412  
C    0.1115397    0.0933559    4.4024240  
H    2.4028853    2.0163452    4.9860947  
H   -2.2861435   -1.9184361    2.3990168  
H    0.0832434    0.0693689    5.4835595  
H    3.3664920    2.8238276    2.6198634  
