60

C    6.6855787   -3.0757493   -3.9304906  
C    7.7247981   -3.7551469   -4.5228669  
C    8.3583506   -4.5210870   -3.4998583  
C    7.6558571   -4.2668499   -2.2941256  
N    6.6475503   -3.3836814   -2.5906846  
C    8.0062383   -4.8567523   -1.0759147  
C    9.0852540   -5.7192482   -1.0749257  
O    9.4701014   -6.3228820    0.0871987  
C    9.7989960   -5.9852954   -2.2676571  
O   10.8485078   -6.8654641   -2.1028154  
C    9.4540631   -5.4034877   -3.4697588  
H    7.9938930   -3.7040261   -5.5640044  
H    5.9762138   -3.0276949   -1.9345121  
H    7.4749774   -4.6670052   -0.1534396  
H   10.2317779   -6.8754602   -0.1313687  
H   11.2771647   -6.9906641   -2.9549784  
H   10.0196631   -5.6263087   -4.3669353  
C    5.7075973   -2.1458899   -4.5134268  
C    5.6080283   -1.7400303   -5.8006495  
C    4.4743455   -0.8284970   -5.8198985  
C    3.9952578   -0.7999672   -4.4212404  
N    4.7143359   -1.5702090   -3.6507578  
C    2.8699641   -0.0020530   -4.0185824  
C    2.2516352    0.7342030   -4.9698613  
O    1.1898869    1.5240362   -4.7355641  
C    2.7116326    0.7268608   -6.3898997  
O    2.1013090    1.4213451   -7.2025603  
C    3.8682730   -0.0998975   -6.7779434  
H    6.2274578   -2.0240585   -6.6341436  
H    0.9759266    1.9152457   -5.6017794  
H    4.1702380   -0.0775571   -7.8164743  
C    3.2573670   -0.0002921   -1.5109382  
C    2.5379468   -0.0001711   -0.3591962  
C    1.1435043    0.0000330   -0.7338498  
C    1.1092608   -0.0000085   -2.2088474  
N    2.4227562    0.0001906   -2.6182610  
C   -0.0265533   -0.0002525   -2.9515663  
C   -1.3003033   -0.0002641   -2.2514979  
O   -2.3786785   -0.0004132   -2.8306425  
C   -1.2877724    0.0000310   -0.6895608  
O   -2.3539956    0.0003306   -0.0892035  
C    0.0000000    0.0000000    0.0000000  
H    2.9384091   -0.0000370    0.6389240  
H   -0.0296290   -0.0004088   -4.0327231  
H    4.3270394   -0.0004767   -1.6439445  
C    0.0000000    0.0000000    1.4700000  
C    1.0662921    0.0000102    2.3034270  
C    0.4961870   -0.0000064    3.6418889  
C   -0.9663858    0.0000850    3.4240247  
N   -1.2632773    0.0000084    2.1528658  
C   -1.8985362    0.0000517    4.5177257  
C   -1.3925775   -0.0004564    5.7720543  
O   -2.1456383   -0.0005410    6.8851312  
C    0.0786232   -0.0009323    6.0245000  
O    0.4683759   -0.0012588    7.1921102  
C    1.0143166   -0.0008442    4.8859032  
H    2.1107198   -0.0000632    2.0421868  
H   -2.9622183    0.0003270    4.3293377  
H   -1.5042274   -0.0009692    7.6184419  
H    2.0724152   -0.0013148    5.1109744  
