60

C    7.7731888   -5.4954167   -6.9083734  
C    7.0475878   -4.5336727   -6.2442799  
C    7.2393025   -3.3077173   -6.9477555  
C    8.0984200   -3.5855223   -8.0416789  
N    8.4051959   -4.9225073   -7.9871186  
C    8.5029546   -2.6057774   -8.9534023  
C    8.0313856   -1.3222704   -8.7574197  
O    8.3948209   -0.3272525   -9.6181573  
C    7.1736642   -1.0253095   -7.6716283  
O    6.7903525    0.2986488   -7.6120436  
C    6.7743880   -1.9912967   -6.7716436  
H    6.4541022   -4.6955594   -5.3607868  
H    8.9892326   -5.4111048   -8.6414545  
H    9.1576734   -2.8110369   -9.7891146  
H    7.9618954    0.4771954   -9.3039858  
H    6.2130447    0.4141960   -6.8511443  
H    7.8910534   -6.5444249   -6.6970713  
C    5.9718892   -2.1066115   -4.3836101  
C    5.8824617   -1.6421429   -5.6565381  
C    4.7503164   -0.7470245   -5.6994995  
C    4.1834495   -0.7279188   -4.3374840  
N    4.9692736   -1.5728897   -3.5882214  
C    3.1006054    0.0006263   -3.9654951  
C    2.4499046    0.8204922   -4.9739315  
O    1.4681175    1.5123813   -4.7379556  
C    3.0331143    0.8153164   -6.4229469  
O    2.4935219    1.5013962   -7.2804985  
C    4.2049176   -0.0107666   -6.7027952  
H    4.6026870   -0.0086184   -7.7085282  
H    6.6857547   -2.7940671   -3.9597122  
H    4.8362803   -1.7697856   -2.6132382  
C    3.2798083    0.0005857   -1.4499652  
C    2.5571142    0.0005565   -2.5996556  
C    1.1637432    0.0001548   -2.2210361  
C    1.1336964   -0.0000200   -0.7459473  
N    2.4483512   -0.0001428   -0.3402723  
C    0.0000000    0.0000000    0.0000000  
C   -1.2757368   -0.0000186   -0.6964415  
O   -2.3524598   -0.0000639   -0.1142311  
C   -1.2676497   -0.0000872   -2.2584083  
O   -2.3355766   -0.0004101   -2.8557295  
C    0.0181558    0.0001758   -2.9516296  
H    0.0150788    0.0003319   -4.0331631  
H    4.3498547    0.0008612   -1.3200026  
H    2.7563626    0.0012823    0.6148059  
C    0.8681109    0.7263879    2.2709268  
C    0.6127770    0.5096195    3.5869401  
C   -0.4920590   -0.4175482    3.6542670  
C   -0.8620974   -0.7254003    2.2596025  
N    0.0000000    0.0000000    1.4700000  
C   -1.8641242   -1.5660088    1.8976294  
C   -2.6293522   -2.2103885    2.9520183  
O   -3.5512764   -2.9839180    2.7283916  
C   -2.2549728   -1.8987399    4.4361073  
O   -2.8923672   -2.4351063    5.3323774  
C   -1.1543735   -0.9755647    4.7012123  
H    1.1382914    0.9492124    4.4159191  
H   -2.1192137   -1.7782617    0.8686553  
H   -0.9013378   -0.7652422    5.7314848  
H    1.6172880    1.3558399    1.8188057  
