62

C    5.8090115   -3.0961868   -7.5586483  
C    6.3751284   -2.2943653   -8.5225271  
C    5.9014452   -0.9687719   -8.2922534  
C    5.0426014   -1.0236763   -7.1647337  
N    5.0072146   -2.3302983   -6.7450856  
C    4.3949756    0.1042336   -6.6517153  
C    4.6186567    1.3095792   -7.2883364  
O    4.0116410    2.4423955   -6.8286923  
C    5.4718540    1.3845412   -8.4149471  
O    5.5922366    2.6557071   -8.9374297  
C    6.1108693    0.2721898   -8.9217609  
H    7.0460050   -2.6244969   -9.2970791  
H    4.4878362   -2.6729237   -5.9571550  
H    4.2989223    3.1602927   -7.4077930  
H    6.1849661    2.6185636   -9.6943293  
H    6.7584638    0.3604558   -9.7862300  
H    5.9126013   -4.1540638   -7.3879936  
C    4.6212872   -2.1169896   -2.7781366  
C    4.8855751   -1.6159779   -4.0317739  
C    3.8097322   -0.7409924   -4.3657838  
C    2.9114591   -0.7479356   -3.2680660  
N    3.4333735   -1.5950871   -2.3222560  
C    1.7334695    0.0049281   -3.2500363  
C    1.4574012    0.7791354   -4.3602465  
O    0.3208001    1.5340732   -4.3951776  
C    2.3411259    0.7990193   -5.4654406  
O    1.9261037    1.6191054   -6.4943035  
C    3.5032851    0.0563442   -5.4840273  
H    5.7471774   -1.8529553   -4.6321715  
H    3.0199241   -1.7930092   -1.4290216  
H    0.3218063    1.9898346   -5.2469672  
H    2.5782324    1.5750928   -7.2002745  
H    5.1854433   -2.8064341   -2.1736918  
C    1.1319246    0.0015678   -0.8009268  
C    0.7969914    0.0034958   -2.1169401  
C   -0.6453340    0.0035696   -2.1842669  
C   -1.1266832    0.0015410   -0.7896025  
N    0.0000000    0.0000000    0.0000000  
C   -2.4346129    0.0013913   -0.4276292  
C   -3.4350111    0.0031335   -1.4820181  
O   -4.6384614    0.0030875   -1.2583914  
C   -2.9478961    0.0050442   -2.9661074  
O   -3.7809382    0.0062135   -3.8623773  
C   -1.5113825    0.0053055   -3.2312122  
H   -2.7664565    0.0000174    0.6013448  
H   -1.1823533    0.0068381   -4.2614848  
H    2.1104316    0.0009435   -0.3488059  
C    0.0000000    0.0000000    1.4700000  
C    1.0662921    0.0000102    2.3034270  
C    0.4961870   -0.0000064    3.6418889  
C   -0.9663858    0.0000850    3.4240247  
N   -1.2632773    0.0000084    2.1528658  
C   -1.8985362    0.0000517    4.5177257  
C   -1.3925775   -0.0004564    5.7720543  
O   -2.1456383   -0.0005410    6.8851312  
C    0.0786232   -0.0009323    6.0245000  
O    0.4683759   -0.0012588    7.1921102  
C    1.0143166   -0.0008442    4.8859032  
H    2.1107198   -0.0000632    2.0421868  
H   -2.9622183    0.0003270    4.3293377  
H   -1.5042274   -0.0009692    7.6184419  
H    2.0724152   -0.0013148    5.1109744  
