62

C    0.9890825   -1.0745556   -9.5337148  
C    1.3874328   -0.6979388  -10.7954374  
C    1.1529382    0.7047971  -10.9047255  
C    0.6062177    1.1329893   -9.6679250  
N    0.5183080    0.0274013   -8.8588733  
C    0.2518974    2.4620723   -9.4173562  
C    0.4534371    3.3755937  -10.4337414  
O    0.1252360    4.6865856  -10.2424391  
C    0.9974198    2.9676152  -11.6748908  
O    1.1366427    3.9947944  -12.5853094  
C    1.3469426    1.6565608  -11.9228772  
H    1.7956670   -1.3537839  -11.5452421  
H   -0.1653657    2.7947886   -8.4769341  
H    0.3427229    5.1452459  -11.0643860  
H    1.5101456    3.6346033  -13.3954716  
H    1.7613149    1.3738048  -12.8835127  
H    1.0021921   -2.0423004   -9.0622736  
C    1.8886554   -2.0886686   -5.2633577  
C    0.9763566   -1.6271610   -4.3696034  
C    0.1009362   -0.7303189   -5.0866450  
C    0.5814328   -0.7070199   -6.4814108  
N    1.6673588   -1.5508189   -6.5221211  
C    0.0179872    0.0235611   -7.4766416  
C   -1.1387598    0.8416956   -7.1524079  
O   -1.7168203    1.5352810   -7.9788982  
C   -1.6645101    0.8324701   -5.6815895  
O   -2.6375203    1.5175331   -5.3966331  
C   -0.9736297    0.0040464   -4.6965763  
H    0.9228833   -1.8853691   -3.3269707  
H    2.7041548   -2.7762787   -5.1083002  
H    2.2136191   -1.7473804   -7.3406622  
C    1.1188642    0.0008222   -0.8003808  
C    0.0000000    0.0000000    0.0000000  
C   -1.1323862    0.0008899   -0.8673528  
C   -0.6382663    0.0019679   -2.1969280  
N    0.7324016    0.0038481   -2.1202242  
C   -1.4770914    0.0027318   -3.3154808  
C   -2.8395473    0.0020945   -3.0876857  
O   -3.7039201    0.0024425   -4.1440349  
C   -3.3517868    0.0013931   -1.7684331  
O   -4.7300497    0.0012366   -1.7073121  
C   -2.5248543    0.0009123   -0.6644817  
H    1.3576314   -0.0056167   -2.9057046  
H   -4.5940032    0.0021826   -3.7685128  
H   -4.9934602    0.0007259   -0.7819913  
H   -2.9462577    0.0005603    0.3339659  
H    2.1619895    0.0009355   -0.5342068  
C    2.5128556    2.1077716    2.9199648  
C    1.9592212    1.6432552    4.0696553  
C    0.8915788    0.7479214    3.6910360  
C    0.8684491    0.7287414    2.2159470  
N    1.8754542    1.5738793    1.8102719  
C    0.0000000    0.0000000    1.4700000  
C   -0.9772830   -0.8200135    2.1664417  
O   -1.8021297   -1.5120829    1.5842315  
C   -0.9711318   -0.8147624    3.7284083  
O   -1.7894187   -1.5009653    4.3257297  
C    0.0140216    0.0115358    4.4216297  
H    2.2638494    1.8988021    5.0689105  
H    0.0117648    0.0094386    5.5031631  
H    3.3327358    2.7953732    2.7900019  
H    2.1123206    1.7707734    0.8551938  
