64

C    0.6784435   -0.7158674   -5.1604806  
C   -0.1387074    0.0017015   -4.3179686  
C   -1.0481455    0.7301998   -5.1406544  
C   -0.7354107    0.4143962   -6.4876478  
N    0.3188400   -0.4645854   -6.4638959  
C   -1.4327204    0.9543845   -7.5725265  
C   -2.4647268    1.8288738   -7.2925120  
O   -3.1787621    2.3849177   -8.3142675  
C   -2.7916047    2.1566101   -5.9551429  
O   -3.8437008    3.0417139   -5.8410033  
C   -2.1039437    1.6244857   -4.8843985  
H    0.7522634   -0.8729856   -7.2721870  
H   -1.1991951    0.7178275   -8.6014617  
H   -3.8415771    2.9562089   -7.9049176  
H   -3.9995943    3.2099938   -4.9066674  
H   -2.3770359    1.8943253   -3.8709463  
H    1.4902653   -1.3859286   -4.9348208  
C    3.3041276    0.0001179   -1.5420426  
C    2.5845373   -0.0004778   -0.3695850  
C    1.2040008   -0.0000007   -0.7283588  
C    1.1422377    0.0006038   -2.1454370  
N    2.4348643    0.0026110   -2.6077459  
C   -0.0655176    0.0008796   -2.8497919  
C   -1.2321760    0.0002323   -2.1101404  
O   -2.4392811    0.0001143   -2.7472523  
C   -1.1911205   -0.0000006   -0.6955268  
O   -2.4371526   -0.0002322   -0.1032865  
C    0.0000000    0.0000000    0.0000000  
H    3.0031533   -0.0000657    0.6222587  
H    2.7054636   -0.0071097   -3.5745259  
H   -3.1132988   -0.0000651   -2.0551790  
H   -2.3200280   -0.0004074    0.8516406  
C    6.9078746   -0.0046874    1.0804419  
C    5.6166940   -0.0033829    0.6749426  
C    5.6800158   -0.0008175   -0.7784961  
C    7.1258520   -0.0008034   -1.0885636  
N    7.8505614   -0.0031472   -0.0028471  
C    7.6141451    0.0013759   -2.4401003  
C    6.6996211    0.0030581   -3.4365830  
O    7.0134402    0.0051823   -4.7433171  
C    5.2335535    0.0027210   -3.1558591  
O    4.4583001    0.0044512   -4.1119969  
C    4.7577225    0.0005133   -1.7610455  
H    4.7307117   -0.0041661    1.2865884  
H    8.6761784    0.0015401   -2.6375700  
H    6.1552207    0.0059583   -5.2044160  
H    7.2868910   -0.0066664    2.0900540  
C    2.5285572    2.1210227    2.9438989  
C    1.9331703    1.6216660    4.0790748  
C    0.8903039    0.7472258    3.6520102  
C    0.8972198    0.7527806    2.2336141  
N    1.9028376    1.5986179    1.8362361  
C    0.0000000    0.0000000    1.4700000  
C   -0.9207814   -0.7726952    2.1506477  
O   -1.8198395   -1.5274828    1.4542253  
C   -0.9436862   -0.7911793    3.5655508  
O   -1.9197945   -1.6098497    4.0950179  
C   -0.0590329   -0.0485852    4.3195194  
H    2.2150357    1.8593692    5.0905303  
H    2.1533708    1.7953814    0.8841339  
H   -2.3621246   -1.9821033    2.1118817  
H   -1.8668290   -1.5649508    5.0545920  
H   -0.1007624   -0.0827977    5.4019087  
H    3.3491200    2.8096064    2.8367138  
