62

C    1.7817202   -2.3712644   -7.2517151  
C    1.3492431   -1.0679433   -7.3340839  
C    2.1234740   -0.4358768   -8.3517568  
C    3.0195137   -1.4113129   -8.8592637  
N    2.7868107   -2.5744287   -8.1681577  
C    3.9367224   -1.1381813   -9.8785356  
C    3.9494105    0.1429040  -10.3950990  
O    4.8247666    0.4636916  -11.3920241  
C    3.0634390    1.1300081   -9.9016460  
O    3.1988207    2.3566934  -10.5182962  
C    2.1585121    0.8613373   -8.8959375  
H    3.2658673   -3.4440115   -8.3175294  
H    4.6224050   -1.8771651  -10.2696180  
H    4.6695252    1.3935700  -11.6029520  
H    2.5648962    2.9654517  -10.1269431  
H    1.4925007    1.6378585   -8.5382775  
H    1.4537383   -3.1716242   -6.6107696  
C    0.0902056   -0.6999990   -5.1620330  
C   -0.9736297    0.0040464   -4.6965763  
C   -1.5078553    0.7471499   -5.8133733  
C   -0.6620043    0.4159215   -6.9759624  
N    0.2881862   -0.4654794   -6.5142695  
C   -0.8409762    0.9165753   -8.2245694  
C   -1.9398966    1.8436895   -8.4375671  
O   -2.1836163    2.3491297   -9.5254237  
C   -2.8482828    2.2087976   -7.2204658  
O   -3.7763827    2.9885181   -7.3875803  
C   -2.5561683    1.6045646   -5.9229975  
H   -0.2091452    0.6605473   -9.0637052  
H   -3.1899802    1.8623998   -5.0854247  
H    0.7463588   -1.3702751   -4.6309189  
C    1.1188642    0.0008222   -0.8003808  
C    0.0000000    0.0000000    0.0000000  
C   -1.1323862    0.0008899   -0.8673528  
C   -0.6382663    0.0019679   -2.1969280  
N    0.7324016    0.0038481   -2.1202242  
C   -1.4770914    0.0027318   -3.3154808  
C   -2.8395473    0.0020945   -3.0876857  
O   -3.7039201    0.0024425   -4.1440349  
C   -3.3517868    0.0013931   -1.7684331  
O   -4.7300497    0.0012366   -1.7073121  
C   -2.5248543    0.0009123   -0.6644817  
H    1.3576314   -0.0056167   -2.9057046  
H   -4.5940032    0.0021826   -3.7685128  
H   -4.9934602    0.0007259   -0.7819913  
H   -2.9462577    0.0005603    0.3339659  
H    2.1619895    0.0009355   -0.5342068  
C    2.4951002    2.0940188    2.9809380  
C    1.9440701    1.6314916    1.8291961  
C    0.8759964    0.7350050    2.2038498  
C    0.8497377    0.7130254    3.6788474  
N    1.8560616    1.5571714    4.0882609  
C   -0.0205033   -0.0168748    4.4215661  
C   -0.9962600   -0.8356168    3.7214979  
O   -1.8224391   -1.5286685    4.3006425  
C   -0.9864710   -0.8277881    2.1595606  
O   -1.8030528   -1.5133726    1.5592035  
C    0.0000000    0.0000000    1.4700000  
H    2.2509283    1.8888011    0.8310761  
H   -0.0229599   -0.0187323    5.5027230  
H    3.3143982    2.7817323    3.1139444  
H    2.0889452    1.7545833    5.0442112  
