60

C    5.7392200   -3.0384848   -7.7179023  
C    4.9086805   -2.3542147   -6.8609050  
C    4.9241273   -0.9874876   -7.2688498  
C    5.7888260   -0.8974109   -8.3896130  
N    6.2682721   -2.1602552   -8.6345076  
C    6.0429136    0.3062738   -9.0539699  
C    5.4123744    1.4396202   -8.5784458  
O    5.6248085    2.6412122   -9.1900520  
C    4.5463918    1.3700471   -7.4612847  
O    3.9951872    2.5846487   -7.1087799  
C    4.2954760    0.1829702   -6.8052229  
H    4.3601359   -2.7867176   -6.0417388  
H    6.8970439   -2.4084776   -9.3768099  
H    6.7010017    0.3816090   -9.9086323  
H    5.0974894    3.2905697   -8.7067989  
H    3.4239420    2.4496487   -6.3465087  
H    5.9971960   -4.0832639   -7.7469636  
C    4.6014566   -2.0165231   -3.0560761  
C    3.4769384   -1.6328845   -2.4081116  
C    2.8127343   -0.7151038   -3.3208061  
C    3.6989100   -0.6588454   -4.5032234  
N    4.7490140   -1.4197419   -4.3538651  
C    3.3894066    0.1527210   -5.6480614  
C    2.2463721    0.8749435   -5.6134073  
O    1.8335167    1.6749948   -6.6111590  
C    1.3311609    0.8390162   -4.4347394  
O    0.3078533    1.5221557   -4.4719306  
C    1.6707636   -0.0012343   -3.2725974  
H    3.1397620   -1.9354141   -1.4314521  
H    0.9923242    2.0514417   -6.2951910  
H    5.3663744   -2.6952862   -2.7137966  
C    1.0965514    0.0001358   -0.8010306  
C    0.0000000    0.0000000    0.0000000  
C   -1.1546565    0.0001470   -0.8669508  
C   -0.6372019    0.0003520   -2.2486278  
N    0.7342867    0.0007338   -2.1395012  
C   -1.4147744    0.0001354   -3.3608712  
C   -2.8576052   -0.0001047   -3.1854454  
O   -3.6427785   -0.0002490   -4.1244896  
C   -3.4275841   -0.0000727   -1.7311660  
O   -4.6406832    0.0000333   -1.5710049  
C   -2.4891868   -0.0001090   -0.6116739  
H   -1.0150456    0.0001617   -4.3654239  
H   -2.8919122   -0.0002919    0.3920871  
H    2.1388270    0.0000663   -0.5261650  
C    0.0000000    0.0000000    1.4700000  
C    1.0662921    0.0000102    2.3034270  
C    0.4961870   -0.0000064    3.6418889  
C   -0.9663858    0.0000850    3.4240247  
N   -1.2632773    0.0000084    2.1528658  
C   -1.8985362    0.0000517    4.5177257  
C   -1.3925775   -0.0004564    5.7720543  
O   -2.1456383   -0.0005410    6.8851312  
C    0.0786232   -0.0009323    6.0245000  
O    0.4683759   -0.0012588    7.1921102  
C    1.0143166   -0.0008442    4.8859032  
H    2.1107198   -0.0000632    2.0421868  
H   -2.9622183    0.0003270    4.3293377  
H   -1.5042274   -0.0009692    7.6184419  
H    2.0724152   -0.0013148    5.1109744  
