60

C    5.9395158   -0.7070029   -0.9369190  
C    6.6388173   -0.4571101    0.2210962  
C    7.6864367    0.4514504   -0.1129855  
C    7.5752060    0.7228428   -1.5007538  
N    6.5055040    0.0019695   -1.9705360  
C    8.4474624    1.5822381   -2.1755851  
C    9.4500891    2.1787634   -1.4359381  
O   10.3291987    3.0269652   -2.0448156  
C    9.5775834    1.9202369   -0.0503960  
O   10.6263375    2.5896213    0.5457437  
C    8.7176041    1.0723240    0.6159413  
H    6.4213583   -0.8787588    1.1874902  
H    8.3681138    1.7931206   -3.2331456  
H   10.9385092    3.3277589   -1.3581362  
H   10.6419333    2.3600859    1.4799143  
H    8.8401718    0.8934889    1.6777665  
H    5.0826638   -1.3359839   -1.1076415  
C    2.4521485    0.0014838   -3.7217479  
C    3.5087829    0.0013023   -2.8687536  
C    4.7039154    0.0022084   -3.6789958  
C    4.2537131    0.0029671   -5.0840252  
N    2.8785576    0.0020813   -5.0411853  
C    5.0840337    0.0043213   -6.1574641  
C    6.5167228    0.0048564   -5.9126426  
O    7.3462800    0.0060004   -6.8127172  
C    7.0158851    0.0038175   -4.4325611  
O    8.2198465    0.0039492   -4.2140686  
C    6.0245775    0.0026616   -3.3596400  
H    3.4569040    0.0004300   -1.7945464  
H    4.7332280    0.0049887   -7.1801302  
H    2.2773150    0.0038584   -5.8446475  
C    0.0000000    0.0000000    0.0000000  
C    1.0662924   -0.0000102   -0.8334267  
C    0.4961874    0.0000064   -2.1718888  
C   -0.9663853   -0.0000849   -1.9540250  
N   -1.2632772   -0.0000084   -0.6828660  
C   -1.8985357   -0.0000515   -3.0477261  
C   -1.3925767    0.0004566   -4.3020548  
O   -2.1456375    0.0005411   -5.4151316  
C    0.0786242    0.0009324   -4.5545000  
O    0.4683770    0.0012590   -5.7221099  
C    1.0143173    0.0008443   -3.4159029  
H    2.1107200    0.0000632   -0.5721862  
H   -2.9622180   -0.0003269   -2.8593382  
H   -1.5042262    0.0009694   -6.1484423  
C    1.1319247   -0.0015655    2.2709268  
C    0.7969915   -0.0034943    3.5869401  
C   -0.6453339   -0.0035710    3.6542670  
C   -1.1266833   -0.0015433    2.2596025  
N    0.0000000    0.0000000    1.4700000  
C   -2.4346130   -0.0013964    1.8976294  
C   -3.4350110   -0.0031408    2.9520183  
O   -4.6384611   -0.0030974    2.7283916  
C   -2.9478959   -0.0050506    4.4361073  
O   -3.7809380   -0.0062218    5.3323774  
C   -1.5113823   -0.0053090    4.7012123  
H    1.4821238   -0.0045407    4.4159191  
H   -2.7664565   -0.0000232    0.8686553  
H   -1.1823530   -0.0068408    5.7314848  
H    2.1104316   -0.0009391    1.8188057  
