60

C    0.7637306   -1.1294743   -9.5407907  
C    0.3445018   -0.0471763   -8.8023151  
C    0.3900471    1.0880976   -9.6646831  
C    0.8483251    0.6332920  -10.9276397  
N    1.0676271   -0.7173830  -10.8171833  
C    1.0150430    1.4855122  -12.0234121  
C    0.7133510    2.8211338  -11.8409963  
O    0.8578599    3.6969595  -12.8778469  
C    0.2551515    3.2940840  -10.5883243  
O   -0.0023173    4.6492823  -10.5661948  
C    0.0907039    2.4539647   -9.5068058  
H    1.3869313   -1.3159294  -11.5572962  
H    1.3640811    1.1451289  -12.9885598  
H    0.5976348    4.5641876  -12.5410050  
H   -0.3070018    4.8866348   -9.6850400  
H   -0.2617844    2.8451355   -8.5595915  
H    0.8713793   -2.1625197   -9.2576163  
C    1.7744465   -2.1336757   -5.1326806  
C    1.6746906   -1.7240761   -6.4187041  
C    0.5405883   -0.8130121   -6.4352715  
C    0.0614875   -0.7888183   -5.0365362  
N    0.7809200   -1.5609931   -4.2683222  
C   -1.0641734    0.0073898   -4.6315339  
C   -1.6828407    0.7461571   -5.5806432  
O   -2.7449526    1.5348086   -5.3440237  
C   -1.2228401    0.7432051   -7.0006965  
O   -1.8334832    1.4397966   -7.8113106  
C   -0.0658191   -0.0818758   -7.3911694  
H    2.2942506   -2.0053653   -7.2530286  
H   -2.9590927    1.9284666   -6.2090847  
H    2.4922210   -2.8167588   -4.7070386  
C    1.1319248    0.0015675   -0.8009270  
C    0.7969916    0.0034959   -2.1169404  
C   -0.6453336    0.0035703   -2.1842672  
C   -1.1266831    0.0015415   -0.7896027  
N    0.0000000    0.0000000    0.0000000  
C   -2.4346129    0.0013924   -0.4276297  
C   -3.4350110    0.0031352   -1.4820184  
O   -4.6384610    0.0030897   -1.2583919  
C   -2.9478958    0.0050460   -2.9661075  
O   -3.7809377    0.0062160   -3.8623775  
C   -1.5113821    0.0053068   -3.2312125  
H    1.4821240    0.0045436   -2.9459192  
H   -2.7664565    0.0000185    0.6013447  
H    2.1104318    0.0009428   -0.3488058  
C    0.0000000    0.0000000    1.4700000  
C    1.0662921    0.0000102    2.3034270  
C    0.4961870   -0.0000064    3.6418889  
C   -0.9663858    0.0000850    3.4240247  
N   -1.2632773    0.0000084    2.1528658  
C   -1.8985362    0.0000517    4.5177257  
C   -1.3925775   -0.0004564    5.7720543  
O   -2.1456383   -0.0005410    6.8851312  
C    0.0786232   -0.0009323    6.0245000  
O    0.4683759   -0.0012588    7.1921102  
C    1.0143166   -0.0008442    4.8859032  
H    2.1107198   -0.0000632    2.0421868  
H   -2.9622183    0.0003270    4.3293377  
H   -1.5042274   -0.0009692    7.6184419  
H    2.0724152   -0.0013148    5.1109744  
