60

C    3.4477356   -2.1126415   -4.5281485  
C    4.6734353   -1.6135448   -4.9036874  
C    4.4463317   -0.7381895   -6.0067638  
C    3.0509699   -0.7429439   -6.2614574  
N    2.4746416   -1.5892047   -5.3469593  
C    2.4661808    0.0108488   -7.2835173  
C    3.3052513    0.7837517   -8.0624655  
O    2.7868417    1.5395141   -9.0739434  
C    4.7001331    0.8014477   -7.8241212  
O    5.4008335    1.6204474   -8.6852839  
C    5.2777634    0.0578552   -6.8161828  
H    5.6154869   -1.8520039   -4.4403630  
H    1.4925858   -1.7855895   -5.2763892  
H    3.5333975    1.9941116   -9.4853564  
H    6.3341766    1.5749699   -8.4563586  
H    6.3493079    0.0914804   -6.6576288  
H    3.1908113   -2.8016933   -3.7419201  
C   -1.0641738    0.0073911   -4.6315339  
C    0.2004553    0.0078183   -5.1262942  
C    0.0892951    0.0101562   -6.5659028  
C   -1.3541077    0.0110918   -6.8714810  
N   -1.9986529    0.0089309   -5.6559783  
C   -1.8747034    0.0136545   -8.1247478  
C   -0.9518127    0.0153967   -9.2476040  
O   -1.3222275    0.0176759  -10.4142612  
C    0.5810421    0.0141943   -8.9473384  
O    1.3676723    0.0153351   -9.8846077  
C    1.0213768    0.0116830   -7.5545176  
H    1.1076402    0.0064487   -4.5486895  
H   -2.9367621    0.0144294   -8.3270860  
H   -2.9945000    0.0104949   -5.5321491  
C    1.1319245    0.0015656   -0.8009271  
C    0.7969914    0.0034943   -2.1169404  
C   -0.6453340    0.0035712   -2.1842672  
C   -1.1266833    0.0015434   -0.7896027  
N    0.0000000    0.0000000    0.0000000  
C   -2.4346131    0.0013965   -0.4276296  
C   -3.4350110    0.0031409   -1.4820182  
O   -4.6384610    0.0030975   -1.2583916  
C   -2.9478961    0.0050507   -2.9661073  
O   -3.7809383    0.0062220   -3.8623773  
C   -1.5113824    0.0053091   -3.2312124  
H    1.4821237    0.0045409   -2.9459193  
H   -2.7664564    0.0000233    0.6013449  
H    2.1104315    0.0009392   -0.3488061  
C    0.8400945    0.7047457    2.2710304  
C    0.0000000    0.0000000    1.4700000  
C   -0.8844236   -0.7423113    2.3369512  
C   -0.4878984   -0.4098547    3.7186280  
N    0.5629682    0.4714286    3.6095011  
C   -1.0836927   -0.9095027    4.8308716  
C   -2.1891196   -1.8367527    4.6554461  
O   -2.7906899   -2.3413415    5.5944904  
C   -2.6257283   -2.2031529    3.2011665  
O   -3.5549479   -2.9829990    3.0410059  
C   -1.9068976   -1.5999348    2.0816745  
H   -0.7774656   -0.6525820    5.8354244  
H   -2.2155208   -1.8586617    1.0779135  
H    1.6384792    1.3747609    1.9961646  
H    1.0518368    0.8833920    4.3830260  
