60

C    2.1323092   -4.5552752   -7.2237889  
C    2.6513664   -4.3438305   -8.4801083  
C    2.3889120   -2.9824553   -8.8153312  
C    1.7015107   -2.4080841   -7.7155577  
N    1.5604406   -3.3907909   -6.7673991  
C    1.2838546   -1.0739009   -7.6980018  
C    1.5655206   -0.3054633   -8.8108118  
O    1.1806549    1.0035942   -8.8463192  
C    2.2500728   -0.8605815   -9.9180837  
O    2.4552127    0.0325028  -10.9494228  
C    2.6621583   -2.1767817   -9.9362019  
H    3.1560037   -5.0805167   -9.0814641  
H    1.1205211   -3.2748483   -5.8724080  
H    1.4707960    1.3504347   -9.7000072  
H    2.9231046   -0.4218807  -11.6566824  
H    3.1844054   -2.5740822  -10.7986913  
H    2.1235075   -5.4449914   -6.6177481  
C    0.8518586   -0.7041561   -5.2251428  
C    0.0139741    0.0003876   -4.4216236  
C   -0.8729886    0.7427329   -5.2859478  
C   -0.4803619    0.4105163   -6.6687950  
N    0.5709013   -0.4706744   -6.5627858  
C   -1.0793694    0.9102632   -7.7792669  
C   -2.1843879    1.8373742   -7.6005633  
O   -2.7886791    2.3420362   -8.5378192  
C   -2.6168948    2.2035197   -6.1449948  
O   -3.5457350    2.9832468   -5.9820782  
C   -1.8948203    1.6002142   -5.0276394  
H   -0.7759753    0.6535189   -8.7847240  
H   -2.2006131    1.8587645   -4.0229668  
H    1.6510907   -1.3741286   -4.9526464  
C    3.2798085    0.0005853   -1.4499648  
C    2.5571144    0.0005562   -2.5996554  
C    1.1637436    0.0001546   -2.2210360  
C    1.1336965   -0.0000201   -0.7459470  
N    2.4483513   -0.0001430   -0.3402717  
C    0.0000000    0.0000000    0.0000000  
C   -1.2757367   -0.0000188   -0.6964414  
O   -2.3524597   -0.0000640   -0.1142313  
C   -1.2676494   -0.0000875   -2.2584081  
O   -2.3355762   -0.0004102   -2.8557294  
C    0.0181562    0.0001757   -2.9516296  
H    2.9547357    0.0006072   -3.5989105  
H    4.3498550    0.0008609   -1.3200021  
H    2.7563627    0.0012824    0.6148063  
C    0.8681109    0.7263879    2.2709268  
C    0.6127770    0.5096195    3.5869401  
C   -0.4920590   -0.4175482    3.6542670  
C   -0.8620974   -0.7254003    2.2596025  
N    0.0000000    0.0000000    1.4700000  
C   -1.8641242   -1.5660088    1.8976294  
C   -2.6293522   -2.2103885    2.9520183  
O   -3.5512764   -2.9839180    2.7283916  
C   -2.2549728   -1.8987399    4.4361073  
O   -2.8923672   -2.4351063    5.3323774  
C   -1.1543735   -0.9755647    4.7012123  
H    1.1382914    0.9492124    4.4159191  
H   -2.1192137   -1.7782617    0.8686553  
H   -0.9013378   -0.7652422    5.7314848  
H    1.6172880    1.3558399    1.8188057  
