64

C   -0.9617875   -0.3753171   -9.4005635  
C   -0.7944715   -0.2273039  -10.7579748  
C   -1.0287875    1.1471459  -11.0589453  
C   -1.3372919    1.7944751   -9.8351336  
N   -1.2897538    0.8409139   -8.8486853  
C   -1.6250493    3.1602457   -9.7535495  
C   -1.6006359    3.8858173  -10.9287630  
O   -1.8736601    5.2229646  -10.9062198  
C   -1.2953805    3.2578133  -12.1597162  
O   -1.3117342    4.1153572  -13.2403159  
C   -1.0116660    1.9104353  -12.2409863  
H   -0.5364775   -1.0135035  -11.4466860  
H   -1.8610728    3.6595484   -8.8239306  
H   -1.8035349    5.5313864  -11.8190296  
H   -1.0954438    3.6121258  -14.0312531  
H   -0.7815761    1.4571849  -13.1981178  
H   -0.8745324   -1.2525051   -8.7825940  
C    0.6886136   -0.7127578   -5.1524953  
C    0.3429599   -0.4594672   -6.4597191  
C   -0.7496431    0.4570569   -6.4313873  
C   -1.0290376    0.7295804   -5.0677170  
N   -0.1387079    0.0017019   -4.3179684  
C   -2.0489470    1.5961569   -4.6632196  
C   -2.8003034    2.1988324   -5.6533833  
O   -3.8084272    3.0541734   -5.3141317  
C   -2.5370523    1.9392947   -7.0194561  
O   -3.3723026    2.6153585   -7.8846948  
C   -1.5312220    1.0842998   -7.4192258  
H    0.8189629   -0.8840145   -7.3269991  
H   -2.2670313    1.8079400   -3.6255351  
H   -4.1991464    3.3583755   -6.1436281  
H   -3.1276597    2.3846381   -8.7860943  
H    1.4589107   -1.3476357   -4.7493432  
C    3.3041273    0.0001178   -1.5420428  
C    2.5845373   -0.0004780   -0.3695851  
C    1.2040007   -0.0000007   -0.7283589  
C    1.1422374    0.0006038   -2.1454372  
N    2.4348641    0.0026111   -2.6077464  
C   -0.0655179    0.0008799   -2.8497918  
C   -1.2321766    0.0002325   -2.1101402  
O   -2.4392814    0.0001148   -2.7472522  
C   -1.1911209   -0.0000007   -0.6955266  
O   -2.4371528   -0.0002320   -0.1032862  
C    0.0000000    0.0000000    0.0000000  
H    3.0031533   -0.0000660    0.6222584  
H    2.7054631   -0.0071097   -3.5745261  
H   -3.1132988   -0.0000648   -2.0551787  
H   -2.3200282   -0.0004072    0.8516409  
H    4.3686625    0.0004073   -1.7024290  
C    0.8175213    0.6860729    2.3021913  
C    0.0000000    0.0000000    1.4700000  
C   -0.8887526   -0.7456559    2.3478473  
C   -0.4549825   -0.3816753    3.7138435  
N    0.5448156    0.4573574    3.6934124  
C   -1.0945674   -0.9182058    4.8835240  
C   -2.1210866   -1.7789155    4.6970523  
O   -2.8083856   -2.3554314    5.6976972  
C   -2.5824069   -2.1655116    3.3310774  
O   -3.5227682   -2.9541547    3.2362962  
C   -1.9100805   -1.6015804    2.1470656  
H   -0.7567140   -0.6349833    5.8697035  
H   -3.4728268   -2.9124471    5.2533954  
H   -2.2742832   -1.9066565    1.1752040  
H    1.6189533    1.3585343    2.0405121  
