62

C   -3.3003090   -0.0171687   -1.4738997  
C   -2.5232464   -0.0130727   -2.6090755  
C   -1.1623051   -0.0057288   -2.1820104  
C   -1.1711731   -0.0059637   -0.7636142  
N   -2.4852058   -0.0110393   -0.3662366  
C    0.0000000    0.0000000    0.0000000  
C    1.2020235    0.0060090   -0.6806472  
O    2.3758965    0.0116306    0.0157757  
C    1.2314485    0.0067205   -2.0955503  
O    2.5054043    0.0134367   -2.6250165  
C    0.0764482    0.0011127   -2.8495194  
H   -2.8919602   -0.0140202   -3.6205310  
H   -2.8035463   -0.0229546    0.5858655  
H    3.0835257    0.0155133   -0.6418803  
H    2.4359703    0.0134356   -3.5845910  
H    0.1304025    0.0019997   -3.9319083  
C   -6.5322608   -0.0358339   -4.4466898  
C   -7.6042747   -0.0405540   -3.6131201  
C   -7.0888190   -0.0370711   -2.2643692  
C   -5.6180856   -0.0298542   -2.3813360  
N   -5.3453136   -0.0298416   -3.7298482  
C   -4.7629867   -0.0244920   -1.3275418  
C   -5.3289504   -0.0261503    0.0111956  
O   -4.6424445   -0.0217509    1.0246013  
C   -6.8839412   -0.0340120    0.1586628  
O   -7.3719662   -0.0357787    1.2807542  
C   -7.7017225   -0.0390465   -1.0517345  
H   -8.7775633   -0.0442741   -0.9409923  
H   -6.5094774   -0.0364457   -5.5243587  
H   -4.4256657   -0.0241002   -4.1314209  
C   -9.5525280   -0.7563158   -5.0456000  
C   -9.0174196   -0.0480682   -4.0179237  
C  -10.0981787    0.6891877   -3.4069826  
C  -11.3155250    0.3499481   -4.1684118  
N  -10.9167355   -0.5300361   -5.1479445  
C  -12.5513689    0.8434904   -3.9023089  
C  -12.6918709    1.7708572   -2.7920003  
O  -13.7628307    2.2702216   -2.4726534  
C  -11.4159407    2.1443833   -1.9720692  
O  -11.5218418    2.9243926   -1.0352497  
C  -10.1387191    1.5473947   -2.3543791  
H  -13.4314291    0.5816508   -4.4731361  
H   -9.2600889    1.8110348   -1.7814676  
H   -9.0650159   -1.4243628   -5.7369285  
H  -11.5236168   -0.9456086   -5.8306174  
C    2.5311839    2.1237619    3.0120429  
C    1.9795631    1.6616747    1.8395852  
C    0.9223175    0.7739173    2.1983588  
C    0.8753926    0.7337535    3.6154372  
N    1.8668922    1.5631002    4.0777464  
C   -0.0496243   -0.0427881    4.3197917  
C   -0.9437528   -0.7922060    3.5801400  
O   -1.8685244   -1.5680278    4.2172520  
C   -0.9124520   -0.7656372    2.1655264  
O   -1.8671164   -1.5663939    1.5732860  
C    0.0000000    0.0000000    1.4700000  
H    2.3005065    1.9304404    0.8477417  
H    2.0679347    1.7444845    5.0445261  
H   -0.0904770   -0.0778569    5.3997470  
H   -2.3849669   -2.0011402    3.5251786  
H   -1.7775064   -1.4909735    0.6183591  
H    3.3468514    2.8078103    3.1724291  
