60

C    6.9395093   -3.3919413   -7.1808073  
C    6.4538005   -2.1278445   -6.9387052  
C    6.9287336   -1.2906392   -7.9913802  
C    7.7054273   -2.1062622   -8.8536055  
N    7.6928874   -3.3757505   -8.3312453  
C    8.3312239   -1.6116646  -10.0018833  
C    8.1697640   -0.2693104  -10.2850686  
O    8.7588718    0.2656558  -11.3940225  
C    7.3989204    0.5607230   -9.4367409  
O    7.3334051    1.8740841   -9.8540345  
C    6.7814960    0.0735268   -8.3036252  
H    8.1507886   -4.1734593   -8.7336993  
H    8.9246376   -2.2280461  -10.6630444  
H    8.5230838    1.2024482  -11.4034309  
H    6.7948237    2.3660247   -9.2267159  
H    6.1975066    0.7335018   -7.6728578  
H    6.8093299   -4.3035215   -6.6231043  
C    5.7075972   -2.1458903   -4.5134258  
C    5.6080286   -1.7400307   -5.8006494  
C    4.4743456   -0.8284975   -5.8198979  
C    3.9952577   -0.7999674   -4.4212399  
N    4.7143360   -1.5702093   -3.6507568  
C    2.8699641   -0.0020530   -4.0185824  
C    2.2516352    0.7342029   -4.9698613  
O    1.1898872    1.5240358   -4.7355640  
C    2.7116330    0.7268602   -6.3898996  
O    2.1013094    1.4213443   -7.2025607  
C    3.8682736   -0.0998984   -6.7779432  
H    0.9759268    1.9152451   -5.6017793  
H    4.1702386   -0.0775579   -7.8164742  
H    6.4250582   -2.8280480   -4.0857759  
C    3.2573670   -0.0002921   -1.5109382  
C    2.5379468   -0.0001711   -0.3591962  
C    1.1435043    0.0000330   -0.7338498  
C    1.1092608   -0.0000085   -2.2088474  
N    2.4227562    0.0001906   -2.6182610  
C   -0.0265533   -0.0002525   -2.9515663  
C   -1.3003033   -0.0002641   -2.2514979  
O   -2.3786785   -0.0004132   -2.8306425  
C   -1.2877724    0.0000310   -0.6895608  
O   -2.3539956    0.0003306   -0.0892035  
C    0.0000000    0.0000000    0.0000000  
H    2.9384091   -0.0000370    0.6389240  
H   -0.0296290   -0.0004088   -4.0327231  
H    4.3270394   -0.0004767   -1.6439445  
C    2.4951002    2.0940188    2.9809380  
C    1.9440701    1.6314916    1.8291961  
C    0.8759964    0.7350050    2.2038498  
C    0.8497377    0.7130254    3.6788474  
N    1.8560616    1.5571714    4.0882609  
C   -0.0205033   -0.0168748    4.4215661  
C   -0.9962600   -0.8356168    3.7214979  
O   -1.8224391   -1.5286685    4.3006425  
C   -0.9864710   -0.8277881    2.1595606  
O   -1.8030528   -1.5133726    1.5592035  
C    0.0000000    0.0000000    1.4700000  
H    2.2509283    1.8888011    0.8310761  
H   -0.0229599   -0.0187323    5.5027230  
H    3.3143982    2.7817323    3.1139444  
H    2.0889452    1.7545833    5.0442112  
