62

C    0.8852651   -0.7074224   -5.2161081  
C    0.5993479   -0.4569338   -6.5382184  
C   -0.5006908    0.4507935   -6.5615734  
C   -0.8459774    0.7210872   -5.2126308  
N    0.0139746    0.0003883   -4.4216235  
C   -1.8906661    1.5794580   -4.8568025  
C   -2.5995120    2.1760697   -5.8813861  
O   -3.6292747    3.0232984   -5.5901738  
C   -2.2703418    1.9186314   -7.2334922  
O   -3.0694396    2.5879581   -8.1372551  
C   -1.2400308    1.0717294   -7.5852626  
H    1.1189326   -0.8776614   -7.3820272  
H   -2.1589204    1.7895004   -3.8305844  
H   -3.9830433    3.3243423   -6.4372189  
H   -2.7809036    2.3591936   -9.0260844  
H   -1.0112977    0.8937151   -8.6295177  
H    1.6408477   -1.3360923   -4.7769872  
C    3.2798087    0.0005858   -1.4499643  
C    2.5571149    0.0005569   -2.5996548  
C    1.1637440    0.0001551   -2.2210358  
C    1.1336966   -0.0000198   -0.7459468  
N    2.4483512   -0.0001426   -0.3402714  
C    0.0000000    0.0000000    0.0000000  
C   -1.2757369   -0.0000185   -0.6964416  
O   -2.3524599   -0.0000639   -0.1142315  
C   -1.2676492   -0.0000870   -2.2584080  
O   -2.3355760   -0.0004099   -2.8557298  
C    0.0181565    0.0001762   -2.9516296  
H    2.9547360    0.0006079   -3.5989102  
H    2.7563627    0.0012824    0.6148067  
C    5.6938832    0.0016106   -2.2318618  
C    4.7390849    0.0009618   -1.2727274  
C    5.4706531    0.0008618   -0.0152269  
C    6.8949566    0.0014088   -0.4126483  
N    7.0320421    0.0019300   -1.7107996  
C    7.9554499    0.0015324    0.5571149  
C    7.6088221    0.0015170    1.8644724  
O    8.4940069    0.0016155    2.8756539  
C    6.1802426    0.0013422    2.2972781  
O    5.9381794    0.0012136    3.5041854  
C    5.1106700    0.0011738    1.2834044  
H    8.9875895    0.0017291    0.2383712  
H    7.9484088    0.0016000    3.6827939  
H    4.0886166    0.0011653    1.6378566  
H    5.5602509    0.0018875   -3.3019625  
C    2.5285572    2.1210227    2.9438989  
C    1.9331703    1.6216660    4.0790748  
C    0.8903039    0.7472258    3.6520102  
C    0.8972198    0.7527806    2.2336141  
N    1.9028376    1.5986179    1.8362361  
C    0.0000000    0.0000000    1.4700000  
C   -0.9207814   -0.7726952    2.1506477  
O   -1.8198395   -1.5274828    1.4542253  
C   -0.9436862   -0.7911793    3.5655508  
O   -1.9197945   -1.6098497    4.0950179  
C   -0.0590329   -0.0485852    4.3195194  
H    2.2150357    1.8593692    5.0905303  
H    2.1533708    1.7953814    0.8841339  
H   -2.3621246   -1.9821033    2.1118817  
H   -1.8668290   -1.5649508    5.0545920  
H   -0.1007624   -0.0827977    5.4019087  
H    3.3491200    2.8096064    2.8367138  
