64

C   -3.2578654    0.0024039   -2.9908509  
C   -4.0349373    0.0043588   -1.8556756  
C   -5.3958979    0.0056181   -2.2827405  
C   -5.3870306    0.0040491   -3.7011359  
N   -4.0729890    0.0040658   -4.0985153  
C   -6.5582196    0.0043938   -4.4647492  
C   -7.7602568    0.0060512   -3.7841020  
O   -8.9341430    0.0061074   -4.4805241  
C   -7.7896824    0.0080078   -2.3692002  
O   -9.0636548    0.0099264   -1.8397338  
C   -6.6346680    0.0079422   -1.6152321  
H   -3.6662215    0.0059256   -0.8442214  
H   -3.7546018   -0.0074431   -5.0506065  
H   -6.5582203    0.0033486   -5.5460455  
H   -9.6417817    0.0076768   -3.8228681  
H   -8.9942195    0.0111423   -0.8801604  
C    0.0000000    0.0000000    0.0000000  
C    1.0521666   -0.0011902   -0.8862343  
C    0.4917218   -0.0011958   -2.1979130  
C   -0.9187430    0.0003147   -2.0478683  
N   -1.1833172   -0.0009412   -0.7007915  
C   -1.7951704    0.0010350   -3.1372092  
C   -1.2375841    0.0005223   -4.4010425  
O   -2.0474217    0.0015359   -5.4997579  
C    0.1673583   -0.0013568   -4.5711966  
O    0.5673521   -0.0020690   -5.8915552  
C    1.0325768   -0.0023414   -3.4969890  
H    2.0953062   -0.0030650   -0.6200564  
H   -2.0989777    0.0102372   -0.2891825  
H   -1.4634887    0.0006496   -6.2693596  
H    1.5290715   -0.0033156   -5.9180049  
H    2.1042153   -0.0039611   -3.6584457  
C   -4.2543504    2.1339779    1.5158574  
C   -4.7473995    1.6705816    0.3180953  
C   -5.8221312    0.7844233    0.6251384  
C   -5.9395936    0.7465392    2.0381824  
N   -4.9714677    1.5756454    2.5480187  
C   -6.8993491   -0.0279879    2.6967916  
C   -7.7563318   -0.7776977    1.9146834  
O   -8.7124938   -1.5516113    2.5061441  
C   -7.6546110   -0.7533894    0.5033437  
O   -8.5794488   -1.5541465   -0.1344719  
C   -6.7078561    0.0102594   -0.1470570  
H   -4.3771895    1.9374701   -0.6569474  
H   -4.8186173    1.7583571    3.5233312  
H   -6.9939565   -0.0613143    3.7734255  
H   -9.1942947   -1.9853096    1.7898774  
H   -8.4423257   -1.4803190   -1.0838668  
H   -3.4469599    2.8174817    1.7156123  
C    3.2798086   -0.0005857    2.9199648  
C    2.5571146   -0.0005566    4.0696553  
C    1.1637436   -0.0001548    3.6910360  
C    1.1336965    0.0000200    2.2159470  
N    2.4483514    0.0001428    1.8102719  
C    0.0000000    0.0000000    1.4700000  
C   -1.2757367    0.0000186    2.1664417  
O   -2.3524596    0.0000640    1.5842315  
C   -1.2676493    0.0000873    3.7284083  
O   -2.3355761    0.0004100    4.3257297  
C    0.0181563   -0.0001760    4.4216297  
H    2.9547357   -0.0006076    5.0689105  
H    0.0150794   -0.0003319    5.5031631  
H    4.3498549   -0.0008612    2.7900019  
H    2.7563627   -0.0012824    0.8551938  
