62

C    7.8763444   -3.6528106   -4.6599359  
C    8.5996105   -4.4751517   -3.8274033  
C    8.0147038   -4.3730852   -2.5304586  
C    6.9287847   -3.4664277   -2.6337959  
N    6.8739519   -3.0464152   -3.9396290  
C    6.1215305   -3.1259431   -1.5442089  
C    6.4156789   -3.7116220   -0.3282173  
O    5.6592113   -3.4146501    0.7684034  
C    7.4952550   -4.6183490   -0.2050113  
O    7.6600786   -5.1162697    1.0710172  
C    8.2922183   -4.9544983   -1.2794313  
H    9.4454870   -5.0739776   -4.1187682  
H    5.2925023   -2.4355035   -1.6163715  
H    6.0295981   -3.9232525    1.5014806  
H    8.4091488   -5.7199980    1.0675157  
H    9.1122422   -5.6519486   -1.1545160  
H    7.9970794   -3.4497540   -5.7102458  
C    5.8841826   -2.1091704   -4.4899278  
C    5.7577993   -1.6457868   -5.7601162  
C    4.6250707   -0.7504400   -5.7708532  
C    4.0981354   -0.7300177   -4.3929154  
N    4.9052813   -1.5745223   -3.6661298  
C    3.0267438   -0.0008951   -3.9901699  
C    2.3471068    0.8182473   -4.9799348  
O    1.3727578    1.5105721   -4.7160574  
C    2.8878454    0.8116756   -6.4453237  
O    2.3236379    1.4971373   -7.2873884  
C    4.0508235   -0.0149259   -6.7584747  
H    6.3862349   -1.9020922   -6.5943761  
H    4.4191183   -0.0137448   -7.7753722  
H    4.8007129   -1.7705397   -2.6875134  
C    3.3003547    0.0005277   -1.4738986  
C    2.5232816    0.0003497   -2.6090746  
C    1.1623203   -0.0001319   -2.1820102  
C    1.1711884    0.0000584   -0.7636141  
N    2.4852301   -0.0014919   -0.3662359  
C    0.0000000    0.0000000    0.0000000  
C   -1.2020383    0.0000520   -0.6806479  
O   -2.3759248    0.0003493    0.0157745  
C   -1.2314655   -0.0005115   -2.0955511  
O   -2.5054388   -0.0008040   -2.6250184  
C   -0.0764513   -0.0007274   -2.8495195  
H    2.8036266    0.0088183    0.5858662  
H   -3.0835639    0.0000346   -0.6418822  
H   -2.4360043   -0.0011529   -3.5845924  
H   -0.1304091   -0.0013423   -3.9319089  
H    4.3715553    0.0004897   -1.3667133  
C    2.3971438    2.0127888    3.1728260  
C    1.9431056    1.6308205    1.9564670  
C    0.8496017    0.7127664    2.2356185  
C    0.7794028    0.6545384    3.7115134  
N    1.6840587    1.4146091    4.2663826  
C   -0.1885723   -0.1578550    4.3957118  
C   -1.0476298   -0.8789867    3.6398520  
O   -2.0015663   -1.6796266    4.1448486  
C   -1.0022026   -0.8410666    2.1483229  
O   -1.8147390   -1.5232959    1.5241687  
C    0.0000000    0.0000000    1.4700000  
H    2.3054237    1.9346118    0.9892483  
H   -0.2170646   -0.1815267    5.4753125  
H   -2.4487139   -2.0549881    3.3649027  
H    3.2048689    2.6911772    3.3971983  
