60

C    4.3391804   -3.6510073   -6.8424578  
C    5.3212160   -4.4743078   -6.3422070  
C    5.2646385   -4.3736426   -4.9204953  
C    4.2194695   -3.4668111   -4.6087177  
N    3.6797796   -3.0453527   -5.7985601  
C    3.8791798   -3.1274861   -3.2957629  
C    4.6070455   -3.7145248   -2.2790154  
O    4.3164602   -3.4187231   -0.9786023  
C    5.6537741   -4.6214474   -2.5699948  
O    6.2842517   -5.1207872   -1.4490585  
C    5.9902040   -4.9564533   -3.8650281  
H    5.9961368   -5.0728586   -6.9297552  
H    3.0837807   -2.4369212   -3.0515039  
H    4.9341974   -3.9281559   -0.4380989  
H    6.9772154   -5.7245529   -1.7334431  
H    6.7970062   -5.6540862   -4.0570086  
H    4.0578754   -3.4467967   -7.8613412  
C    2.5563875   -2.1074455   -5.9371939  
C    1.9637234   -1.6426512   -7.0671454  
C    0.9098256   -0.7472301   -6.6519886  
C    0.9372947   -0.7283014   -5.1769702  
N    1.9574929   -1.5736536   -4.8062070  
C    0.0950446    0.0004351   -4.4015596  
C   -0.9054234    0.8207086   -5.0639420  
O   -1.7097172    1.5127953   -4.4536732  
C   -0.9528383    0.8157264   -6.6252016  
O   -1.7910247    1.5021495   -7.1939966  
C    0.0078414   -0.0105930   -7.3519361  
H    2.2338689   -1.8980692   -8.0763022  
H   -0.0315010   -0.0083085   -8.4327557  
H    2.2269416   -1.7707466   -3.8598459  
C    3.3321173    0.0004713   -1.3379338  
C    2.6974181    0.0000116   -2.5332314  
C    1.2800438   -0.0002119   -2.2052841  
C    1.2395034    0.0000643   -0.7271299  
N    2.4394062    0.0005460   -0.2131038  
C    0.0000000    0.0000000    0.0000000  
C   -1.1468702    0.0000634   -0.7169543  
O   -2.3742203    0.0000074   -0.1695487  
C   -1.1388770    0.0001607   -2.2096355  
O   -2.2206234    0.0000905   -2.7970411  
C    0.1454522    0.0001815   -2.9324241  
H    3.1367984   -0.0000653   -3.5160950  
H   -2.9844346    0.0001026   -0.9290167  
H    4.3940038    0.0007618   -1.1498640  
C    2.4951002    2.0940188    2.9809380  
C    1.9440701    1.6314916    1.8291961  
C    0.8759964    0.7350050    2.2038498  
C    0.8497377    0.7130254    3.6788474  
N    1.8560616    1.5571714    4.0882609  
C   -0.0205033   -0.0168748    4.4215661  
C   -0.9962600   -0.8356168    3.7214979  
O   -1.8224391   -1.5286685    4.3006425  
C   -0.9864710   -0.8277881    2.1595606  
O   -1.8030528   -1.5133726    1.5592035  
C    0.0000000    0.0000000    1.4700000  
H    2.2509283    1.8888011    0.8310761  
H   -0.0229599   -0.0187323    5.5027230  
H    3.3143982    2.7817323    3.1139444  
H    2.0889452    1.7545833    5.0442112  
