62

C   -7.1152901    5.4747409    1.1606733  
C   -8.3326891    5.0061483    1.5975126  
C   -8.3744070    3.6123299    1.2972959  
C   -7.1439507    3.2841078    0.6726575  
N   -6.4036182    4.4381270    0.6036244  
C   -6.8368625    1.9905710    0.2399356  
C   -7.7891409    1.0104568    0.4417279  
O   -7.5408838   -0.2697697    0.0387352  
C   -9.0229339    1.3184004    1.0628086  
O   -9.8662266    0.2341591    1.1917291  
C   -9.3266697    2.5943427    1.4897076  
H   -9.0971279    5.5965529    2.0729579  
H   -5.4792085    4.5124708    0.2190198  
H   -8.3240394   -0.7857114    0.2705446  
H  -10.6759536    0.5278963    1.6202900  
H  -10.2800849    2.8000882    1.9620893  
H   -6.6988995    6.4666800    1.2010852  
C   -4.3359695    2.1064016   -0.0635823  
C   -5.5644951    1.6417184   -0.4083570  
C   -5.3776808    0.7467249   -1.5259091  
C   -3.9292261    0.7279264   -1.8059379  
N   -3.3543293    1.5729379   -0.8848847  
C   -3.3460097   -0.0004262   -2.7913647  
C   -4.2020393   -0.8203941   -3.6324363  
O   -3.7724540   -1.5121266   -4.5463636  
C   -5.7389983   -0.8155429   -3.3539783  
O   -6.4697263   -1.5017111   -4.0557404  
C   -6.2499650    0.0103535   -2.2628046  
H   -7.3153178    0.0079811   -2.0764130  
H   -4.0651606    2.7938487    0.7212540  
H   -2.3726203    1.7700215   -0.8181563  
C    0.0000000    0.0000000    0.0000000  
C    1.0662919   -0.0000103   -0.8334272  
C    0.4961868    0.0000066   -2.1718889  
C   -0.9663860   -0.0000849   -1.9540248  
N   -1.2632775   -0.0000084   -0.6828659  
C   -1.8985364   -0.0000515   -3.0477258  
C   -1.3925778    0.0004567   -4.3020543  
O   -2.1456385    0.0005412   -5.4151314  
C    0.0786229    0.0009326   -4.5544999  
O    0.4683756    0.0012594   -5.7221104  
C    1.0143162    0.0008443   -3.4159034  
H    2.1107195    0.0000631   -0.5721869  
H   -1.5042277    0.0009692   -6.1484420  
H    2.0724151    0.0013151   -3.6409746  
C    0.0000000    0.0000000    1.4700000  
C    1.0521667    0.0011902    2.3562342  
C    0.4917218    0.0011957    3.6679131  
C   -0.9187428   -0.0003148    3.5178682  
N   -1.1833171    0.0009411    2.1707914  
C   -1.7951701   -0.0010350    4.6072090  
C   -1.2375837   -0.0005224    5.8710424  
O   -2.0474215   -0.0015360    6.9697579  
C    0.1673580    0.0013566    6.0411963  
O    0.5673524    0.0020687    7.3615553  
C    1.0325770    0.0023412    4.9669890  
H    2.0953057    0.0030649    2.0900562  
H   -2.0989778   -0.0102372    1.7591824  
H   -2.8710934   -0.0020419    4.4995513  
H   -1.4634884   -0.0006497    7.7393593  
H    1.5290710    0.0033153    7.3880045  
H    2.1042148    0.0039609    5.1284455  
