64

C    0.0000000    0.0000000    0.0000000  
C    1.0521661   -0.0011860   -0.8862347  
C    0.4917205   -0.0011938   -2.1979135  
C   -0.9187440    0.0003111   -2.0478681  
N   -1.1833179   -0.0009458   -0.7007911  
C   -1.7951715    0.0010280   -3.1372085  
C   -1.2375854    0.0005176   -4.4010421  
O   -2.0474238    0.0015283   -5.4997576  
C    0.1673561   -0.0013560   -4.5711966  
O    0.5673502   -0.0020663   -5.8915552  
C    1.0325752   -0.0023370   -3.4969896  
H    2.0953050   -0.0030567   -0.6200569  
H   -2.0989777    0.0102290   -0.2891820  
H   -2.8710941    0.0020307   -3.0295506  
H   -1.4634910    0.0006436   -6.2693588  
H    1.5290685   -0.0033095   -5.9180051  
C    4.5245128   -2.0170115   -1.5964893  
C    3.2545814   -1.6337686   -1.8647765  
C    3.3688939   -0.7174280   -2.9889440  
C    4.8179331   -0.6614834   -3.2783222  
N    5.5004024   -1.4213079   -2.4653693  
C    5.3513364    0.1487417   -4.3385592  
C    4.4768626    0.8699809   -5.0764243  
O    4.8351410    1.6687359   -6.0960651  
C    3.0086996    0.8343380   -4.8092402  
O    2.2713422    1.5165337   -5.5206709  
C    2.4861685   -0.0045284   -3.7159932  
H    2.3517431   -1.9356885   -1.3619807  
H    3.9977693    2.0447297   -6.4225472  
H    4.8658388   -2.6947758   -0.8302611  
C    8.4155614   -3.0399308   -4.2964723  
C    9.4937959   -2.2518789   -4.6264020  
C    9.0047574   -0.9209710   -4.7817269  
C    7.6090296   -0.9585921   -4.5318179  
N    7.2838151   -2.2604810   -4.2420964  
C    6.7983396    0.1787184   -4.5958187  
C    7.4077825    1.3758681   -4.9176723  
O    6.6631575    2.5172671   -4.9935424  
C    8.7989727    1.4335905   -5.1708003  
O    9.2559176    2.6984085   -5.4786661  
C    9.5993068    0.3119570   -5.1081061  
H   10.5078523   -2.5943667   -4.7420948  
H    6.3643910   -2.5915164   -4.0117574  
H    7.2748178    3.2272076   -5.2283217  
H   10.2039205    2.6495656   -5.6352226  
H   10.6619413    0.3870370   -5.3072305  
H    8.3640208   -4.0965896   -4.0970376  
C    3.3003543   -0.0005276    2.9438989  
C    2.5232812   -0.0003497    4.0790748  
C    1.1623199    0.0001319    3.6520102  
C    1.1711883   -0.0000583    2.2336141  
N    2.4852299    0.0014920    1.8362361  
C    0.0000000    0.0000000    1.4700000  
C   -1.2020384   -0.0000520    2.1506477  
O   -2.3759250   -0.0003494    1.4542253  
C   -1.2314658    0.0005113    3.5655508  
O   -2.5054393    0.0008037    4.0950179  
C   -0.0764518    0.0007272    4.3195194  
H    2.8919952    0.0005619    5.0905303  
H    2.8036267   -0.0088181    0.8841339  
H   -3.0835639   -0.0000348    2.1118817  
H   -2.4360050    0.0011527    5.0545920  
H   -0.1304098    0.0013421    5.4019087  
H    4.3715549   -0.0004895    2.8367138  
