60

C    7.5948451   -2.1178269   -3.5453477  
C    8.8435868   -1.6189228   -3.8355301  
C    8.6935495   -0.7453356   -4.9530868  
C    7.3192748   -0.7509199   -5.3041764  
N    6.6809304   -1.5959550   -4.4306492  
C    6.8068101    0.0011169   -6.3655945  
C    7.6978513    0.7730851   -7.0855177  
O    7.2508690    1.5271289   -8.1317672  
C    9.0727811    0.7915857   -6.7507914  
O    9.8314937    1.6094808   -7.5624227  
C    9.5790841    0.0497250   -5.7039742  
H    9.7511923   -1.8563734   -3.3074550  
H    5.6963853   -1.7925395   -4.4282272  
H    8.0241299    1.9813280   -8.4909828  
H   10.7466700    1.5646485   -7.2690853  
H   10.6370039    0.0839306   -5.4713515  
H    7.2840176   -2.8057499   -2.7778149  
C    3.1006060    0.0006268   -3.9654947  
C    4.3965753    0.0006907   -4.3711275  
C    4.3857809    0.0007807   -5.8149828  
C    2.9671185    0.0007930   -6.2201829  
N    2.2396186    0.0002982   -5.0524356  
C    2.5349230    0.0012657   -7.5066168  
C    3.5336528    0.0015717   -8.5625879  
O    3.2452525    0.0019411   -9.7521779  
C    5.0419203    0.0013125   -8.1564675  
O    5.8918153    0.0012596   -9.0367734  
C    5.3843457    0.0010806   -6.7363982  
H    5.2614037    0.0004941   -3.7318422  
H    1.4895031    0.0013959   -7.7823117  
H    1.2375717    0.0017396   -4.9981503  
C    3.2798085    0.0005859   -1.4499648  
C    2.5571146    0.0005569   -2.5996553  
C    1.1637437    0.0001551   -2.2210359  
C    1.1336966   -0.0000198   -0.7459471  
N    2.4483513   -0.0001427   -0.3402720  
C    0.0000000    0.0000000    0.0000000  
C   -1.2757366   -0.0000185   -0.6964416  
O   -2.3524595   -0.0000640   -0.1142313  
C   -1.2676493   -0.0000870   -2.2584084  
O   -2.3355759   -0.0004098   -2.8557296  
C    0.0181563    0.0001763   -2.9516295  
H    0.0150795    0.0003323   -4.0331630  
H    4.3498549    0.0008614   -1.3200020  
H    2.7563627    0.0012824    0.6148062  
C    2.4951002    2.0940188    2.9809380  
C    1.9440701    1.6314916    1.8291961  
C    0.8759964    0.7350050    2.2038498  
C    0.8497377    0.7130254    3.6788474  
N    1.8560616    1.5571714    4.0882609  
C   -0.0205033   -0.0168748    4.4215661  
C   -0.9962600   -0.8356168    3.7214979  
O   -1.8224391   -1.5286685    4.3006425  
C   -0.9864710   -0.8277881    2.1595606  
O   -1.8030528   -1.5133726    1.5592035  
C    0.0000000    0.0000000    1.4700000  
H    2.2509283    1.8888011    0.8310761  
H   -0.0229599   -0.0187323    5.5027230  
H    3.3143982    2.7817323    3.1139444  
H    2.0889452    1.7545833    5.0442112  
