60

C    3.4109869   -0.7089875   -7.2625984  
C    4.6877733   -0.4587570   -7.7094416  
C    4.5754314    0.4491185   -8.8038554  
C    3.1942573    0.7197644   -8.9800234  
N    2.5152334   -0.0008762   -8.0291188  
C    2.7124479    1.5783610   -9.9727268  
C    3.6418788    2.1748406  -10.8025164  
O    3.2260306    3.0222786  -11.7883820  
C    5.0242066    1.9170516  -10.6427301  
O    5.8226212    2.5862861  -11.5471653  
C    5.5002179    1.0699267   -9.6637925  
H    5.5891453   -0.8797472   -7.2979945  
H    1.6610222    1.7886721  -10.1122798  
H    4.0230220    3.3231809  -12.2439332  
H    6.7402065    2.3572810  -11.3705351  
H    6.5646742    0.8916452   -9.5656804  
H    3.0683038   -1.3376639   -6.4586754  
C   -0.0307354   -0.0004645   -4.4215603  
C    1.0209938   -0.0006518   -5.2805949  
C    0.4733361   -0.0007738   -6.6165986  
C   -0.9941877   -0.0006121   -6.4644009  
N   -1.2345439   -0.0008268   -5.1097353  
C   -1.8743241   -0.0002659   -7.4973894  
C   -1.3406216   -0.0002634   -8.8493122  
O   -2.0512423   -0.0000274   -9.8459671  
C    0.2104061   -0.0006851   -9.0340223  
O    0.6713883   -0.0009936  -10.1674938  
C    1.0569891   -0.0007575   -7.8435816  
H    2.0616762   -0.0008815   -5.0093135  
H   -2.9472234   -0.0000222   -7.3639817  
H   -2.1443165    0.0007705   -4.6862281  
C    3.2573669   -0.0002919   -1.5109381  
C    2.5379467   -0.0001709   -0.3591962  
C    1.1435042    0.0000332   -0.7338501  
C    1.1092607   -0.0000081   -2.2088477  
N    2.4227561    0.0001910   -2.6182614  
C   -0.0265534   -0.0002522   -2.9515663  
C   -1.3003036   -0.0002639   -2.2514981  
O   -2.3786785   -0.0004131   -2.8306428  
C   -1.2877726    0.0000312   -0.6895608  
O   -2.3539957    0.0003306   -0.0892035  
C    0.0000000    0.0000000    0.0000000  
H    2.9384091   -0.0000368    0.6389238  
H    4.3270391   -0.0004764   -1.6439447  
H    2.7280492   -0.0013405   -3.5742114  
C    2.4951002    2.0940188    2.9809380  
C    1.9440701    1.6314916    1.8291961  
C    0.8759964    0.7350050    2.2038498  
C    0.8497377    0.7130254    3.6788474  
N    1.8560616    1.5571714    4.0882609  
C   -0.0205033   -0.0168748    4.4215661  
C   -0.9962600   -0.8356168    3.7214979  
O   -1.8224391   -1.5286685    4.3006425  
C   -0.9864710   -0.8277881    2.1595606  
O   -1.8030528   -1.5133726    1.5592035  
C    0.0000000    0.0000000    1.4700000  
H    2.2509283    1.8888011    0.8310761  
H   -0.0229599   -0.0187323    5.5027230  
H    3.3143982    2.7817323    3.1139444  
H    2.0889452    1.7545833    5.0442112  
