62

C    0.0000000    0.0000000    0.0000000  
C    1.0521660   -0.0011919   -0.8862347  
C    0.4917215   -0.0011967   -2.1979136  
C   -0.9187431    0.0003157   -2.0478686  
N   -1.1833172   -0.0009396   -0.7007912  
C   -1.7951706    0.0010371   -3.1372093  
C   -1.2375843    0.0005236   -4.4010428  
O   -2.0474223    0.0015382   -5.4997578  
C    0.1673573   -0.0013574   -4.5711966  
O    0.5673515   -0.0020702   -5.8915554  
C    1.0325762   -0.0023431   -3.4969895  
H    2.0953057   -0.0030682   -0.6200570  
H   -2.0989778    0.0102402   -0.2891823  
H   -1.4634894    0.0006514   -6.2693594  
H    1.5290704   -0.0033182   -5.9180050  
H    2.1042146   -0.0039645   -3.6584464  
C   -3.9676850    0.7292856   -2.0471637  
C   -5.3027880    0.5138202   -2.1702453  
C   -5.4806696   -0.4129569   -3.2630754  
C   -4.1300726   -0.7219999   -3.7701951  
N   -3.2578659    0.0024081   -2.9908507  
C   -3.8704682   -1.5626489   -4.8034521  
C   -4.9964232   -2.2058184   -5.4600293  
O   -4.8664385   -2.9792829   -6.3997937  
C   -6.4355646   -1.8928967   -4.9396857  
O   -7.3913557   -2.4282380   -5.4847856  
C   -6.5888890   -0.9698005   -3.8179739  
H   -6.0749051    0.9540305   -1.5647171  
H   -2.8722083   -1.7757859   -5.1597653  
H   -3.4426173    1.3580936   -1.3465964  
C   -7.9477362   -0.6827314   -3.3362841  
C   -8.3427799    0.1300035   -2.3226384  
C   -9.7836335    0.0581277   -2.2625559  
C  -10.1986102   -0.8697781   -3.3319375  
N   -9.0388402   -1.2834149   -3.9457189  
C  -11.4855129   -1.2050873   -3.6024045  
C  -12.5317224   -0.6123618   -2.7859128  
O  -13.7209175   -0.8510341   -2.9506913  
C  -12.1151716    0.3732318   -1.6479778  
O  -12.9872301    0.8786892   -0.9542294  
C  -10.6955753    0.6567986   -1.4525611  
H   -7.6983828    0.7134356   -1.6894139  
H  -11.7684542   -1.8879292   -4.3914425  
H  -10.4154903    1.3401248   -0.6624079  
H   -8.9920934   -1.9246209   -4.7162490  
C    3.3041272   -0.0001177    3.0120429  
C    2.5845372    0.0004780    1.8395852  
C    1.2040006    0.0000008    2.1983588  
C    1.1422373   -0.0006037    3.6154372  
N    2.4348639   -0.0026109    4.0777464  
C   -0.0655181   -0.0008797    4.3197917  
C   -1.2321768   -0.0002324    3.5801400  
O   -2.4392816   -0.0001146    4.2172520  
C   -1.1911209    0.0000007    2.1655264  
O   -2.4371527    0.0002320    1.5732860  
C    0.0000000    0.0000000    1.4700000  
H    3.0031534    0.0000661    0.8477417  
H    2.7054629    0.0071099    5.0445261  
H   -0.1193549   -0.0014844    5.3997470  
H   -3.1132988    0.0000648    3.5251786  
H   -2.3200282    0.0004071    0.6183591  
H    4.3686625   -0.0004071    3.1724291  
