64

C   -1.6468423   -0.0583285   -3.2702994  
C   -3.0209049   -0.1127730   -3.3084438  
C   -3.3995903   -0.1123941   -4.6836518  
C   -2.2038695   -0.0563515   -5.4445968  
N   -1.1584664   -0.0226655   -4.5554324  
C   -2.1971654   -0.0407088   -6.8426310  
C   -3.4197939   -0.0827069   -7.4841852  
O   -3.4709520   -0.0701118   -8.8480914  
C   -4.6237335   -0.1384955   -6.7424081  
O   -5.7584093   -0.1750662   -7.5263183  
C   -4.6311123   -0.1536845   -5.3631905  
H   -3.6704427   -0.1472769   -2.4505956  
H   -0.1861764    0.0086824   -4.8037279  
H   -1.2892904    0.0020751   -7.4284087  
H   -4.4064739   -0.1046583   -9.0865659  
H   -6.5264854   -0.2118177   -6.9481212  
C   -1.1178682   -0.0472166   -0.8003807  
C    0.0000000    0.0000000    0.0000000  
C    1.1314485    0.0460667   -0.8673533  
C    0.6377984    0.0245002   -2.1969280  
N   -0.7316129   -0.0342147   -2.1202242  
C    1.4759332    0.0585200   -3.3154813  
C    2.8371910    0.1156527   -3.0876862  
O    3.7008345    0.1511471   -4.1440363  
C    3.3489616    0.1375943   -1.7684339  
O    4.7260325    0.1949019   -1.7073137  
C    2.5227205    0.1037846   -0.6644823  
H    1.1059572    0.0421974   -4.3313823  
H    4.5901415    0.1883151   -3.7685147  
H    4.9891949    0.2063344   -0.7819932  
H    2.9437469    0.1216105    0.3339646  
H   -2.1600915   -0.0905842   -0.5342062  
C   -5.9034985   -0.2118570   -4.6293313  
C   -6.1453656   -0.2348434   -3.2752856  
C   -7.5605073   -0.2925486   -3.1060370  
C   -8.1347237   -0.3027258   -4.4029940  
N   -7.1008700   -0.2509027   -5.3047022  
C   -9.5151366   -0.3556296   -4.6185182  
C  -10.3307261   -0.3993573   -3.5044815  
O  -11.6859979   -0.4522357   -3.6576350  
C   -9.7766866   -0.3896649   -2.2022663  
O  -10.7198857   -0.4370620   -1.1965465  
C   -8.4149790   -0.3372118   -1.9888948  
H   -5.3942747   -0.2116348   -2.5043666  
H   -7.2012814   -0.2552649   -6.3036418  
H   -9.9590485   -0.3635167   -5.6044612  
H  -12.0606576   -0.4757589   -2.7674990  
H  -10.2627066   -0.4269043   -0.3500904  
H   -8.0197976   -0.3308858   -0.9798013  
C    0.8175213    0.6860729    2.3021913  
C    0.0000000    0.0000000    1.4700000  
C   -0.8887526   -0.7456559    2.3478473  
C   -0.4549825   -0.3816753    3.7138435  
N    0.5448156    0.4573574    3.6934124  
C   -1.0945674   -0.9182058    4.8835240  
C   -2.1210866   -1.7789155    4.6970523  
O   -2.8083856   -2.3554314    5.6976972  
C   -2.5824069   -2.1655116    3.3310774  
O   -3.5227682   -2.9541547    3.2362962  
C   -1.9100805   -1.6015804    2.1470656  
H   -0.7567140   -0.6349833    5.8697035  
H   -3.4728268   -2.9124471    5.2533954  
H   -2.2742832   -1.9066565    1.1752040  
H    1.6189533    1.3585343    2.0405121  
