60

C    3.3745844   -0.7162652   -7.4797994  
C    2.4108149    0.0007325   -8.1502690  
C    3.0753291    0.7285637   -9.1814255  
C    4.4552148    0.4129600   -9.0906817  
N    4.6025546   -0.4652648   -8.0458705  
C    5.4128266    0.9524282   -9.9548241  
C    4.9693308    1.8261823  -10.9285003  
O    5.8619417    2.3816954  -11.7989395  
C    3.5966508    2.1537079  -11.0347665  
O    3.3135871    3.0380594  -12.0551302  
C    2.6514246    1.6220966  -10.1824384  
H    5.4703958   -0.8733687   -7.7487445  
H    6.4660195    0.7160203   -9.8908056  
H    5.3506218    2.9525183  -12.3871378  
H    2.3663224    3.2062444  -12.0578097  
H    1.6071015    1.8917584  -10.2880330  
H    3.2834087   -1.3857400   -6.6416770  
C   -0.0307354   -0.0004645   -4.4215603  
C    1.0331815   -0.0004860   -5.2580174  
C    0.4592711   -0.0007213   -6.5948515  
C   -1.0026758   -0.0009313   -6.3728279  
N   -1.2959501   -0.0007014   -5.1008297  
C   -1.9379340   -0.0011519   -7.4638729  
C   -1.4355456   -0.0007729   -8.7196356  
O   -2.1917699   -0.0009264   -9.8305658  
C    0.0349312   -0.0001826   -8.9762653  
O    0.4213604    0.0000150  -10.1449796  
C    0.9738597   -0.0000102   -7.8403354  
H    2.0783481   -0.0002676   -4.9997493  
H   -3.0010760   -0.0015090   -7.2724597  
H   -1.5524475   -0.0005388  -10.5656984  
C    3.2573669   -0.0002919   -1.5109381  
C    2.5379467   -0.0001709   -0.3591962  
C    1.1435042    0.0000332   -0.7338501  
C    1.1092607   -0.0000081   -2.2088477  
N    2.4227561    0.0001910   -2.6182614  
C   -0.0265534   -0.0002522   -2.9515663  
C   -1.3003036   -0.0002639   -2.2514981  
O   -2.3786785   -0.0004131   -2.8306428  
C   -1.2877726    0.0000312   -0.6895608  
O   -2.3539957    0.0003306   -0.0892035  
C    0.0000000    0.0000000    0.0000000  
H    2.9384091   -0.0000368    0.6389238  
H    4.3270391   -0.0004764   -1.6439447  
H    2.7280492   -0.0013405   -3.5742114  
C    2.5528530    2.1414826    2.8079335  
C    2.0663498    1.7338582    4.0032312  
C    0.9804344    0.8229586    3.6752840  
C    0.9495562    0.7966882    2.1971295  
N    1.8690446    1.5676019    1.6831036  
C    0.0000000    0.0000000    1.4700000  
C   -0.8785127   -0.7372425    2.1869543  
O   -1.8187535   -1.5261249    1.6395491  
C   -0.8723269   -0.7321790    3.6796354  
O   -1.7010379   -1.4274584    4.2670412  
C    0.1115397    0.0933559    4.4024240  
H    2.4028853    2.0163452    4.9860947  
H   -2.2861435   -1.9184361    2.3990168  
H    0.0832434    0.0693689    5.4835595  
H    3.3664920    2.8238276    2.6198634  
