60

C    9.7655772   -4.4171709   -5.4372784  
C    8.6647612   -3.5943257   -5.3772828  
C    8.1631293   -3.6665442   -4.0439609  
C    9.0058611   -4.5563505   -3.3298360  
N    9.9672403   -4.9954845   -4.2059238  
C    8.8083242   -4.8663973   -1.9808961  
C    7.7407827   -4.2670396   -1.3411271  
O    7.5022762   -4.5343271   -0.0240524  
C    6.8885111   -3.3767510   -2.0367103  
O    5.8702246   -2.8620324   -1.2611454  
C    7.0826286   -3.0706321   -3.3675509  
H    8.2710176   -3.0143363   -6.1943331  
H   10.7119055   -5.6299018   -3.9801647  
H    9.4469418   -5.5438687   -1.4309849  
H    6.7218515   -4.0207558    0.2218075  
H    5.3417383   -2.2710776   -1.8061935  
H   10.4219913   -4.6384065   -6.2613745  
C    6.1745028   -2.1408797   -4.0544039  
C    6.2180773   -1.7334911   -5.3442551  
C    5.0926408   -0.8229047   -5.4882170  
C    4.4611847   -0.7965389   -4.1513732  
N    5.0910258   -1.5671308   -3.3066974  
C    3.2973506   -0.0000934   -3.8752374  
C    2.7877443    0.7368259   -4.8884434  
O    1.7057650    1.5254560   -4.7725804  
C    3.4025812    0.7316581   -6.2486307  
O    2.8855803    1.4266387   -7.1232350  
C    4.5959740   -0.0936230   -6.5067952  
H    6.9265059   -2.0159437   -6.1041411  
H    1.5889228    1.9175682   -5.6567459  
H    5.0113651   -0.0697219   -7.5053484  
C    3.3321174    0.0004714   -1.3379332  
C    2.6974186    0.0000115   -2.5332308  
C    1.2800441   -0.0002119   -2.2052838  
C    1.2395035    0.0000643   -0.7271293  
N    2.4394063    0.0005458   -0.2131034  
C    0.0000000    0.0000000    0.0000000  
C   -1.1468701    0.0000634   -0.7169542  
O   -2.3742201    0.0000072   -0.1695492  
C   -1.1388767    0.0001606   -2.2096354  
O   -2.2206229    0.0000903   -2.7970413  
C    0.1454526    0.0001815   -2.9324239  
H   -2.9844344    0.0001023   -0.9290168  
H    0.1083580    0.0003680   -4.0135594  
H    4.3940040    0.0007617   -1.1498630  
C    2.5128556    2.1077716    2.9199648  
C    1.9592212    1.6432552    4.0696553  
C    0.8915788    0.7479214    3.6910360  
C    0.8684491    0.7287414    2.2159470  
N    1.8754542    1.5738793    1.8102719  
C    0.0000000    0.0000000    1.4700000  
C   -0.9772830   -0.8200135    2.1664417  
O   -1.8021297   -1.5120829    1.5842315  
C   -0.9711318   -0.8147624    3.7284083  
O   -1.7894187   -1.5009653    4.3257297  
C    0.0140216    0.0115358    4.4216297  
H    2.2638494    1.8988021    5.0689105  
H    0.0117648    0.0094386    5.5031631  
H    3.3327358    2.7953732    2.7900019  
H    2.1123206    1.7707734    0.8551938  
