62

C   -8.4661966    0.5402186   -2.3345764  
C   -9.7450879    0.4324640   -1.8393050  
C  -10.1349133   -0.9317383   -1.9862331  
C   -9.0436614   -1.6145959   -2.5818855  
N   -8.0477623   -0.6911190   -2.7818675  
C   -9.0755804   -2.9814338   -2.8743330  
C  -10.2300315   -3.6715634   -2.5594627  
O  -10.3147089   -5.0080617   -2.8233068  
C  -11.3295722   -3.0077993   -1.9651193  
O  -12.4062291   -3.8325660   -1.7123097  
C  -11.2988843   -1.6593449   -1.6765814  
H  -10.3260201    1.2382449   -1.4243000  
H   -8.2472929   -3.5077167   -3.3283894  
H  -11.1912951   -5.2892045   -2.5303542  
H  -13.1048353   -3.3064560   -1.3113588  
H  -12.1566542   -1.1782543   -1.2213214  
H   -7.8199312    1.3982820   -2.4054689  
C   -3.9834216    0.7255579   -1.7966821  
C   -5.3237513    0.5085129   -1.8186554  
C   -5.5825293   -0.4184175   -2.8950704  
C   -4.2737054   -0.7258293   -3.5027446  
N   -3.3460097   -0.0004262   -2.7913647  
C   -4.0918508   -1.5661147   -4.5527701  
C   -5.2633982   -2.2105869   -5.1225661  
O   -5.2038152   -2.9838475   -6.0695714  
C   -6.6595201   -1.8994027   -4.4950209  
O   -7.6531012   -2.4358506   -4.9664880  
C   -6.7288180   -0.9765482   -3.3648040  
H   -6.0484721    0.9477736   -1.1565048  
H   -3.1230866   -1.7780469   -4.9834567  
H   -3.4077085    1.3549527   -1.1376627  
C    0.0000000    0.0000000    0.0000000  
C    1.0662919   -0.0000103   -0.8334272  
C    0.4961868    0.0000066   -2.1718889  
C   -0.9663860   -0.0000849   -1.9540248  
N   -1.2632775   -0.0000084   -0.6828659  
C   -1.8985364   -0.0000515   -3.0477258  
C   -1.3925778    0.0004567   -4.3020543  
O   -2.1456385    0.0005412   -5.4151314  
C    0.0786229    0.0009326   -4.5544999  
O    0.4683756    0.0012594   -5.7221104  
C    1.0143162    0.0008443   -3.4159034  
H    2.1107195    0.0000631   -0.5721869  
H   -1.5042277    0.0009692   -6.1484420  
H    2.0724151    0.0013151   -3.6409746  
C    1.1243417   -0.0099156    2.2619005  
C    0.7474090   -0.0234034    3.5848544  
C   -0.6787367   -0.0234952    3.6114698  
C   -1.1201739   -0.0099357    2.2635546  
N    0.0000000    0.0000000    1.4700000  
C   -2.4730812   -0.0065396    1.9108239  
C   -3.3971947   -0.0173298    2.9375057  
O   -4.7313508   -0.0149487    2.6493466  
C   -2.9763630   -0.0305536    4.2886322  
O   -4.0166453   -0.0397858    5.1947621  
C   -1.6418541   -0.0336380    4.6373480  
H    1.4178735   -0.0310004    4.4271209  
H   -2.8160170    0.0039190    0.8854031  
H   -5.1938803   -0.0234410    3.4974381  
H   -3.6464643   -0.0484781    6.0827341  
H   -1.3497443   -0.0436789    5.6809233  
H    2.1062470   -0.0051382    1.8205408  
