60

C   -4.5504953    2.1237122   -4.6135565  
C   -3.4551781    1.6614615   -5.3057061  
C   -3.9418852    0.7739786   -6.3107386  
C   -5.3539346    0.7341432   -6.1824533  
N   -5.6901624    1.5634126   -5.1413577  
C   -6.1672379   -0.0420703   -7.0136079  
C   -5.5437526   -0.7914912   -7.9922872  
O   -6.2902976   -1.5670000   -8.8314949  
C   -4.1360810   -0.7652476   -8.1357749  
O   -3.6663626   -1.5659629   -9.1563440  
C   -3.3330910    0.0000658   -7.3160011  
H   -2.4312460    1.9299446   -5.1095608  
H   -6.6247011    1.7449780   -4.8225299  
H   -7.2439894   -0.0768881   -6.9208957  
H   -5.6673451   -2.0001742   -9.4294547  
H   -2.7076576   -1.4907746   -9.1852398  
H   -4.6088400    2.8076474   -3.7842270  
C   -0.0307354   -0.0004645   -4.4215603  
C    1.0209938   -0.0006523   -5.2805949  
C    0.4733355   -0.0007745   -6.6165991  
C   -0.9941883   -0.0006122   -6.4644009  
N   -1.2345441   -0.0008266   -5.1097353  
C   -1.8743248   -0.0002659   -7.4973884  
C   -1.3406225   -0.0002638   -8.8493122  
O   -2.0512433   -0.0000278   -9.8459652  
C    0.2104054   -0.0006861   -9.0340223  
O    0.6713873   -0.0009947  -10.1674938  
C    1.0569888   -0.0007584   -7.8435816  
H    2.0616762   -0.0008821   -5.0093140  
H    2.1298771   -0.0008461   -7.9800887  
H   -2.1443165    0.0007711   -4.6862276  
C    3.2573669   -0.0002919   -1.5109381  
C    2.5379467   -0.0001709   -0.3591962  
C    1.1435042    0.0000332   -0.7338501  
C    1.1092607   -0.0000081   -2.2088477  
N    2.4227561    0.0001910   -2.6182614  
C   -0.0265534   -0.0002522   -2.9515663  
C   -1.3003036   -0.0002639   -2.2514981  
O   -2.3786785   -0.0004131   -2.8306428  
C   -1.2877726    0.0000312   -0.6895608  
O   -2.3539957    0.0003306   -0.0892035  
C    0.0000000    0.0000000    0.0000000  
H    2.9384091   -0.0000368    0.6389238  
H    4.3270391   -0.0004764   -1.6439447  
H    2.7280492   -0.0013405   -3.5742114  
C    0.8681109    0.7263879    2.2709268  
C    0.6127770    0.5096195    3.5869401  
C   -0.4920590   -0.4175482    3.6542670  
C   -0.8620974   -0.7254003    2.2596025  
N    0.0000000    0.0000000    1.4700000  
C   -1.8641242   -1.5660088    1.8976294  
C   -2.6293522   -2.2103885    2.9520183  
O   -3.5512764   -2.9839180    2.7283916  
C   -2.2549728   -1.8987399    4.4361073  
O   -2.8923672   -2.4351063    5.3323774  
C   -1.1543735   -0.9755647    4.7012123  
H    1.1382914    0.9492124    4.4159191  
H   -2.1192137   -1.7782617    0.8686553  
H   -0.9013378   -0.7652422    5.7314848  
H    1.6172880    1.3558399    1.8188057  
