62

C   10.8696387   -2.1209911   -0.7508006  
C   11.8537559   -1.6228566   -1.5728956  
C   11.2164002   -0.7498287   -2.5035940  
C    9.8313467   -0.7549454   -2.1977708  
N    9.6549404   -1.5991767   -1.1297019  
C    8.8957170   -0.0032601   -2.9149553  
C    9.3669142    0.7678691   -3.9597094  
O    8.4965768    1.5215380   -4.6928601  
C   10.7451814    0.7858922   -4.2804448  
O   11.0569296    1.6029603   -5.3474760  
C   11.6687337    0.0443779   -3.5735261  
H   12.9019076   -1.8604486   -1.5102634  
H    8.7770663   -1.7952825   -0.6837633  
H    9.0251067    1.9751588   -5.3622998  
H   12.0061008    1.5578501   -5.4979499  
H   12.7179917    0.0782021   -3.8425796  
H   10.9378817   -2.8083293    0.0749519  
C    6.6685705   -0.0005967    0.8976877  
C    7.6427397   -0.0013904   -0.0483931  
C    6.9825040   -0.0021114   -1.3324973  
C    5.5334436   -0.0016403   -1.0549829  
N    5.4101705   -0.0011223    0.3153062  
C    4.5679461   -0.0016854   -2.0086701  
C    4.9837200   -0.0024605   -3.4013893  
O    4.1902296   -0.0026237   -4.3334163  
C    6.5131876   -0.0032214   -3.7184584  
O    6.8752465   -0.0041838   -4.8872921  
C    7.4587612   -0.0028165   -2.6050208  
H    8.7028558   -0.0016449    0.1326238  
H    6.7640839    0.0001114    1.9713575  
H    4.5400777    0.0008356    0.8152884  
C    3.1301149   -0.0010311   -1.7028252  
C    2.5367768   -0.0002767   -0.4864665  
C    1.1089904    0.0001028   -0.7656183  
C    1.0177872   -0.0004148   -2.2415132  
N    2.1993578   -0.0011611   -2.7963820  
C   -0.2459209   -0.0002877   -2.9257118  
C   -1.3675319   -0.0000605   -2.1698524  
O   -2.6129313    0.0000867   -2.6748490  
C   -1.3083584    0.0000910   -0.6783232  
O   -2.3693261    0.0004206   -0.0541692  
C    0.0000000    0.0000000    0.0000000  
H    3.0096017   -0.0001007    0.4807525  
H   -0.2829630   -0.0004687   -4.0053125  
H   -3.1967441    0.0002094   -1.8949034  
C    0.0000000    0.0000000    1.4700000  
C    1.0521667    0.0011902    2.3562342  
C    0.4917218    0.0011957    3.6679131  
C   -0.9187428   -0.0003148    3.5178682  
N   -1.1833171    0.0009411    2.1707914  
C   -1.7951701   -0.0010350    4.6072090  
C   -1.2375837   -0.0005224    5.8710424  
O   -2.0474215   -0.0015360    6.9697579  
C    0.1673580    0.0013566    6.0411963  
O    0.5673524    0.0020687    7.3615553  
C    1.0325770    0.0023412    4.9669890  
H    2.0953057    0.0030649    2.0900562  
H   -2.0989778   -0.0102372    1.7591824  
H   -2.8710934   -0.0020419    4.4995513  
H   -1.4634884   -0.0006497    7.7393593  
H    1.5290710    0.0033153    7.3880045  
H    2.1042148    0.0039609    5.1284455  
