64

C    0.6675602   -0.7200185   -5.1594012  
C   -0.1496422   -0.0015612   -4.3176963  
C   -1.0591324    0.7259468   -5.1412004  
C   -0.7463753    0.4086513   -6.4878383  
N    0.3079383   -0.4702277   -6.4630982  
C   -1.4437235    0.9473696   -7.5733229  
C   -2.4757927    1.8220995   -7.2942919  
O   -3.1898678    2.3769432   -8.3166715  
C   -2.8026933    2.1513156   -5.9572920  
O   -3.8548527    3.0364720   -5.8441467  
C   -2.1149948    1.6204449   -4.8859503  
H    0.7413911   -0.8795054   -7.2709296  
H   -3.8527236    2.9486470   -7.9079638  
H   -4.0107585    3.2057916   -4.9100013  
H   -2.3881059    1.8914039   -3.8728020  
H    1.4794299   -1.3897675   -4.9329890  
C    3.3003543    0.0005271   -1.4738993  
C    2.5232810    0.0003494   -2.6090758  
C    1.1623195   -0.0001318   -2.1820108  
C    1.1711880    0.0000584   -0.7636147  
N    2.4852301   -0.0014924   -0.3662365  
C    0.0000000    0.0000000    0.0000000  
C   -1.2020384    0.0000521   -0.6806477  
O   -2.3759249    0.0003496    0.0157747  
C   -1.2314662   -0.0005111   -2.0955508  
O   -2.5054396   -0.0008035   -2.6250178  
C   -0.0764520   -0.0007272   -2.8495197  
H    2.8919946   -0.0005619   -3.6205309  
H    2.8036268    0.0088178    0.5858657  
H   -3.0835641    0.0000350   -0.6418819  
H   -2.4360055   -0.0011524   -3.5845921  
H    4.3715548    0.0004892   -1.3667144  
C   -0.3063774   -2.8512402   -9.5318647  
C   -0.1793321   -2.3587748  -10.8100681  
C   -0.4786335   -0.9653837  -10.7510805  
C   -0.7834536   -0.6620145   -9.3994231  
N   -0.6713005   -1.8297729   -8.6864162  
C   -1.1262280    0.6242258   -8.9717770  
C   -1.1616423    1.6224612   -9.9259518  
O   -1.4899709    2.8965786   -9.5628544  
C   -0.8610572    1.3394175  -11.2795963  
O   -0.9403762    2.4395098  -12.1083595  
C   -0.5230859    0.0706880  -11.7022392  
H    0.0942180   -2.9333927  -11.6783870  
H   -0.8186609   -1.9224623   -7.6976412  
H   -1.4556530    3.4276838  -10.3690894  
H   -0.7229207    2.1621972  -13.0035766  
H   -0.2980924   -0.1158458  -12.7458199  
H   -0.1669530   -3.8505952   -9.1566186  
C    2.5528530    2.1414826    2.8079335  
C    2.0663498    1.7338582    4.0032312  
C    0.9804344    0.8229586    3.6752840  
C    0.9495562    0.7966882    2.1971295  
N    1.8690446    1.5676019    1.6831036  
C    0.0000000    0.0000000    1.4700000  
C   -0.8785127   -0.7372425    2.1869543  
O   -1.8187535   -1.5261249    1.6395491  
C   -0.8723269   -0.7321790    3.6796354  
O   -1.7010379   -1.4274584    4.2670412  
C    0.1115397    0.0933559    4.4024240  
H    2.4028853    2.0163452    4.9860947  
H   -2.2861435   -1.9184361    2.3990168  
H    0.0832434    0.0693689    5.4835595  
H    3.3664920    2.8238276    2.6198634  
