60

C    8.0978646   -2.1191893    2.5909899  
C    7.4048367   -1.6579398    1.4958055  
C    8.2747469   -0.7699039    0.7963434  
C    9.4952752   -0.7287147    1.5178278  
N    9.3532492   -1.5577452    2.6027959  
C   10.5857468    0.0483530    1.1155506  
C   10.4415795    0.7972521   -0.0362064  
O   11.4751981    1.5735512   -0.4743909  
C    9.2315136    0.7696600   -0.7695518  
O    9.2441736    1.5700055   -1.8932198  
C    8.1552301    0.0035034   -0.3731356  
H    6.3959795   -1.9274284    1.2339337  
H   10.0608952   -1.7384339    3.2916850  
H   11.5186431    0.0842033    1.6610971  
H   11.1685142    2.0061726   -1.2818863  
H    8.3905809    1.4938932   -2.3304734  
H    7.7955016   -2.8031365    3.3654261  
C    5.6506104    0.0006750   -0.6678807  
C    6.9152385    0.0024406   -1.1626409  
C    6.8040776    0.0027733   -2.6022515  
C    5.3606764    0.0010736   -2.9078307  
N    4.7161325   -0.0005435   -1.6923264  
C    4.8400799    0.0012310   -4.1611001  
C    5.7629687    0.0029804   -5.2839571  
O    5.3925537    0.0031985   -6.4506159  
C    7.2958235    0.0045458   -4.9836904  
O    8.0824529    0.0057183   -5.9209602  
C    7.7361582    0.0044924   -3.5908671  
H    3.7780219    0.0000955   -4.3634394  
H    8.7991574    0.0057871   -3.3914808  
H    5.3226856   -0.0000553    0.3589367  
C    3.2573665   -0.0002920   -1.5109385  
C    2.5379463   -0.0001709   -0.3591964  
C    1.1435038    0.0000331   -0.7338500  
C    1.1092599   -0.0000083   -2.2088477  
N    2.4227553    0.0001909   -2.6182613  
C   -0.0265539   -0.0002524   -2.9515660  
C   -1.3003040   -0.0002640   -2.2514977  
O   -2.3786790   -0.0004133   -2.8306421  
C   -1.2877727    0.0000311   -0.6895603  
O   -2.3539959    0.0003306   -0.0892030  
C    0.0000000    0.0000000    0.0000000  
H    2.9384091   -0.0000367    0.6389234  
H   -0.0296303   -0.0004086   -4.0327229  
H    2.7280482   -0.0013407   -3.5742119  
C    0.8400945    0.7047457    2.2710304  
C    0.0000000    0.0000000    1.4700000  
C   -0.8844236   -0.7423113    2.3369512  
C   -0.4878984   -0.4098547    3.7186280  
N    0.5629682    0.4714286    3.6095011  
C   -1.0836927   -0.9095027    4.8308716  
C   -2.1891196   -1.8367527    4.6554461  
O   -2.7906899   -2.3413415    5.5944904  
C   -2.6257283   -2.2031529    3.2011665  
O   -3.5549479   -2.9829990    3.0410059  
C   -1.9068976   -1.5999348    2.0816745  
H   -0.7774656   -0.6525820    5.8354244  
H   -2.2155208   -1.8586617    1.0779135  
H    1.6384792    1.3747609    1.9961646  
H    1.0518368    0.8833920    4.3830260  
