60

C    6.1310219   -2.1146959   -1.6340979  
C    7.4128806   -1.6153960   -1.6363628  
C    7.5169129   -0.7404121   -2.7580486  
C    6.2563166   -0.7455917   -3.4082763  
N    5.4386610   -1.5917379   -2.7011031  
C    5.9945976    0.0077625   -4.5566444  
C    7.0241082    0.7806560   -5.0575648  
O    6.8228043    1.5359998   -6.1764687  
C    8.2890077    0.7987721   -4.4231208  
O    9.2101021    1.6177038   -5.0430242  
C    8.5479913    0.0556123   -3.2903516  
H    8.1790848   -1.8534855   -0.9185612  
H    4.4786888   -1.7883506   -2.9196841  
H    7.6567718    1.9906689   -6.3526503  
H   10.0362440    1.5725273   -4.5520545  
H    9.5268317    0.0895536   -2.8264585  
H    5.6562614   -2.8035891   -0.9566129  
C    1.7334697    0.0049246   -3.2500361  
C    3.0863258    0.0047395   -3.2131614  
C    3.4995613    0.0065854   -4.6080567  
C    2.2333973    0.0076339   -5.3718701  
N    1.1947442    0.0067482   -4.5811810  
C    2.2116358    0.0095928   -6.8087451  
C    3.4007181    0.0108539   -7.4532716  
O    3.5293452    0.0127176   -8.7909908  
C    4.6955643    0.0102154   -6.7106176  
O    5.7398288    0.0113176   -7.3623315  
C    4.6914550    0.0081545   -5.2368793  
H    3.7249597    0.0035934   -2.3464312  
H    1.2717200    0.0101175   -7.3411622  
H    4.4909169    0.0132660   -8.9476192  
C    1.1319247    0.0015655   -0.8009267  
C    0.7969916    0.0034943   -2.1169401  
C   -0.6453337    0.0035710   -2.1842668  
C   -1.1266832    0.0015433   -0.7896026  
N    0.0000000    0.0000000    0.0000000  
C   -2.4346130    0.0013964   -0.4276294  
C   -3.4350109    0.0031408   -1.4820183  
O   -4.6384610    0.0030973   -1.2583915  
C   -2.9478956    0.0050505   -2.9661075  
O   -3.7809378    0.0062218   -3.8623775  
C   -1.5113821    0.0053090   -3.2312122  
H   -2.7664565    0.0000232    0.6013446  
H   -1.1823527    0.0068407   -4.2614846  
H    2.1104317    0.0009391   -0.3488056  
C    2.5128556    2.1077716    2.9199648  
C    1.9592212    1.6432552    4.0696553  
C    0.8915788    0.7479214    3.6910360  
C    0.8684491    0.7287414    2.2159470  
N    1.8754542    1.5738793    1.8102719  
C    0.0000000    0.0000000    1.4700000  
C   -0.9772830   -0.8200135    2.1664417  
O   -1.8021297   -1.5120829    1.5842315  
C   -0.9711318   -0.8147624    3.7284083  
O   -1.7894187   -1.5009653    4.3257297  
C    0.0140216    0.0115358    4.4216297  
H    2.2638494    1.8988021    5.0689105  
H    0.0117648    0.0094386    5.5031631  
H    3.3327358    2.7953732    2.7900019  
H    2.1123206    1.7707734    0.8551938  
