62

C   -1.1176505   -0.0521134   -0.8003809  
C    0.0000000    0.0000000    0.0000000  
C    1.1312363    0.0510231   -0.8673527  
C    0.6376847    0.0272943   -2.1969285  
N   -0.7314558   -0.0374195   -2.1202244  
C    1.4756631    0.0649856   -3.3154813  
C    2.8366576    0.1280815   -3.0876858  
O    3.7001373    0.1673593   -4.1440355  
C    3.3483267    0.1522647   -1.7684333  
O    4.7251323    0.2156046   -1.7073133  
C    2.5222414    0.1148357   -0.6644823  
H    1.1057622    0.0470425   -4.3313814  
H    4.5892729    0.2084228   -3.7685140  
H    4.9882430    0.2281900   -0.7819921  
H    2.9431858    0.1345058    0.3339647  
H   -2.1596737   -0.1000465   -0.5342067  
C   -1.6465705   -0.0655425   -3.2703002  
C   -2.9984900   -0.1267747   -3.2583476  
C   -3.3862979   -0.1281788   -4.6605260  
C   -2.1079748   -0.0617870   -5.4008409  
N   -1.0846813   -0.0249322   -4.5912115  
C   -2.0605473   -0.0431450   -6.8369778  
C   -3.2366809   -0.0891435   -7.5032585  
O   -3.3412354   -0.0785314   -8.8430335  
C   -4.5432553   -0.1569476   -6.7846300  
O   -5.5746212   -0.1961690   -7.4554254  
C   -4.5655046   -0.1748264   -5.3111612  
H   -3.6518638   -0.1662191   -2.4035830  
H   -1.1122339    0.0059210   -7.3519572  
H   -4.2988527   -0.1202365   -9.0173386  
C   -5.8792426   -0.2423979   -4.6550921  
C   -6.1737821   -0.2707848   -3.3297559  
C   -7.6118893   -0.3379618   -3.2194445  
C   -8.1347837   -0.3464747   -4.5990461  
N   -7.0337520   -0.2863516   -5.4218485  
C   -9.4516919   -0.4036372   -4.9218290  
C  -10.4186115   -0.4603503   -3.8381392  
O  -11.6270096   -0.5139535   -4.0257617  
C   -9.8872615   -0.4522016   -2.3693280  
O  -10.6918869   -0.4992991   -1.4486642  
C   -8.4448878   -0.3884084   -2.1472015  
H   -5.4645654   -0.2471585   -2.5216300  
H   -9.8142163   -0.4089660   -5.9403861  
H   -8.0851270   -0.3833785   -1.1272646  
H   -7.0641009   -0.2779567   -6.4248719  
C    0.8576279    0.7185626    2.2703808  
C    0.0000000    0.0000000    1.4700000  
C   -0.8668858   -0.7285659    2.3373528  
C   -0.4876752   -0.4117774    3.6669281  
N    0.5635254    0.4678311    3.5902241  
C   -1.1297612   -0.9515493    4.7854808  
C   -2.1738724   -1.8268314    4.5576857  
O   -2.8357962   -2.3827064    5.6140350  
C   -2.5667212   -2.1555554    3.2384331  
O   -3.6226318   -3.0413663    3.1773122  
C   -1.9335634   -1.6236449    2.1344818  
H    1.0363952    0.8769718    4.3757045  
H   -0.8454472   -0.7142436    5.8013813  
H   -3.5178062   -2.9546422    5.2385129  
H   -3.8247440   -3.2102924    2.2519915  
H   -2.2566033   -1.8942483    1.1360343  
H    1.6567807    1.3889844    2.0042067  
