62

C    8.0998744   -0.7255010    1.3173981  
C    8.7105012   -0.0061705    0.3163157  
C    9.7801064    0.7203207    0.9186076  
C    9.7734055    0.4015335    2.3007280  
N    8.7395177   -0.4772173    2.5092709  
C   10.6941277    0.9389594    3.2052907  
C   11.6390131    1.8139066    2.7054531  
O   12.5620683    2.3675274    3.5447903  
C   11.6616442    2.1446018    1.3296098  
O   12.6628810    3.0297863    0.9870936  
C   10.7534693    1.6150068    0.4367090  
H    8.4957014   -0.8873663    3.3926238  
H   10.6942443    0.7001225    4.2598803  
H   13.1180807    2.9396297    2.9999838  
H   12.6079787    3.2001460    0.0418071  
H   10.7953880    1.8870843   -0.6114775  
H    7.2577879   -1.3949172    1.2757859  
C    4.7161325   -0.0005435   -1.6923264  
C    5.7254235   -0.0020770   -0.7575556  
C    6.9579233   -0.0022047   -1.4755696  
C    6.6349842   -0.0004112   -2.8567408  
N    5.2655550   -0.0013886   -2.9530733  
C    7.6078547    0.0002826   -3.8608869  
C    8.9308324   -0.0005479   -3.4635103  
O    9.9212226    0.0004256   -4.4027325  
C    9.2730455   -0.0027122   -2.0903013  
O   10.6326707   -0.0037232   -1.8562870  
C    8.3138093   -0.0036710   -1.0991449  
H    5.5899958   -0.0040966    0.3104558  
H    4.7441078    0.0100272   -3.8109451  
H    7.3682591    0.0015041   -4.9153037  
H   10.7569961   -0.0006985   -3.9182258  
H   10.7775870   -0.0051496   -0.9051819  
C    3.2573665   -0.0002920   -1.5109385  
C    2.5379463   -0.0001709   -0.3591964  
C    1.1435038    0.0000331   -0.7338500  
C    1.1092599   -0.0000083   -2.2088477  
N    2.4227553    0.0001909   -2.6182613  
C   -0.0265539   -0.0002524   -2.9515660  
C   -1.3003040   -0.0002640   -2.2514977  
O   -2.3786790   -0.0004133   -2.8306421  
C   -1.2877727    0.0000311   -0.6895603  
O   -2.3539959    0.0003306   -0.0892030  
C    0.0000000    0.0000000    0.0000000  
H    2.9384091   -0.0000367    0.6389234  
H   -0.0296303   -0.0004086   -4.0327229  
H    2.7280482   -0.0013407   -3.5742119  
C    0.0000000    0.0000000    1.4700000  
C    1.0662921    0.0000102    2.3034270  
C    0.4961870   -0.0000064    3.6418889  
C   -0.9663858    0.0000850    3.4240247  
N   -1.2632773    0.0000084    2.1528658  
C   -1.8985362    0.0000517    4.5177257  
C   -1.3925775   -0.0004564    5.7720543  
O   -2.1456383   -0.0005410    6.8851312  
C    0.0786232   -0.0009323    6.0245000  
O    0.4683759   -0.0012588    7.1921102  
C    1.0143166   -0.0008442    4.8859032  
H    2.1107198   -0.0000632    2.0421868  
H   -2.9622183    0.0003270    4.3293377  
H   -1.5042274   -0.0009692    7.6184419  
H    2.0724152   -0.0013148    5.1109744  
