62

C    2.5882521   -3.1645385   -8.1013900  
C    2.1106077   -1.9150145   -7.7804345  
C    2.5062339   -1.0354464   -8.8313579  
C    3.2284570   -1.8113965   -9.7738122  
N    3.2612311   -3.0990502   -9.2989536  
C    3.7706695   -1.2692055  -10.9429249  
C    3.5800728    0.0808361  -11.1648230  
O    4.0880591    0.6615713  -12.2907497  
C    2.8626278    0.8717493  -10.2360902  
O    2.7588179    2.1986480  -10.5992784  
C    2.3276771    0.3375885   -9.0823892  
H    3.6966502   -3.8769841   -9.7607021  
H    4.3222514   -1.8551938  -11.6651268  
H    3.8450706    1.5956628  -12.2495895  
H    2.2605754    2.6620638   -9.9191284  
H    1.7830920    0.9683362   -8.3895229  
H    2.5033576   -4.0970061   -7.5701123  
C    1.5647265   -2.0539606   -5.3222415  
C    1.3415396   -1.5772678   -6.5740504  
C    0.2114929   -0.6825501   -6.4885493  
C   -0.2083727   -0.6770014   -5.0741691  
N    0.6518900   -1.5286394   -4.4202953  
C   -1.2456329    0.0471727   -4.5828766  
C   -1.9989042    0.8763051   -5.5089746  
O   -2.9500475    1.5652089   -5.1639546  
C   -1.5719694    0.8855377   -7.0114550  
O   -2.1988660    1.5795073   -7.8005473  
C   -0.4365508    0.0630003   -7.4214648  
H   -0.1472075    0.0751442   -8.4635094  
H    2.3191289   -2.7449942   -4.9827737  
H    0.6225287   -1.7350432   -3.4386730  
C    1.1243410    0.0099923   -0.7919003  
C    0.7474076    0.0234544   -2.1148543  
C   -0.6787381    0.0234490   -2.1414700  
C   -1.1201745    0.0098592   -0.7935546  
N    0.0000000    0.0000000    0.0000000  
C   -2.4730816    0.0063709   -0.4408240  
C   -3.3971958    0.0170982   -1.4675058  
O   -4.7313517    0.0146259   -1.1793471  
C   -2.9763648    0.0303504   -2.8186324  
O   -4.0166480    0.0395118   -3.7247624  
C   -1.6418562    0.0335260   -3.1673481  
H    1.4178717    0.0310972   -2.9571209  
H   -2.8160166   -0.0041111    0.5845966  
H   -5.1938818    0.0230867   -2.0274384  
H   -3.6464675    0.0482293   -4.6127343  
H    2.1062467    0.0052819   -0.3505407  
C    0.8400945    0.7047457    2.2710304  
C    0.0000000    0.0000000    1.4700000  
C   -0.8844236   -0.7423113    2.3369512  
C   -0.4878984   -0.4098547    3.7186280  
N    0.5629682    0.4714286    3.6095011  
C   -1.0836927   -0.9095027    4.8308716  
C   -2.1891196   -1.8367527    4.6554461  
O   -2.7906899   -2.3413415    5.5944904  
C   -2.6257283   -2.2031529    3.2011665  
O   -3.5549479   -2.9829990    3.0410059  
C   -1.9068976   -1.5999348    2.0816745  
H   -0.7774656   -0.6525820    5.8354244  
H   -2.2155208   -1.8586617    1.0779135  
H    1.6384792    1.3747609    1.9961646  
H    1.0518368    0.8833920    4.3830260  
