62

C    0.1815270   -1.1454153   -9.6308646  
C    0.0469687   -0.7428340  -10.9394106  
C   -0.2113827    0.6598201  -10.9190270  
C   -0.2227670    1.0612067   -9.5586279  
N    0.0171479   -0.0595767   -8.8030473  
C   -0.4484373    2.3827485   -9.1619041  
C   -0.6662879    3.3161508  -10.1566298  
O   -0.8914856    4.6208850   -9.8250174  
C   -0.6591381    2.9350318  -11.5195367  
O   -0.8921568    3.9796622  -12.3900500  
C   -0.4368448    1.6314317  -11.9116309  
H    0.1242903   -1.3817622  -11.8024200  
H   -0.4585197    2.6950695   -8.1267447  
H   -1.0176774    5.0960958  -10.6565913  
H   -0.8705987    3.6371630  -13.2888455  
H   -0.4374225    1.3694072  -12.9632114  
H    0.3803297   -2.1214580   -9.2224812  
C    2.6001989   -2.1411816   -5.8266046  
C    2.0730546   -1.7332818   -7.0044479  
C    0.9991589   -0.8222833   -6.6393046  
C    1.0189899   -0.7962635   -5.1609565  
N    1.9554493   -1.5673975   -4.6788913  
C    0.0950446    0.0004351   -4.4015596  
C   -0.8074266    0.7379268   -5.0878442  
O   -1.7282259    1.5268492   -4.5083866  
C   -0.8524305    0.7331199   -6.5798603  
O   -1.7006931    1.4286189   -7.1383869  
C    0.1059497   -0.0924311   -7.3360995  
H    2.3756471   -2.0156472   -7.9983212  
H   -2.2213255    1.9193581   -5.2513151  
H    3.4197068   -2.8236756   -5.6666595  
C    3.3321173    0.0004713   -1.3379338  
C    2.6974181    0.0000116   -2.5332314  
C    1.2800438   -0.0002119   -2.2052841  
C    1.2395034    0.0000643   -0.7271299  
N    2.4394062    0.0005460   -0.2131038  
C    0.0000000    0.0000000    0.0000000  
C   -1.1468702    0.0000634   -0.7169543  
O   -2.3742203    0.0000074   -0.1695487  
C   -1.1388770    0.0001607   -2.2096355  
O   -2.2206234    0.0000905   -2.7970411  
C    0.1454522    0.0001815   -2.9324241  
H    3.1367984   -0.0000653   -3.5160950  
H   -2.9844346    0.0001026   -0.9290167  
H    4.3940038    0.0007618   -1.1498640  
C    0.8676693    0.7151171    2.2619005  
C    0.5875920    0.4624972    3.5848544  
C   -0.5048400   -0.4542819    3.6114698  
C   -0.8517165   -0.7276451    2.2635546  
N    0.0000000    0.0000000    1.4700000  
C   -1.8902865   -1.5946756    1.9108239  
C   -2.5912627   -2.1969500    2.9375057  
O   -3.6148162   -3.0527051    2.6493466  
C   -2.2603868   -1.9365747    4.2886322  
O   -3.0513550   -2.6123276    5.1947621  
C   -1.2361111   -1.0811317    4.6373480  
H    1.1060808    0.8876438    4.4271209  
H   -2.1597133   -1.8070987    0.8854031  
H   -3.9636755   -3.3565188    3.4974381  
H   -2.7621927   -2.3810384    6.0827341  
H   -1.0058879   -0.9010589    5.6809233  
H    1.6167816    1.3499334    1.8205408  
