62

C    4.1924027    0.0106019   -8.2378397  
C    5.2277505   -0.6664772   -8.8395773  
C    5.2146655   -0.3059728  -10.2196005  
C    4.1402263    0.6018085  -10.4024656  
N    3.5393462    0.7706573   -9.1797432  
C    3.8296699    1.1659407  -11.6434727  
C    4.6183048    0.8073718  -12.7194201  
O    4.3593890    1.3289266  -13.9539063  
C    5.6945590   -0.0971378  -12.5570734  
O    6.3850576   -0.3545480  -13.7233880  
C    6.0013391   -0.6542651  -11.3331353  
H    5.9079899   -1.3384990   -8.3449513  
H    2.7531721    1.3677320   -8.9969531  
H    3.0120364    1.8583000  -11.7894752  
H    5.0177484    0.9530407  -14.5526862  
H    7.0946128   -0.9736949  -13.5264303  
H    6.8317180   -1.3443286  -11.2395297  
C    5.7052416   -2.0986834   -4.6958674  
C    4.8302129   -1.6343311   -3.7670098  
C    3.9272652   -0.7382853   -4.4501079  
C    4.3509922   -0.7185537   -5.8632095  
N    5.4336790   -1.5634480   -5.9458739  
C    3.7483770    0.0103196   -6.8365047  
C    2.6063700    0.8302495   -6.4676276  
O    1.9959438    1.5225185   -7.2716456  
C    2.1405132    0.8248035   -4.9767381  
O    1.1803932    1.5114043   -4.6542322  
C    2.8699641   -0.0020530   -4.0185824  
H    4.8187253   -1.8901546   -2.7224834  
H    6.5257690   -2.7867004   -4.5723455  
H    5.9462313   -1.7623474   -6.7853834  
C    3.2573670   -0.0002921   -1.5109382  
C    2.5379468   -0.0001711   -0.3591962  
C    1.1435043    0.0000330   -0.7338498  
C    1.1092608   -0.0000085   -2.2088474  
N    2.4227562    0.0001906   -2.6182610  
C   -0.0265533   -0.0002525   -2.9515663  
C   -1.3003033   -0.0002641   -2.2514979  
O   -2.3786785   -0.0004132   -2.8306425  
C   -1.2877724    0.0000310   -0.6895608  
O   -2.3539956    0.0003306   -0.0892035  
C    0.0000000    0.0000000    0.0000000  
H    2.9384091   -0.0000370    0.6389240  
H   -0.0296290   -0.0004088   -4.0327231  
H    4.3270394   -0.0004767   -1.6439445  
C    0.8576279    0.7185626    2.2703808  
C    0.0000000    0.0000000    1.4700000  
C   -0.8668858   -0.7285659    2.3373528  
C   -0.4876752   -0.4117774    3.6669281  
N    0.5635254    0.4678311    3.5902241  
C   -1.1297612   -0.9515493    4.7854808  
C   -2.1738724   -1.8268314    4.5576857  
O   -2.8357962   -2.3827064    5.6140350  
C   -2.5667212   -2.1555554    3.2384331  
O   -3.6226318   -3.0413663    3.1773122  
C   -1.9335634   -1.6236449    2.1344818  
H    1.0363952    0.8769718    4.3757045  
H   -0.8454472   -0.7142436    5.8013813  
H   -3.5178062   -2.9546422    5.2385129  
H   -3.8247440   -3.2102924    2.2519915  
H   -2.2566033   -1.8942483    1.1360343  
H    1.6567807    1.3889844    2.0042067  
