64

C   -4.5792676    3.0356929    0.7720045  
C   -3.5716512    3.6847089    1.4472482  
C   -4.1913577    4.4776587    2.4580865  
C   -5.5903773    4.2700089    2.3506031  
N   -5.7915663    3.3906562    1.3157704  
C   -6.5147011    4.8957229    3.1925638  
C   -6.0176487    5.7463221    4.1608600  
O   -6.8760065    6.3830207    5.0098878  
C   -4.6250935    5.9666513    4.2835892  
O   -4.2877864    6.8410963    5.2959685  
C   -3.7126637    5.3499166    3.4531456  
H   -2.5194860    3.5982123    1.2363928  
H   -6.6845380    3.0475561    1.0110329  
H   -7.5822193    4.7417732    3.1157055  
H   -6.3297293    6.9206172    5.5979672  
H   -3.3303575    6.9344442    5.3108150  
H   -2.6519589    5.5383269    3.5709805  
C   -4.5109066    2.0977186   -0.3577882  
C   -3.4201852    1.6341426   -1.0207354  
C   -3.9001608    0.7380703   -2.0461684  
C   -5.3704640    0.7174766   -1.9254402  
N   -5.6768568    1.5619478   -0.8833837  
C   -6.1968217   -0.0116751   -2.7173833  
C   -5.5981514   -0.8310170   -3.7579637  
O   -6.2573266   -1.5234764   -4.5223515  
C   -4.0429937   -0.8246547   -3.9037356  
O   -3.5275661   -1.5107550   -4.7760093  
C   -3.2578655    0.0024282   -2.9908505  
H   -2.3962315    1.8904974   -0.8147870  
H   -7.2728523   -0.0125179   -2.6121841  
H   -6.6046845    1.7602432   -0.5564866  
C    0.0000000    0.0000000    0.0000000  
C    1.0521666   -0.0011982   -0.8862343  
C    0.4917215   -0.0011996   -2.1979132  
C   -0.9187429    0.0003215   -2.0478682  
N   -1.1833171   -0.0009323   -0.7007913  
C   -1.7951703    0.0010483   -3.1372089  
C   -1.2375841    0.0005313   -4.4010422  
O   -2.0474218    0.0015510   -5.4997578  
C    0.1673576   -0.0013585   -4.5711963  
O    0.5673520   -0.0020735   -5.8915554  
C    1.0325768   -0.0023493   -3.4969892  
H    2.0953056   -0.0030808   -0.6200564  
H   -2.0989778    0.0102529   -0.2891822  
H   -1.4634888    0.0006601   -6.2693595  
H    1.5290707   -0.0033271   -5.9180047  
H    2.1042146   -0.0039770   -3.6584456  
C    3.3041272   -0.0001177    3.0120429  
C    2.5845372    0.0004780    1.8395852  
C    1.2040006    0.0000008    2.1983588  
C    1.1422373   -0.0006037    3.6154372  
N    2.4348639   -0.0026109    4.0777464  
C   -0.0655181   -0.0008797    4.3197917  
C   -1.2321768   -0.0002324    3.5801400  
O   -2.4392816   -0.0001146    4.2172520  
C   -1.1911209    0.0000007    2.1655264  
O   -2.4371527    0.0002320    1.5732860  
C    0.0000000    0.0000000    1.4700000  
H    3.0031534    0.0000661    0.8477417  
H    2.7054629    0.0071099    5.0445261  
H   -0.1193549   -0.0014844    5.3997470  
H   -3.1132988    0.0000648    3.5251786  
H   -2.3200282    0.0004071    0.6183591  
H    4.3686625   -0.0004071    3.1724291  
