62

C    0.0950458    0.0004351   -4.4015596  
C    1.1162051    0.0003983   -5.3233520  
C    0.5111117    0.0000861   -6.6150416  
C   -0.8933793    0.0002293   -6.4167188  
N   -1.1116045   -0.0015105   -5.0613625  
C   -1.8066450    0.0003039   -7.4753665  
C   -1.2927241    0.0005396   -8.7575773  
O   -2.1397618    0.0009726   -9.8278760  
C    0.1055576    0.0000260   -8.9758068  
O    0.4600412   -0.0000780  -10.3091046  
C    1.0071038   -0.0003211   -7.9319000  
H    2.1678592   -0.0005304   -5.0931005  
H   -2.0126226    0.0087260   -4.6185953  
H   -2.8782450    0.0002691   -7.3308775  
H   -1.5825620    0.0007744  -10.6170477  
H    1.4202883   -0.0004054  -10.3685169  
H    2.0725757   -0.0008938   -8.1300089  
C    3.3321177    0.0004714   -1.3379329  
C    2.6974191    0.0000116   -2.5332309  
C    1.2800443   -0.0002118   -2.2052838  
C    1.2395035    0.0000643   -0.7271296  
N    2.4394066    0.0005460   -0.2131032  
C    0.0000000    0.0000000    0.0000000  
C   -1.1468697    0.0000634   -0.7169547  
O   -2.3742196    0.0000072   -0.1695495  
C   -1.1388763    0.0001605   -2.2096359  
O   -2.2206227    0.0000904   -2.7970417  
C    0.1454530    0.0001814   -2.9324241  
H    3.1367996   -0.0000651   -3.5160943  
H   -2.9844343    0.0001024   -0.9290175  
C    5.7851541    0.0009359   -1.9873434  
C    4.7795907    0.0008674   -1.0815719  
C    5.4416660    0.0014225    0.2138649  
C    6.8854807    0.0016742   -0.1054838  
N    7.0929848    0.0014715   -1.3942552  
C    7.8916465    0.0022766    0.9205355  
C    7.4744102    0.0030013    2.2070999  
O    8.3032742    0.0036108    3.2649392  
C    6.0244003    0.0031415    2.5615475  
O    5.7170384    0.0036921    3.7534991  
C    5.0115685    0.0024706    1.4909891  
H    8.9395973    0.0022422    0.6584138  
H    7.7145744    0.0040699    4.0412026  
H    3.9717454    0.0027122    1.7893149  
H    5.7099343    0.0006292   -3.0631292  
C    0.8676693    0.7151171    2.2619005  
C    0.5875920    0.4624972    3.5848544  
C   -0.5048400   -0.4542819    3.6114698  
C   -0.8517165   -0.7276451    2.2635546  
N    0.0000000    0.0000000    1.4700000  
C   -1.8902865   -1.5946756    1.9108239  
C   -2.5912627   -2.1969500    2.9375057  
O   -3.6148162   -3.0527051    2.6493466  
C   -2.2603868   -1.9365747    4.2886322  
O   -3.0513550   -2.6123276    5.1947621  
C   -1.2361111   -1.0811317    4.6373480  
H    1.1060808    0.8876438    4.4271209  
H   -2.1597133   -1.8070987    0.8854031  
H   -3.9636755   -3.3565188    3.4974381  
H   -2.7621927   -2.3810384    6.0827341  
H   -1.0058879   -0.9010589    5.6809233  
H    1.6167816    1.3499334    1.8205408  
