60

C    7.4553163   -0.0024612    3.7742839  
C    6.3792085   -0.0007574    2.9172790  
C    5.2036076   -0.0005629    3.7250921  
C    5.6285163   -0.0019184    5.0783759  
N    7.0013138   -0.0049998    5.0724461  
C    4.7331340   -0.0018245    6.1521910  
C    3.3842361   -0.0000280    5.8544504  
O    2.4665480    0.0004967    6.8648273  
C    2.9406998    0.0009681    4.5105414  
O    1.5674226    0.0023163    4.3784383  
C    3.8234521    0.0006029    3.4506953  
H    7.5852203    0.0040110    5.8891176  
H    5.0505950   -0.0029974    7.1858346  
H    1.5970112    0.0014878    6.4439127  
H    1.3520724    0.0029500    3.4407669  
H    3.4540899    0.0012072    2.4318482  
H    8.5107766   -0.0035124    3.5622476  
C    6.4550021   -0.0009256    1.4492341  
C    7.5628472   -0.0014710    0.6718940  
C    7.0625120   -0.0013725   -0.6941823  
C    5.5906518   -0.0008359   -0.5520184  
N    5.2286141   -0.0004914    0.7021417  
C    4.7161325   -0.0005435   -1.6923264  
C    5.2860918   -0.0003877   -2.9188995  
O    4.5914234   -0.0001200   -4.0693241  
C    6.7683519   -0.0005473   -3.0951539  
O    7.2177885   -0.0005152   -4.2411155  
C    7.6440943   -0.0008908   -1.9098274  
H    8.5924168   -0.0017982    0.9866378  
H    5.2697908   -0.0000402   -4.7685881  
H    8.7123897   -0.0008822   -2.0800432  
C    3.2573665   -0.0002920   -1.5109385  
C    2.5379463   -0.0001709   -0.3591964  
C    1.1435038    0.0000331   -0.7338500  
C    1.1092599   -0.0000083   -2.2088477  
N    2.4227553    0.0001909   -2.6182613  
C   -0.0265539   -0.0002524   -2.9515660  
C   -1.3003040   -0.0002640   -2.2514977  
O   -2.3786790   -0.0004133   -2.8306421  
C   -1.2877727    0.0000311   -0.6895603  
O   -2.3539959    0.0003306   -0.0892030  
C    0.0000000    0.0000000    0.0000000  
H    2.9384091   -0.0000367    0.6389234  
H   -0.0296303   -0.0004086   -4.0327229  
H    2.7280482   -0.0013407   -3.5742119  
C    0.8175213    0.6860729    2.3021913  
C    0.0000000    0.0000000    1.4700000  
C   -0.8887526   -0.7456559    2.3478473  
C   -0.4549825   -0.3816753    3.7138435  
N    0.5448156    0.4573574    3.6934124  
C   -1.0945674   -0.9182058    4.8835240  
C   -2.1210866   -1.7789155    4.6970523  
O   -2.8083856   -2.3554314    5.6976972  
C   -2.5824069   -2.1655116    3.3310774  
O   -3.5227682   -2.9541547    3.2362962  
C   -1.9100805   -1.6015804    2.1470656  
H   -0.7567140   -0.6349833    5.8697035  
H   -3.4728268   -2.9124471    5.2533954  
H   -2.2742832   -1.9066565    1.1752040  
H    1.6189533    1.3585343    2.0405121  
