64

C    4.1463353    0.6296484   -8.6040916  
C    5.2404973   -0.2009872   -8.6770442  
C    5.7127572   -0.1503328  -10.0220361  
C    4.8601298    0.7353940  -10.7294542  
N    3.9188517    1.1896937   -9.8393850  
C    5.0299401    1.0261722  -12.0864368  
C    6.0797770    0.4118546  -12.7411392  
O    6.2914130    0.6605941  -14.0664132  
C    6.9410876   -0.4752308  -12.0526334  
O    7.9388068   -1.0069458  -12.8433167  
C    6.7739981   -0.7627642  -10.7140039  
H    5.6474618   -0.7738905   -7.8614737  
H    3.1855016    1.8414409  -10.0524691  
H    4.3834796    1.7002152  -12.6313758  
H    7.0628699    0.1385017  -14.3224190  
H    8.4751517   -1.5943993  -12.3021739  
H    7.4496025   -1.4464907  -10.2134486  
C    4.1935182   -0.7177397   -4.3920615  
C    3.1006054    0.0006263   -3.9654951  
C    2.6156864    0.7290728   -5.0919139  
C    3.4596601    0.4124174   -6.1870684  
N    4.4081828   -0.4670001   -5.7271261  
C    3.2765219    0.9521235   -7.4637701  
C    2.2220072    1.8272015   -7.6381675  
O    1.9974358    2.3830042   -8.8644082  
C    1.3691758    2.1557904   -6.5576468  
O    0.3653186    3.0414031   -6.8912717  
C    1.5494153    1.6239446   -5.2978134  
H    5.1380330   -0.8760161   -6.2821091  
H    1.2248040    2.9547960   -8.7676622  
H   -0.1646158    3.2102480   -6.1062464  
H    0.8800662    1.8944410   -4.4895550  
H    4.8377618   -1.3880262   -3.8492675  
C    3.2798083    0.0005857   -1.4499652  
C    2.5571142    0.0005565   -2.5996556  
C    1.1637432    0.0001548   -2.2210361  
C    1.1336964   -0.0000200   -0.7459473  
N    2.4483512   -0.0001428   -0.3402723  
C    0.0000000    0.0000000    0.0000000  
C   -1.2757368   -0.0000186   -0.6964415  
O   -2.3524598   -0.0000639   -0.1142311  
C   -1.2676497   -0.0000872   -2.2584083  
O   -2.3355766   -0.0004101   -2.8557295  
C    0.0181558    0.0001758   -2.9516296  
H    0.0150788    0.0003319   -4.0331631  
H    4.3498547    0.0008612   -1.3200026  
H    2.7563626    0.0012823    0.6148059  
C    0.8676693    0.7151171    2.2619005  
C    0.5875920    0.4624972    3.5848544  
C   -0.5048400   -0.4542819    3.6114698  
C   -0.8517165   -0.7276451    2.2635546  
N    0.0000000    0.0000000    1.4700000  
C   -1.8902865   -1.5946756    1.9108239  
C   -2.5912627   -2.1969500    2.9375057  
O   -3.6148162   -3.0527051    2.6493466  
C   -2.2603868   -1.9365747    4.2886322  
O   -3.0513550   -2.6123276    5.1947621  
C   -1.2361111   -1.0811317    4.6373480  
H    1.1060808    0.8876438    4.4271209  
H   -2.1597133   -1.8070987    0.8854031  
H   -3.9636755   -3.3565188    3.4974381  
H   -2.7621927   -2.3810384    6.0827341  
H   -1.0058879   -0.9010589    5.6809233  
H    1.6167816    1.3499334    1.8205408  
