60

C    5.1312150   -4.2739463   -7.2434533  
C    4.0443956   -3.4702296   -6.9878567  
C    3.7522392   -3.5948701   -5.5972782  
C    4.7024522   -4.4954689   -5.0514357  
N    5.5235379   -4.8903304   -6.0783340  
C    4.7155254   -4.8537305   -3.7000417  
C    3.7519967   -4.2923869   -2.8847608  
O    3.7193149   -4.6074612   -1.5571033  
C    2.7951725   -3.3920743   -3.4108237  
O    1.9018118   -2.9191477   -2.4718936  
C    2.7815116   -3.0383984   -4.7439604  
H    3.5252718   -2.8690197   -7.7145272  
H    6.3000255   -5.5207310   -5.9909168  
H    5.4369539   -5.5396727   -3.2778742  
H    2.9804340   -4.1142551   -1.1775402  
H    1.2908080   -2.3181708   -2.9090495  
H    5.6566943   -4.4573942   -8.1649616  
C    1.7704311   -2.0997828   -5.2515196  
C    1.5928577   -1.6333161   -6.5144339  
C    0.4607450   -0.7379004   -6.4771953  
C   -0.0100427   -0.7207974   -5.0790333  
N    0.8257125   -1.5670937   -4.3875237  
C   -1.0641734    0.0073898   -4.6315339  
C   -1.7831605    0.8289565   -5.5910241  
O   -2.7459477    1.5206786   -5.2862916  
C   -1.3021146    0.8259153   -7.0770899  
O   -1.8998129    1.5134388   -7.8939917  
C   -0.1528633    0.0000288   -7.4390073  
H    2.1870125   -1.8876235   -7.3740392  
H    0.1740146    0.0036602   -8.4699587  
H    0.7607707   -1.7654786   -3.4059568  
C    1.1319248    0.0015675   -0.8009270  
C    0.7969916    0.0034959   -2.1169404  
C   -0.6453336    0.0035703   -2.1842672  
C   -1.1266831    0.0015415   -0.7896027  
N    0.0000000    0.0000000    0.0000000  
C   -2.4346129    0.0013924   -0.4276297  
C   -3.4350110    0.0031352   -1.4820184  
O   -4.6384610    0.0030897   -1.2583919  
C   -2.9478958    0.0050460   -2.9661075  
O   -3.7809377    0.0062160   -3.8623775  
C   -1.5113821    0.0053068   -3.2312125  
H    1.4821240    0.0045436   -2.9459192  
H   -2.7664565    0.0000185    0.6013447  
H    2.1104318    0.0009428   -0.3488058  
C    0.8681109    0.7263879    2.2709268  
C    0.6127770    0.5096195    3.5869401  
C   -0.4920590   -0.4175482    3.6542670  
C   -0.8620974   -0.7254003    2.2596025  
N    0.0000000    0.0000000    1.4700000  
C   -1.8641242   -1.5660088    1.8976294  
C   -2.6293522   -2.2103885    2.9520183  
O   -3.5512764   -2.9839180    2.7283916  
C   -2.2549728   -1.8987399    4.4361073  
O   -2.8923672   -2.4351063    5.3323774  
C   -1.1543735   -0.9755647    4.7012123  
H    1.1382914    0.9492124    4.4159191  
H   -2.1192137   -1.7782617    0.8686553  
H   -0.9013378   -0.7652422    5.7314848  
H    1.6172880    1.3558399    1.8188057  
