60

C    5.7905898   -4.5979762   -5.9935852  
C    6.6712471   -4.3862251   -7.0289939  
C    6.5234839   -3.0252162   -7.4295191  
C    5.5301197   -2.4513741   -6.5953385  
N    5.1047711   -3.4340319   -5.7362228  
C    5.1260436   -1.1176540   -6.7080462  
C    5.7360896   -0.3491438   -7.6803701  
O    5.3795819    0.9594755   -7.8334433  
C    6.7290343   -0.9037382   -8.5225723  
O    7.2410522   -0.0106492   -9.4410344  
C    7.1279660   -2.2194812   -8.4121265  
H    7.3373418   -5.1224781   -7.4452188  
H    4.4103977   -3.3183862   -5.0203650  
H    5.9182778    1.3064545   -8.5564088  
H    7.9045361   -0.4646637   -9.9694883  
H    7.8909291   -2.6163858   -9.0715454  
H    5.5963862   -5.4875703   -5.4192464  
C    3.9401662   -0.7297680   -4.5164158  
C    4.0974221   -0.5149774   -5.8480354  
C    3.0659746    0.4122206   -6.2496016  
C    2.2893655    0.7222460   -5.0340560  
N    2.8699641   -0.0020530   -4.0185824  
C    1.2252011    1.5635274   -4.9952717  
C    0.8173872    2.2063902   -6.2333953  
O   -0.1284219    2.9803718   -6.3019358  
C    1.6253347    1.8924311   -7.5328016  
O    1.2911293    2.4275067   -8.5812588  
C    2.7538819    0.9687189   -7.4492039  
H    0.6692881    1.7773818   -4.0929764  
H    3.3082345    0.7567935   -8.3533637  
H    4.5159220   -1.3586198   -3.8569165  
C    3.2573670   -0.0002921   -1.5109382  
C    2.5379468   -0.0001711   -0.3591962  
C    1.1435043    0.0000330   -0.7338498  
C    1.1092608   -0.0000085   -2.2088474  
N    2.4227562    0.0001906   -2.6182610  
C   -0.0265533   -0.0002525   -2.9515663  
C   -1.3003033   -0.0002641   -2.2514979  
O   -2.3786785   -0.0004132   -2.8306425  
C   -1.2877724    0.0000310   -0.6895608  
O   -2.3539956    0.0003306   -0.0892035  
C    0.0000000    0.0000000    0.0000000  
H    2.9384091   -0.0000370    0.6389240  
H   -0.0296290   -0.0004088   -4.0327231  
H    4.3270394   -0.0004767   -1.6439445  
C    2.5128556    2.1077716    2.9199648  
C    1.9592212    1.6432552    4.0696553  
C    0.8915788    0.7479214    3.6910360  
C    0.8684491    0.7287414    2.2159470  
N    1.8754542    1.5738793    1.8102719  
C    0.0000000    0.0000000    1.4700000  
C   -0.9772830   -0.8200135    2.1664417  
O   -1.8021297   -1.5120829    1.5842315  
C   -0.9711318   -0.8147624    3.7284083  
O   -1.7894187   -1.5009653    4.3257297  
C    0.0140216    0.0115358    4.4216297  
H    2.2638494    1.8988021    5.0689105  
H    0.0117648    0.0094386    5.5031631  
H    3.3327358    2.7953732    2.7900019  
H    2.1123206    1.7707734    0.8551938  
