60

C   -0.2488924    0.7048142   -7.1873902  
C   -1.2612190    0.4539881   -8.0844678  
C   -0.7432770   -0.4561532   -9.0529608  
C    0.6013094   -0.7275035   -8.6918752  
N    0.8698757   -0.0050876   -7.5558273  
C    1.4226304   -1.5882500   -9.4262707  
C    0.8765585   -2.1861949  -10.5453981  
O    1.6342611   -3.0357523  -11.2984932  
C   -0.4628978   -1.9277348  -10.9220572  
O   -0.8595085   -2.5986197  -12.0604580  
C   -1.2736462   -1.0784894  -10.1981817  
H   -2.2508648    0.8760442   -8.0462106  
H    2.4482627   -1.7991084   -9.1564226  
H    1.0691628   -3.3373877  -12.0216434  
H   -1.7753289   -2.3690250  -12.2452902  
H   -2.2956588   -0.8997420  -10.5112598  
H   -0.2359308    1.3350489   -6.3146964  
C    1.6707638   -0.0012342   -3.2725973  
C    3.0236194   -0.0024591   -3.2357227  
C    3.4368536   -0.0041813   -4.6306186  
C    2.1706892   -0.0038457   -5.3944323  
N    1.1320373   -0.0020398   -4.6037431  
C    2.1489264   -0.0051902   -6.8313076  
C    3.3380085   -0.0064082   -7.4758355  
O    3.4666346   -0.0077442   -8.8135556  
C    4.6328546   -0.0064066   -6.7331821  
O    5.6771187   -0.0076791   -7.3848966  
C    4.6287467   -0.0050571   -5.2594432  
H    3.6622535   -0.0021326   -2.3689922  
H    4.4282060   -0.0083574   -8.9701849  
H    5.5877287   -0.0049857   -4.7588595  
C    1.0965515    0.0001359   -0.8010305  
C    0.0000000    0.0000000    0.0000000  
C   -1.1546564    0.0001470   -0.8669509  
C   -0.6372018    0.0003521   -2.2486279  
N    0.7342868    0.0007339   -2.1395011  
C   -1.4147743    0.0001355   -3.3608714  
C   -2.8576049   -0.0001046   -3.1854455  
O   -3.6427782   -0.0002491   -4.1244898  
C   -3.4275842   -0.0000725   -1.7311664  
O   -4.6406831    0.0000334   -1.5710053  
C   -2.4891868   -0.0001091   -0.6116742  
H   -1.0150456    0.0001619   -4.3654242  
H   -2.8919123   -0.0002920    0.3920869  
H    2.1388270    0.0000663   -0.5261648  
C    2.5528530    2.1414826    2.8079335  
C    2.0663498    1.7338582    4.0032312  
C    0.9804344    0.8229586    3.6752840  
C    0.9495562    0.7966882    2.1971295  
N    1.8690446    1.5676019    1.6831036  
C    0.0000000    0.0000000    1.4700000  
C   -0.8785127   -0.7372425    2.1869543  
O   -1.8187535   -1.5261249    1.6395491  
C   -0.8723269   -0.7321790    3.6796354  
O   -1.7010379   -1.4274584    4.2670412  
C    0.1115397    0.0933559    4.4024240  
H    2.4028853    2.0163452    4.9860947  
H   -2.2861435   -1.9184361    2.3990168  
H    0.0832434    0.0693689    5.4835595  
H    3.3664920    2.8238276    2.6198634  
