62

C   -0.5498954    0.8512957   -9.2769532  
C    0.5395710    0.0498515   -9.5283858  
C    0.8423474    0.1820863  -10.9159889  
C   -0.1040621    1.0852016  -11.4642751  
N   -0.9357891    1.4709452  -10.4424877  
C   -0.1065459    1.4511793  -12.8136603  
C    0.8642340    0.8955765  -13.6242589  
O    0.9077886    1.2188185  -14.9496383  
C    1.8169609   -0.0077024  -13.0958501  
O    2.7180734   -0.4747684  -14.0302948  
C    1.8198410   -0.3694075  -11.7648018  
H    1.0522471   -0.5564480   -8.8013668  
H   -1.6995957    2.1168634  -10.5283393  
H   -0.8252018    2.1388565  -13.2377308  
H    1.6498574    0.7280516  -15.3261326  
H    3.3256740   -1.0782090  -13.5917917  
H    2.5621171   -1.0637608  -11.3887995  
C    0.0031965   -0.7071080   -5.1230247  
C    0.1388991   -0.4524513   -6.4680903  
C   -0.8935437    0.4649985   -6.8243881  
C   -1.6340126    0.7366527   -5.6454747  
N   -1.0641734    0.0073898   -4.6315339  
C   -2.7305586    1.6037853   -5.6240971  
C   -3.0858948    2.2079204   -6.8144473  
O   -4.1484927    3.0638601   -6.8500301  
C   -2.3596894    1.9492677   -8.0012674  
O   -2.8374180    2.6267630   -9.1040457  
C   -1.2779805    1.0937256   -8.0231518  
H    0.8889975   -0.8767049   -7.1133462  
H   -3.2991457    1.8149115   -4.7289233  
H   -4.2227702    3.3690777   -7.7635887  
H   -2.2918483    2.3965647   -9.8623106  
H    0.5824520   -1.3429835   -4.4756575  
C    1.1319248    0.0015675   -0.8009270  
C    0.7969916    0.0034959   -2.1169404  
C   -0.6453336    0.0035703   -2.1842672  
C   -1.1266831    0.0015415   -0.7896027  
N    0.0000000    0.0000000    0.0000000  
C   -2.4346129    0.0013924   -0.4276297  
C   -3.4350110    0.0031352   -1.4820184  
O   -4.6384610    0.0030897   -1.2583919  
C   -2.9478958    0.0050460   -2.9661075  
O   -3.7809377    0.0062160   -3.8623775  
C   -1.5113821    0.0053068   -3.2312125  
H    1.4821240    0.0045436   -2.9459192  
H   -2.7664565    0.0000185    0.6013447  
H    2.1104318    0.0009428   -0.3488058  
C    0.8400945    0.7047457    2.2710304  
C    0.0000000    0.0000000    1.4700000  
C   -0.8844236   -0.7423113    2.3369512  
C   -0.4878984   -0.4098547    3.7186280  
N    0.5629682    0.4714286    3.6095011  
C   -1.0836927   -0.9095027    4.8308716  
C   -2.1891196   -1.8367527    4.6554461  
O   -2.7906899   -2.3413415    5.5944904  
C   -2.6257283   -2.2031529    3.2011665  
O   -3.5549479   -2.9829990    3.0410059  
C   -1.9068976   -1.5999348    2.0816745  
H   -0.7774656   -0.6525820    5.8354244  
H   -2.2155208   -1.8586617    1.0779135  
H    1.6384792    1.3747609    1.9961646  
H    1.0518368    0.8833920    4.3830260  
