60

C    9.7956191   -0.7143808    0.9097936  
C   11.1405067   -0.4663691    0.7606795  
C   11.2779124    0.4419021   -0.3305416  
C    9.9718448    0.7150648   -0.8116828  
N    9.0957054   -0.0045218   -0.0376080  
C    9.7263012    1.5747042   -1.8866330  
C   10.8191116    2.1696577   -2.4866127  
O   10.6362983    3.0180183   -3.5401195  
C   12.1299968    1.9093527   -2.0211704  
O   13.1119837    2.5773100   -2.7232238  
C   12.3729959    1.0611979   -0.9609293  
H   11.9259836   -0.8890542    1.3634703  
H    8.7332787    1.7869318   -2.2582070  
H   11.5156421    3.3175668   -3.8052446  
H   13.9662278    2.3466225   -2.3455291  
H   13.3880629    0.8809833   -0.6268020  
H    9.2803673   -1.3425825    1.6160768  
C    6.7235409   -0.0015093    0.8630514  
C    5.4473221   -0.0011276    0.3990037  
C    5.5236520   -0.0015785   -1.0428731  
C    6.9592466   -0.0022884   -1.3832521  
N    7.6329842   -0.0018116   -0.1836825  
C    7.4493968   -0.0032608   -2.6487388  
C    6.4996350   -0.0034067   -3.7489603  
O    6.8417408   -0.0041914   -4.9242316  
C    4.9744857   -0.0024120   -3.4117302  
O    4.1654301   -0.0022186   -4.3297117  
C    4.5679461   -0.0016854   -2.0086701  
H    4.5543636   -0.0004091    0.9983692  
H    8.5062544   -0.0038994   -2.8766905  
H    7.0761901   -0.0013786    1.8816429  
C    3.1301149   -0.0010311   -1.7028252  
C    2.5367768   -0.0002767   -0.4864665  
C    1.1089904    0.0001028   -0.7656183  
C    1.0177872   -0.0004148   -2.2415132  
N    2.1993578   -0.0011611   -2.7963820  
C   -0.2459209   -0.0002877   -2.9257118  
C   -1.3675319   -0.0000605   -2.1698524  
O   -2.6129313    0.0000867   -2.6748490  
C   -1.3083584    0.0000910   -0.6783232  
O   -2.3693261    0.0004206   -0.0541692  
C    0.0000000    0.0000000    0.0000000  
H    3.0096017   -0.0001007    0.4807525  
H   -0.2829630   -0.0004687   -4.0053125  
H   -3.1967441    0.0002094   -1.8949034  
C    0.8175213    0.6860729    2.3021913  
C    0.0000000    0.0000000    1.4700000  
C   -0.8887526   -0.7456559    2.3478473  
C   -0.4549825   -0.3816753    3.7138435  
N    0.5448156    0.4573574    3.6934124  
C   -1.0945674   -0.9182058    4.8835240  
C   -2.1210866   -1.7789155    4.6970523  
O   -2.8083856   -2.3554314    5.6976972  
C   -2.5824069   -2.1655116    3.3310774  
O   -3.5227682   -2.9541547    3.2362962  
C   -1.9100805   -1.6015804    2.1470656  
H   -0.7567140   -0.6349833    5.8697035  
H   -3.4728268   -2.9124471    5.2533954  
H   -2.2742832   -1.9066565    1.1752040  
H    1.6189533    1.3585343    2.0405121  
