60

C    1.0107139   -0.8934471   -9.6003015  
C    0.5423183    0.1903025   -8.8942131  
C    0.6485455    1.3242394   -9.7529927  
C    1.1928114    0.8671603  -10.9805024  
N    1.4026948   -0.4835253  -10.8531633  
C    1.4358324    1.7175938  -12.0633199  
C    1.1234510    3.0537334  -11.9041767  
O    1.3402556    3.9278798  -12.9297886  
C    0.5799926    3.5289418  -10.6869479  
O    0.3228516    4.8843818  -10.6846706  
C    0.3402349    2.6905860   -9.6182102  
H    1.7719632   -1.0834449  -11.5685082  
H    1.8505919    1.3754740  -13.0014716  
H    1.0581122    4.7958259  -12.6130404  
H   -0.0419363    5.1233084   -9.8270880  
H   -0.0766772    3.0834692   -8.6982620  
H    1.0975366   -1.9261524   -9.3088552  
C    1.9859501   -2.0121222   -5.4225061  
C    1.1142987   -1.6302693   -4.4602217  
C    0.2013163   -0.7124158   -5.1239292  
C    0.6817517   -0.6541653   -6.5212026  
N    1.7275938   -1.4140509   -6.7022478  
C    0.0351778    0.1580614   -7.5148406  
C   -1.0426002    0.8790118   -7.1301863  
O   -1.7423831    1.6794832   -7.9521292  
C   -1.5518362    0.8410640   -5.7275458  
O   -2.5376879    1.5231241   -5.4480627  
C   -0.8712826    0.0001710   -4.7267111  
H    1.0933980   -1.9340156   -3.4275665  
H   -2.4462795    2.0547411   -7.3927865  
H    2.8195224   -2.6903521   -5.3323141  
C    1.0965514    0.0001359   -0.8010305  
C    0.0000000    0.0000000    0.0000000  
C   -1.1546563    0.0001470   -0.8669513  
C   -0.6372014    0.0003519   -2.2486282  
N    0.7342871    0.0007337   -2.1395014  
C   -1.4147739    0.0001352   -3.3608717  
C   -2.8576049   -0.0001048   -3.1854462  
O   -3.6427779   -0.0002494   -4.1244907  
C   -3.4275840   -0.0000725   -1.7311666  
O   -4.6406831    0.0000333   -1.5710060  
C   -2.4891867   -0.0001091   -0.6116744  
H   -2.8919122   -0.0002918    0.3920866  
H    2.1388272    0.0000663   -0.5261648  
H    1.3735872   -0.0006099   -2.9130262  
C    0.0000000    0.0000000    1.4700000  
C    1.0541688    0.0001722    2.3260392  
C    0.5103138    0.0000454    3.6635956  
C   -0.9576371   -0.0002459    3.5155732  
N   -1.2018458    0.0001392    2.1615969  
C   -1.8348311   -0.0008317    4.5510609  
C   -1.2972847   -0.0009736    5.9014604  
O   -2.0050672   -0.0014265    6.9001319  
C    0.2542623   -0.0004184    6.0817573  
O    0.7184670   -0.0002256    7.2139121  
C    1.0974552   -0.0000873    4.8889129  
H    2.0940752    0.0005483    2.0517982  
H   -2.9081052   -0.0011668    4.4207061  
H    2.1707277    0.0000911    5.0223670  
H   -2.1128194   -0.0014912    1.7406791  
