62

C   -8.4811671    0.5399147   -2.3469145  
C   -8.0477623   -0.6911190   -2.7818675  
C   -9.1135370   -1.6116636   -2.5553214  
C  -10.1804838   -0.8786155   -1.9755025  
N   -9.7625377    0.4240176   -1.8611095  
C  -11.3970623   -1.4681023   -1.6188094  
C  -11.5392646   -2.8222060   -1.8519622  
O  -12.7066755   -3.4482534   -1.5229828  
C  -10.4860489   -3.5707447   -2.4292359  
O  -10.7816413   -4.9077760   -2.5975045  
C   -9.2854922   -2.9899124   -2.7811217  
H  -10.3117762    1.1795306   -1.4929826  
H  -12.2140770   -0.9149580   -1.1764041  
H  -12.5961099   -4.3769293   -1.7650577  
H  -10.0185537   -5.3406143   -2.9924105  
H   -8.4968991   -3.5888896   -3.2213765  
H   -7.9771244    1.4911707   -2.3434635  
C   -3.9834216    0.7255579   -1.7966821  
C   -5.3237513    0.5085129   -1.8186554  
C   -5.5825293   -0.4184175   -2.8950704  
C   -4.2737054   -0.7258293   -3.5027446  
N   -3.3460097   -0.0004262   -2.7913647  
C   -4.0918508   -1.5661147   -4.5527701  
C   -5.2633982   -2.2105869   -5.1225661  
O   -5.2038152   -2.9838475   -6.0695714  
C   -6.6595201   -1.8994027   -4.4950209  
O   -7.6531012   -2.4358506   -4.9664880  
C   -6.7288180   -0.9765482   -3.3648040  
H   -6.0484721    0.9477736   -1.1565048  
H   -3.1230866   -1.7780469   -4.9834567  
H   -3.4077085    1.3549527   -1.1376627  
C    0.0000000    0.0000000    0.0000000  
C    1.0662919   -0.0000103   -0.8334272  
C    0.4961868    0.0000066   -2.1718889  
C   -0.9663860   -0.0000849   -1.9540248  
N   -1.2632775   -0.0000084   -0.6828659  
C   -1.8985364   -0.0000515   -3.0477258  
C   -1.3925778    0.0004567   -4.3020543  
O   -2.1456385    0.0005412   -5.4151314  
C    0.0786229    0.0009326   -4.5544999  
O    0.4683756    0.0012594   -5.7221104  
C    1.0143162    0.0008443   -3.4159034  
H    2.1107195    0.0000631   -0.5721869  
H   -1.5042277    0.0009692   -6.1484420  
H    2.0724151    0.0013151   -3.6409746  
C    3.3003543   -0.0005276    2.9438989  
C    2.5232812   -0.0003497    4.0790748  
C    1.1623199    0.0001319    3.6520102  
C    1.1711883   -0.0000583    2.2336141  
N    2.4852299    0.0014920    1.8362361  
C    0.0000000    0.0000000    1.4700000  
C   -1.2020384   -0.0000520    2.1506477  
O   -2.3759250   -0.0003494    1.4542253  
C   -1.2314658    0.0005113    3.5655508  
O   -2.5054393    0.0008037    4.0950179  
C   -0.0764518    0.0007272    4.3195194  
H    2.8919952    0.0005619    5.0905303  
H    2.8036267   -0.0088181    0.8841339  
H   -3.0835639   -0.0000348    2.1118817  
H   -2.4360050    0.0011527    5.0545920  
H   -0.1304098    0.0013421    5.4019087  
H    4.3715549   -0.0004895    2.8367138  
