60

C    3.4497185   -0.7084685   -2.8313370  
C    4.7277972   -0.4583052   -3.2745100  
C    4.6186625    0.4497396   -4.3691078  
C    3.2380226    0.7205535   -4.5491655  
N    2.5562222   -0.0001542   -3.6002998  
C    2.7591278    1.5793430   -5.5431117  
C    3.6909770    2.1758461   -6.3701666  
O    3.2780229    3.0234689   -7.3570888  
C    5.0728187    1.9178918   -6.2064857  
O    5.8738728    2.5871740   -7.1085489  
C    5.5459556    1.0705763   -5.2263205  
H    5.6279511   -0.8794476   -2.8605605  
H    1.7081250    1.7897823   -5.6856247  
H    4.0763374    3.3243550   -7.8103276  
H    6.7909278    2.3580490   -6.9293420  
H    6.6101108    0.8921709   -5.1252065  
H    3.1046851   -1.3372253   -2.0284827  
C    0.0000000    0.0000000    0.0000000  
C    1.0541691   -0.0001719   -0.8560389  
C    0.5103143   -0.0000448   -2.1935953  
C   -0.9576364    0.0002464   -2.0455731  
N   -1.2018458   -0.0001389   -0.6915972  
C   -1.8348303    0.0008322   -3.0810611  
C   -1.2972837    0.0009745   -4.4314603  
O   -2.0050658    0.0014276   -5.4301322  
C    0.2542633    0.0004194   -4.6117570  
O    0.7184681    0.0002269   -5.7439118  
C    1.0974560    0.0000881   -3.4189126  
H    2.0940754   -0.0005481   -0.5817976  
H   -2.1128195    0.0014913   -0.2706792  
C   -4.3137498    2.1424310   -0.2077338  
C   -5.5591243    1.7353210   -0.5466765  
C   -5.3648104    0.8246404   -1.6644432  
C   -3.9011710    0.7979210   -1.8733226  
N   -3.2797686    1.5684038   -1.0223203  
C   -3.2941065    0.0012879   -2.9038247  
C   -4.1120049   -0.7354729   -3.6896746  
O   -3.6822277   -1.5242473   -4.6892582  
C   -5.5930492   -0.7299485   -3.5035618  
O   -6.2763252   -1.4248011   -4.2555822  
C   -6.1916575    0.0955198   -2.4395154  
H   -6.4941450    2.0180131   -0.0940210  
H   -4.4926426   -1.9161849   -5.0617706  
H   -7.2683262    0.0718762   -2.3372599  
H   -4.0287176    2.8244773    0.5774687  
C    0.0000000    0.0000000    1.4700000  
C    1.0662921    0.0000102    2.3034270  
C    0.4961870   -0.0000064    3.6418889  
C   -0.9663858    0.0000850    3.4240247  
N   -1.2632773    0.0000084    2.1528658  
C   -1.8985362    0.0000517    4.5177257  
C   -1.3925775   -0.0004564    5.7720543  
O   -2.1456383   -0.0005410    6.8851312  
C    0.0786232   -0.0009323    6.0245000  
O    0.4683759   -0.0012588    7.1921102  
C    1.0143166   -0.0008442    4.8859032  
H    2.1107198   -0.0000632    2.0421868  
H   -2.9622183    0.0003270    4.3293377  
H   -1.5042274   -0.0009692    7.6184419  
H    2.0724152   -0.0013148    5.1109744  
