66

C   -7.0442469    1.8347557   -0.4398303  
C   -7.5151764    2.6419732    0.5696709  
C   -8.9376061    2.5363443    0.5579573  
C   -9.2799944    1.6427600   -0.4890402  
N   -8.1070729    1.2368640   -1.0756570  
C  -10.6020762    1.3023821   -0.7907583  
C  -11.5966192    1.8742585   -0.0213296  
O  -12.9046648    1.5762028   -0.2727094  
C  -11.2750039    2.7683887    1.0274371  
O  -12.3765710    3.2540134    1.7012783  
C   -9.9709731    3.1048423    1.3254772  
H   -6.9082106    3.2349513    1.2322143  
H   -8.0340835    0.5918739   -1.8415820  
H  -10.8696406    0.6220889   -1.5875095  
H  -13.4265854    2.0747960    0.3693723  
H  -12.0719675    3.8496935    2.3926433  
H   -9.7553744    3.7927450    2.1346651  
C   -4.5382360    2.1274892   -0.3187876  
C   -3.4269602    1.6643337   -0.9843851  
C   -3.8900485    0.7769752   -2.0006253  
C   -5.3047950    0.7381446   -1.9062261  
N   -5.6653099    1.5678671   -0.8736534  
C   -6.0984770   -0.0376817   -2.7564912  
C   -5.4522277   -0.7877414   -3.7197927  
O   -6.1789767   -1.5629113   -4.5765091  
C   -4.0415022   -0.7625028   -3.8294926  
O   -3.5480075   -1.5637596   -4.8383509  
C   -3.2578655    0.0024282   -2.9908505  
H   -2.4078388    1.9321494   -0.7637974  
H   -7.1771659   -0.0717344   -2.6896155  
H   -5.5421683   -1.9966428   -5.1592753  
H   -2.5888327   -1.4892402   -4.8442641  
H   -4.6159714    2.8116405    0.5087715  
C    0.0000000    0.0000000    0.0000000  
C    1.0521666   -0.0011982   -0.8862343  
C    0.4917215   -0.0011996   -2.1979132  
C   -0.9187429    0.0003215   -2.0478682  
N   -1.1833171   -0.0009323   -0.7007913  
C   -1.7951703    0.0010483   -3.1372089  
C   -1.2375841    0.0005313   -4.4010422  
O   -2.0474218    0.0015510   -5.4997578  
C    0.1673576   -0.0013585   -4.5711963  
O    0.5673520   -0.0020735   -5.8915554  
C    1.0325768   -0.0023493   -3.4969892  
H    2.0953056   -0.0030808   -0.6200564  
H   -2.0989778    0.0102529   -0.2891822  
H   -1.4634888    0.0006601   -6.2693595  
H    1.5290707   -0.0033271   -5.9180047  
H    2.1042146   -0.0039770   -3.6584456  
C    3.3041272   -0.0001177    3.0120429  
C    2.5845372    0.0004780    1.8395852  
C    1.2040006    0.0000008    2.1983588  
C    1.1422373   -0.0006037    3.6154372  
N    2.4348639   -0.0026109    4.0777464  
C   -0.0655181   -0.0008797    4.3197917  
C   -1.2321768   -0.0002324    3.5801400  
O   -2.4392816   -0.0001146    4.2172520  
C   -1.1911209    0.0000007    2.1655264  
O   -2.4371527    0.0002320    1.5732860  
C    0.0000000    0.0000000    1.4700000  
H    3.0031534    0.0000661    0.8477417  
H    2.7054629    0.0071099    5.0445261  
H   -0.1193549   -0.0014844    5.3997470  
H   -3.1132988    0.0000648    3.5251786  
H   -2.3200282    0.0004071    0.6183591  
H    4.3686625   -0.0004071    3.1724291  
