64

C    4.5679461   -0.0016852   -2.0086700  
C    5.6536973   -0.0029014   -1.1639159  
C    6.8200667   -0.0036869   -1.9850012  
C    6.3798480   -0.0026034   -3.3333826  
N    5.0072030   -0.0033524   -3.3118967  
C    7.2630035   -0.0026748   -4.4172766  
C    8.6151888   -0.0035546   -4.1348421  
O    9.5213679   -0.0033135   -5.1555544  
C    9.0739280   -0.0050175   -2.7960467  
O   10.4486148   -0.0061771   -2.6795160  
C    8.2032430   -0.0052211   -1.7262640  
H    5.6103768   -0.0042925   -0.0882232  
H    4.4140950    0.0076885   -4.1218859  
H    6.9338469   -0.0019967   -5.4472563  
H   10.3956196   -0.0043378   -4.7445211  
H   10.6745780   -0.0070988   -1.7443458  
H    8.5841289   -0.0065375   -0.7116693  
C    3.1301152   -0.0010311   -1.7028251  
C    2.5367770   -0.0002766   -0.4864665  
C    1.1089905    0.0001028   -0.7656183  
C    1.0177873   -0.0004148   -2.2415130  
N    2.1993580   -0.0011610   -2.7963820  
C   -0.2459208   -0.0002877   -2.9257119  
C   -1.3675318   -0.0000605   -2.1698523  
O   -2.6129310    0.0000866   -2.6748492  
C   -1.3083584    0.0000911   -0.6783232  
O   -2.3693259    0.0004206   -0.0541692  
C    0.0000000    0.0000000    0.0000000  
H    3.0096019   -0.0001007    0.4807529  
H   -3.1967440    0.0002093   -1.8949035  
C    0.5332471   -0.7193582   -5.2240418  
C   -0.2963281   -0.0005339   -4.3948471  
C   -1.1923421    0.7280157   -5.2320896  
C   -0.8589919    0.4109481   -6.5738314  
N    0.1940949   -0.4688040   -6.5330672  
C   -1.5389791    0.9506281   -7.6698023  
C   -2.5745398    1.8261037   -7.4064888  
O   -3.2722177    2.3819004   -8.4396149  
C   -2.9218724    2.1551074   -6.0745978  
O   -3.9749394    3.0410856   -5.9774577  
C   -2.2513078    1.6232874   -4.9929153  
H    0.6396934   -0.8781466   -7.3342302  
H   -1.2897022    0.7131100   -8.6948129  
H   -3.9408680    2.9540007   -8.0410252  
H   -4.1451787    3.2101966   -5.0457798  
H   -2.5398814    1.8941060   -3.9840245  
H    1.3409613   -1.3898543   -4.9853124  
C    0.0000000    0.0000000    1.4700000  
C    1.0521667    0.0011902    2.3562342  
C    0.4917218    0.0011957    3.6679131  
C   -0.9187428   -0.0003148    3.5178682  
N   -1.1833171    0.0009411    2.1707914  
C   -1.7951701   -0.0010350    4.6072090  
C   -1.2375837   -0.0005224    5.8710424  
O   -2.0474215   -0.0015360    6.9697579  
C    0.1673580    0.0013566    6.0411963  
O    0.5673524    0.0020687    7.3615553  
C    1.0325770    0.0023412    4.9669890  
H    2.0953057    0.0030649    2.0900562  
H   -2.0989778   -0.0102372    1.7591824  
H   -2.8710934   -0.0020419    4.4995513  
H   -1.4634884   -0.0006497    7.7393593  
H    1.5290710    0.0033153    7.3880045  
H    2.1042148    0.0039609    5.1284455  
