62

C    3.0427840   -5.6097948   -8.6731078  
C    3.2377061   -5.1750822   -9.9636486  
C    2.9345822   -3.7814145   -9.9838070  
C    2.5575823   -3.4183628   -8.6654783  
N    2.6323110   -4.5524054   -7.8954261  
C    2.1913911   -2.1152467   -8.3153621  
C    2.2063385   -1.1611861   -9.3142226  
O    1.8580382    0.1269540   -9.0271765  
C    2.5791995   -1.5040364  -10.6356785  
O    2.5435095   -0.4427069  -11.5163871  
C    2.9403131   -2.7894493  -10.9818526  
H    3.5578117   -5.7874034  -10.7892319  
H    2.4322878   -4.6008711   -6.9127645  
H    1.9350621    0.6212590   -9.8536109  
H    2.8088081   -0.7594201  -12.3852449  
H    3.2210120   -3.0221445  -12.0024105  
H    3.1626990   -6.5907537   -8.2461443  
C    2.3446870   -2.1385759   -5.7825610  
C    1.7992131   -1.7303702   -6.9519228  
C    0.7308353   -0.8198481   -6.5697984  
C    0.7735874   -0.7944099   -5.0919255  
N    1.7176446   -1.5654466   -4.6247547  
C   -0.1387079    0.0017019   -4.3179684  
C   -1.0519387    0.7391883   -4.9898748  
O   -1.9638772    1.5275963   -4.3958873  
C   -1.1200789    0.7349604   -6.4810151  
O   -1.9771134    1.4304198   -7.0260375  
C   -0.1732952   -0.0899944   -7.2523616  
H   -2.4685601    1.9202486   -5.1309193  
H   -0.2553887   -0.0654078   -8.3307329  
H    3.1667835   -2.8208806   -5.6356219  
C    3.3041273    0.0001178   -1.5420428  
C    2.5845373   -0.0004780   -0.3695851  
C    1.2040007   -0.0000007   -0.7283589  
C    1.1422374    0.0006038   -2.1454372  
N    2.4348641    0.0026111   -2.6077464  
C   -0.0655179    0.0008799   -2.8497918  
C   -1.2321766    0.0002325   -2.1101402  
O   -2.4392814    0.0001148   -2.7472522  
C   -1.1911209   -0.0000007   -0.6955266  
O   -2.4371528   -0.0002320   -0.1032862  
C    0.0000000    0.0000000    0.0000000  
H    3.0031533   -0.0000660    0.6222584  
H    2.7054631   -0.0071097   -3.5745261  
H   -3.1132988   -0.0000648   -2.0551787  
H   -2.3200282   -0.0004072    0.8516409  
H    4.3686625    0.0004073   -1.7024290  
C    0.8400945    0.7047457    2.2710304  
C    0.0000000    0.0000000    1.4700000  
C   -0.8844236   -0.7423113    2.3369512  
C   -0.4878984   -0.4098547    3.7186280  
N    0.5629682    0.4714286    3.6095011  
C   -1.0836927   -0.9095027    4.8308716  
C   -2.1891196   -1.8367527    4.6554461  
O   -2.7906899   -2.3413415    5.5944904  
C   -2.6257283   -2.2031529    3.2011665  
O   -3.5549479   -2.9829990    3.0410059  
C   -1.9068976   -1.5999348    2.0816745  
H   -0.7774656   -0.6525820    5.8354244  
H   -2.2155208   -1.8586617    1.0779135  
H    1.6384792    1.3747609    1.9961646  
H    1.0518368    0.8833920    4.3830260  
