60

C    5.8078666   -0.7190335   -0.5218345  
C    6.4444274   -0.0013963   -1.5078646  
C    7.4984056    0.7256025   -0.8792135  
C    7.4558867    0.4088556    0.5027379  
N    6.4166128   -0.4692199    0.6857957  
C    8.3531515    0.9472878    1.4299904  
C    9.3109739    1.8211614    0.9534423  
O   10.2122615    2.3756917    1.8155274  
C    9.3692611    2.1498206   -0.4218404  
O   10.3793568    3.0341435   -0.7396790  
C    8.4842407    1.6192317   -1.3371223  
H    6.1499024   -0.8779799    1.5631566  
H    8.3259378    0.7100057    2.4845800  
H   10.7823832    2.9467931    1.2844257  
H   10.3489538    3.2031290   -1.6863169  
H    8.5533238    1.8897490   -2.3842738  
H    4.9668734   -1.3882113   -0.5842011  
C    2.5562217   -0.0001551   -3.6003001  
C    3.5357956   -0.0006715   -2.6598164  
C    4.7960225   -0.0006602   -3.3645597  
C    4.4679970   -0.0000615   -4.8030274  
N    3.0942343   -0.0001763   -4.8782995  
C    5.3873325    0.0005227   -5.8012894  
C    6.7937415    0.0003386   -5.4344808  
O    7.6974454    0.0007633   -6.2600829  
C    7.1641097   -0.0005455   -3.9170382  
O    8.3448916   -0.0010145   -3.5960807  
C    6.0844250   -0.0008427   -2.9331008  
H    3.3919673   -0.0012030   -1.5940179  
H    5.1255396    0.0010863   -6.8502770  
H    2.5641260    0.0016989   -5.7303728  
C    0.0000000    0.0000000    0.0000000  
C    1.0541688   -0.0001722   -0.8560390  
C    0.5103141   -0.0000453   -2.1935955  
C   -0.9576367    0.0002460   -2.0455731  
N   -1.2018459   -0.0001392   -0.6915969  
C   -1.8348307    0.0008318   -3.0810611  
C   -1.2972843    0.0009738   -4.4314606  
O   -2.0050665    0.0014267   -5.4301321  
C    0.2542628    0.0004186   -4.6117570  
O    0.7184676    0.0002258   -5.7439117  
C    1.0974555    0.0000874   -3.4189127  
H    2.0940752   -0.0005483   -0.5817978  
H   -2.9081051    0.0011670   -2.9507061  
H   -2.1128194    0.0014912   -0.2706792  
C    1.1319247   -0.0015655    2.2709268  
C    0.7969915   -0.0034943    3.5869401  
C   -0.6453339   -0.0035710    3.6542670  
C   -1.1266833   -0.0015433    2.2596025  
N    0.0000000    0.0000000    1.4700000  
C   -2.4346130   -0.0013964    1.8976294  
C   -3.4350110   -0.0031408    2.9520183  
O   -4.6384611   -0.0030974    2.7283916  
C   -2.9478959   -0.0050506    4.4361073  
O   -3.7809380   -0.0062218    5.3323774  
C   -1.5113823   -0.0053090    4.7012123  
H    1.4821238   -0.0045407    4.4159191  
H   -2.7664565   -0.0000232    0.8686553  
H   -1.1823530   -0.0068408    5.7314848  
H    2.1104316   -0.0009391    1.8188057  
