60

C    3.3186467   -3.2439576   -7.7718069  
C    4.1227508   -3.1979570   -8.8870504  
C    4.1037232   -1.8519804   -9.3588377  
C    3.2641891   -1.1160832   -8.4838717  
N    2.8024917   -1.9918333   -7.5328130  
C    3.0140320    0.2498231   -8.6466925  
C    3.6227047    0.8844710   -9.7120170  
O    3.4129960    2.2174726   -9.9173019  
C    4.4634110    0.1672782  -10.5961356  
O    4.9948296    0.9403850  -11.6076905  
C    4.7104299   -1.1802946  -10.4362741  
H    4.6564048   -4.0321655   -9.3093098  
H    2.3750705    0.8163693   -7.9834005  
H    3.9228918    2.4563816  -10.7022821  
H    5.5496637    0.3802818  -12.1590949  
H    5.3588182   -1.7030478  -11.1296708  
H    3.0713247   -4.0711727   -7.1287628  
C    1.9999919   -2.1070891   -5.1447771  
C    1.9105667   -1.6426495   -6.4177158  
C    0.7784253   -0.7475271   -6.4606980  
C    0.2115584   -0.7283875   -5.0986831  
N    0.9973788   -1.5733446   -4.3494007  
C   -0.8712826    0.0001710   -4.7267111  
C   -1.5219796    0.8200164   -5.7351665  
O   -2.5037635    1.5119153   -5.4992068  
C   -0.9387698    0.8148045   -7.1841818  
O   -1.4783589    1.5008668   -8.0417492  
C    0.2330299   -0.0112901   -7.4640108  
H    0.6307995   -0.0091668   -8.4697438  
H    2.7138544   -2.7945381   -4.7208631  
H    0.8643845   -1.7702171   -3.3744133  
C    1.0965514    0.0001359   -0.8010305  
C    0.0000000    0.0000000    0.0000000  
C   -1.1546563    0.0001470   -0.8669513  
C   -0.6372014    0.0003519   -2.2486282  
N    0.7342871    0.0007337   -2.1395014  
C   -1.4147739    0.0001352   -3.3608717  
C   -2.8576049   -0.0001048   -3.1854462  
O   -3.6427779   -0.0002494   -4.1244907  
C   -3.4275840   -0.0000725   -1.7311666  
O   -4.6406831    0.0000333   -1.5710060  
C   -2.4891867   -0.0001091   -0.6116744  
H   -2.8919122   -0.0002918    0.3920866  
H    2.1388272    0.0000663   -0.5261648  
H    1.3735872   -0.0006099   -2.9130262  
C    0.0000000    0.0000000    1.4700000  
C    1.0541688    0.0001722    2.3260392  
C    0.5103138    0.0000454    3.6635956  
C   -0.9576371   -0.0002459    3.5155732  
N   -1.2018458    0.0001392    2.1615969  
C   -1.8348311   -0.0008317    4.5510609  
C   -1.2972847   -0.0009736    5.9014604  
O   -2.0050672   -0.0014265    6.9001319  
C    0.2542623   -0.0004184    6.0817573  
O    0.7184670   -0.0002256    7.2139121  
C    1.0974552   -0.0000873    4.8889129  
H    2.0940752    0.0005483    2.0517982  
H   -2.9081052   -0.0011668    4.4207061  
H    2.1707277    0.0000911    5.0223670  
H   -2.1128194   -0.0014912    1.7406791  
