62

C    7.4032594   -3.0765272   -2.1718024  
C    6.8405820   -1.8439131   -2.4095503  
C    7.9151567   -0.9254955   -2.6003308  
C    9.1203444   -1.6614094   -2.4666143  
N    8.7734826   -2.9636327   -2.2048521  
C   10.3829285   -1.0745547   -2.5941687  
C   10.4297335    0.2798148   -2.8618820  
O   11.6364113    0.9033644   -2.9965155  
C    9.2382595    1.0311925   -2.9983979  
O    9.4515606    2.3681167   -3.2638775  
C    7.9923461    0.4529579   -2.8724207  
H    9.4193051   -3.7207660   -2.0720253  
H   11.3052178   -1.6298903   -2.4932373  
H   11.4447971    1.8327172   -3.1777646  
H    8.5968580    2.8029635   -3.3413131  
H    7.0972913    1.0540779   -2.9820136  
H    6.9356068   -4.0270085   -1.9798504  
C    4.4498807   -2.0927813   -1.5965445  
C    3.2085348   -1.6305559   -1.8956811  
C    3.3524544   -0.7335190   -3.0179322  
C    4.7897029   -0.7108881   -3.3504915  
N    5.3998261   -1.5552206   -2.4517471  
C    5.3348521    0.0196507   -4.3558920  
C    4.4468029    0.8384416   -5.1642766  
O    4.8411378    1.5320447   -6.0925629  
C    2.9210858    0.8299296   -4.8297318  
O    2.1637301    1.5155489   -5.5032295  
C    2.4521483    0.0014840   -3.7217481  
H    2.2961916   -1.8884108   -1.3879858  
H    6.3918374    0.0219794   -4.5832375  
H    4.7506790   -2.7807341   -0.8231549  
C    0.0000000    0.0000000    0.0000000  
C    1.0662923   -0.0000101   -0.8334270  
C    0.4961873    0.0000065   -2.1718887  
C   -0.9663854   -0.0000848   -1.9540250  
N   -1.2632773   -0.0000083   -0.6828660  
C   -1.8985359   -0.0000514   -3.0477261  
C   -1.3925770    0.0004566   -4.3020547  
O   -2.1456378    0.0005414   -5.4151314  
C    0.0786240    0.0009326   -4.5545000  
O    0.4683767    0.0012591   -5.7221100  
C    1.0143171    0.0008444   -3.4159031  
H    2.1107200    0.0000633   -0.5721865  
H   -2.9622181   -0.0003268   -2.8593381  
H   -1.5042265    0.0009697   -6.1484419  
C    1.1188642   -0.0008217    2.2703808  
C    0.0000000    0.0000000    1.4700000  
C   -1.1323862   -0.0008904    2.3373528  
C   -0.6382662   -0.0019682    3.6669281  
N    0.7324016   -0.0038477    3.5902241  
C   -1.4770914   -0.0027325    4.7854808  
C   -2.8395474   -0.0020958    4.5576857  
O   -3.7039201   -0.0024443    5.6140350  
C   -3.3517868   -0.0013946    3.2384331  
O   -4.7300496   -0.0012389    3.1773122  
C   -2.5248543   -0.0009135    2.1344818  
H    1.3576314    0.0056174    4.3757045  
H   -1.1067570   -0.0036993    5.8013813  
H   -4.5940033   -0.0021850    5.2385129  
H   -4.9934601   -0.0007286    2.2519915  
H   -2.9462578   -0.0005617    1.1360343  
H    2.1619896   -0.0009344    2.0042067  
