60

C    7.0801691    2.1174001   -5.1644813  
C    8.0585702    1.6179975   -5.9926087  
C    8.8654531    0.7448915   -5.2044300  
C    8.3265044    0.7512697   -3.8924012  
N    7.2446313    1.5962946   -3.9024394  
C    8.8719481   -0.0001311   -2.8470892  
C    9.9814902   -0.7722678   -3.1315171  
O   10.5538657   -1.5257126   -2.1477893  
C   10.5339567   -0.7915563   -4.4342939  
O   11.6380510   -1.6095219   -4.5577855  
C    9.9965463   -0.0503233   -5.4659379  
H    8.1768981    1.8548158   -7.0361177  
H    6.6548150    1.7933549   -3.1142361  
H   11.3037339   -1.9801549   -2.5533100  
H   11.9491969   -1.5652399   -5.4670876  
H   10.4416295   -0.0851264   -6.4534437  
H    6.2788826    2.8051934   -5.3738583  
C    4.7795901    0.0008674   -1.0815733  
C    5.7862016    0.0008772   -1.9861798  
C    7.0047290    0.0013415   -1.1913902  
C    6.5351379    0.0016830    0.2107753  
N    5.2316823    0.0013266    0.2814336  
C    7.4495166    0.0021412    1.3193773  
C    8.7728605    0.0018640    1.0399208  
O    9.7375504    0.0022381    1.9755566  
C    9.2780077    0.0011456   -0.3647098  
O   10.4956961    0.0010514   -0.5448642  
C    8.3200392    0.0007295   -1.4846298  
H    5.7111077    0.0005129   -3.0601616  
H    7.0785145    0.0025903    2.3339055  
H   10.5714828    0.0018725    1.4718605  
C    3.3321168    0.0004716   -1.3379341  
C    2.6974177    0.0000118   -2.5332316  
C    1.2800432   -0.0002116   -2.2052842  
C    1.2395033    0.0000644   -0.7271298  
N    2.4394059    0.0005460   -0.2131041  
C    0.0000000    0.0000000    0.0000000  
C   -1.1468704    0.0000635   -0.7169542  
O   -2.3742206    0.0000074   -0.1695488  
C   -1.1388774    0.0001608   -2.2096352  
O   -2.2206238    0.0000906   -2.7970409  
C    0.1454514    0.0001818   -2.9324241  
H    3.1367978   -0.0000649   -3.5160956  
H   -2.9844350    0.0001027   -0.9290164  
H    0.1083567    0.0003684   -4.0135594  
C    2.5528530    2.1414826    2.8079335  
C    2.0663498    1.7338582    4.0032312  
C    0.9804344    0.8229586    3.6752840  
C    0.9495562    0.7966882    2.1971295  
N    1.8690446    1.5676019    1.6831036  
C    0.0000000    0.0000000    1.4700000  
C   -0.8785127   -0.7372425    2.1869543  
O   -1.8187535   -1.5261249    1.6395491  
C   -0.8723269   -0.7321790    3.6796354  
O   -1.7010379   -1.4274584    4.2670412  
C    0.1115397    0.0933559    4.4024240  
H    2.4028853    2.0163452    4.9860947  
H   -2.2861435   -1.9184361    2.3990168  
H    0.0832434    0.0693689    5.4835595  
H    3.3664920    2.8238276    2.6198634  
