62

C    5.1166060   -2.3808692   -4.7357579  
C    6.3733728   -2.5941412   -5.2529798  
C    6.7947230   -1.3657858   -5.8430700  
C    5.7448394   -0.4311166   -5.6531670  
N    4.7405457   -1.0806252   -4.9792603  
C    5.8157101    0.8887758   -6.1088539  
C    6.9675373    1.2721937   -6.7679921  
O    7.0895224    2.5494924   -7.2334377  
C    8.0258177    0.3540158   -6.9675148  
O    9.1050200    0.8875717   -7.6412976  
C    7.9564779   -0.9483216   -6.5184768  
H    6.9188461   -3.5213451   -5.2111867  
H    5.0189429    1.6059641   -5.9674165  
H    7.9568063    2.6046812   -7.6553835  
H    9.7743913    0.2027959   -7.7341831  
H    8.7829907   -1.6289307   -6.6861857  
H    4.4581267   -3.0537706   -4.2136778  
C    2.8279729   -0.7071296   -3.3541665  
C    1.6707636   -0.0012343   -3.2725974  
C    1.5420222    0.7399977   -4.5050080  
C    2.7275720    0.4056549   -5.3170903  
N    3.4672605   -0.4755789   -4.5626516  
C    2.9773517    0.9038684   -6.5544653  
C    2.0143734    1.8314550   -7.1243702  
O    2.1493673    2.3348416   -8.2319255  
C    0.7517059    2.1998424   -6.2818939  
O   -0.0658607    2.9799880   -6.7511671  
C    0.5920508    1.5980569   -4.9604489  
H    3.8531179    0.6455748   -7.1334537  
H   -0.2850564    1.8581559   -4.3835992  
H    3.2676543   -1.3768500   -2.6330256  
C    1.0965514    0.0001358   -0.8010306  
C    0.0000000    0.0000000    0.0000000  
C   -1.1546565    0.0001470   -0.8669508  
C   -0.6372019    0.0003520   -2.2486278  
N    0.7342867    0.0007338   -2.1395012  
C   -1.4147744    0.0001354   -3.3608712  
C   -2.8576052   -0.0001047   -3.1854454  
O   -3.6427785   -0.0002490   -4.1244896  
C   -3.4275841   -0.0000727   -1.7311660  
O   -4.6406832    0.0000333   -1.5710049  
C   -2.4891868   -0.0001090   -0.6116739  
H   -1.0150456    0.0001617   -4.3654239  
H   -2.8919122   -0.0002919    0.3920871  
H    2.1388270    0.0000663   -0.5261650  
C    2.5311839    2.1237619    3.0120429  
C    1.9795631    1.6616747    1.8395852  
C    0.9223175    0.7739173    2.1983588  
C    0.8753926    0.7337535    3.6154372  
N    1.8668922    1.5631002    4.0777464  
C   -0.0496243   -0.0427881    4.3197917  
C   -0.9437528   -0.7922060    3.5801400  
O   -1.8685244   -1.5680278    4.2172520  
C   -0.9124520   -0.7656372    2.1655264  
O   -1.8671164   -1.5663939    1.5732860  
C    0.0000000    0.0000000    1.4700000  
H    2.3005065    1.9304404    0.8477417  
H    2.0679347    1.7444845    5.0445261  
H   -0.0904770   -0.0778569    5.3997470  
H   -2.3849669   -2.0011402    3.5251786  
H   -1.7775064   -1.4909735    0.6183591  
H    3.3468514    2.8078103    3.1724291  
