64

C    6.0924964   -2.3710196   -2.3387019  
C    5.9562972   -1.0678169   -2.7577247  
C    7.2176422   -0.4323465   -2.5582630  
C    8.0920805   -1.4056794   -2.0106248  
N    7.3765211   -2.5708736   -1.8884951  
C    9.4236353   -1.1290259   -1.6862606  
C    9.8808639    0.1534842   -1.9192568  
O   11.1727666    0.4776996   -1.6211147  
C    9.0235409    1.1385315   -2.4646877  
O    9.6272213    2.3670141   -2.6371557  
C    7.7097390    0.8663858   -2.7846679  
H    7.7376258   -3.4396655   -1.5380871  
H   10.0951612   -1.8663928   -1.2684727  
H   11.2822581    1.4080323   -1.8572439  
H    8.9803645    2.9741959   -3.0093263  
H    7.0768621    1.6413971   -3.2009625  
H    5.3749065   -3.1733961   -2.3240216  
C    3.4561763   -0.7190139   -2.8481102  
C    2.5562217   -0.0001543   -3.6003001  
C    3.3101153    0.7284357   -4.5674617  
C    4.6762621    0.4113548   -4.3552631  
N    4.7296901   -0.4684432   -3.3027813  
C    5.7071391    0.9510659   -5.1303713  
C    5.3524129    1.8265865   -6.1382460  
O    6.3191169    2.3824149   -6.9253624  
C    3.9948292    2.1556037   -6.3652502  
O    3.8040494    3.0416280   -7.4053986  
C    2.9773417    1.6237533   -5.6008022  
H    6.7503139    0.7135380   -4.9736257  
H    5.8624171    2.9545440   -7.5557261  
H    2.8608928    3.2107454   -7.4917597  
H    1.9467144    1.8945834   -5.7981260  
H    3.2905205   -1.3895456   -2.0223350  
C    0.0000000    0.0000000    0.0000000  
C    1.0541688   -0.0001719   -0.8560391  
C    0.5103141   -0.0000449   -2.1935955  
C   -0.9576367    0.0002461   -2.0455733  
N   -1.2018459   -0.0001392   -0.6915970  
C   -1.8348306    0.0008319   -3.0810611  
C   -1.2972842    0.0009739   -4.4314605  
O   -2.0050664    0.0014267   -5.4301321  
C    0.2542628    0.0004190   -4.6117571  
O    0.7184677    0.0002263   -5.7439119  
C    1.0974556    0.0000880   -3.4189127  
H    2.0940752   -0.0005479   -0.5817978  
H   -2.9081050    0.0011669   -2.9507065  
H   -2.1128195    0.0014911   -0.2706793  
C    0.0000000    0.0000000    1.4700000  
C    1.0521667    0.0011902    2.3562342  
C    0.4917218    0.0011957    3.6679131  
C   -0.9187428   -0.0003148    3.5178682  
N   -1.1833171    0.0009411    2.1707914  
C   -1.7951701   -0.0010350    4.6072090  
C   -1.2375837   -0.0005224    5.8710424  
O   -2.0474215   -0.0015360    6.9697579  
C    0.1673580    0.0013566    6.0411963  
O    0.5673524    0.0020687    7.3615553  
C    1.0325770    0.0023412    4.9669890  
H    2.0953057    0.0030649    2.0900562  
H   -2.0989778   -0.0102372    1.7591824  
H   -2.8710934   -0.0020419    4.4995513  
H   -1.4634884   -0.0006497    7.7393593  
H    1.5290710    0.0033153    7.3880045  
H    2.1042148    0.0039609    5.1284455  
