60

C   -0.4717745    0.0181293   -8.8129927  
C    0.3004581   -0.6577627   -9.7291228  
C   -0.1765042   -0.2954668  -11.0236681  
C   -1.2497125    0.6121336  -10.8328502  
N   -1.4037916    0.7791563   -9.4789743  
C   -1.9599538    1.1777604  -11.8960589  
C   -1.5796763    0.8208997  -13.1752057  
O   -2.2390997    1.3439606  -14.2497201  
C   -0.5116676   -0.0834016  -13.3859515  
O   -0.2542165   -0.3390241  -14.7170100  
C    0.1892709   -0.6420026  -12.3375350  
H    1.1074743   -1.3301630   -9.4933354  
H   -2.0824694    1.3756863   -9.0413341  
H   -2.7789550    1.8699908  -11.7572913  
H   -1.8208252    0.9691110  -15.0357227  
H    0.4801797   -0.9581508  -14.7713075  
H    1.0026310   -1.3318640  -12.5299274  
C    2.1451928   -2.0951773   -5.9900943  
C    1.6340471   -1.6323753   -4.8202142  
C    0.5538824   -0.7357923   -5.1581773  
C    0.4770636   -0.7140558   -6.6314112  
N    1.4686360   -1.5584203   -7.0749457  
C   -0.4180296    0.0158496   -7.3439773  
C   -1.3690895    0.8348539   -6.6110028  
O   -2.2145428    1.5279315   -7.1615959  
C   -1.3057474    0.8272854   -5.0503184  
O   -2.1011642    1.5130918   -4.4224310  
C   -0.2963293   -0.0005341   -4.3948471  
H    1.9749143   -1.8895633   -3.8331592  
H    2.9593495   -2.7830348   -6.1509984  
H    1.6685742   -1.7560269   -8.0382850  
C    3.1301146   -0.0010313   -1.7028256  
C    2.5367765   -0.0002766   -0.4864669  
C    1.1089901    0.0001027   -0.7656184  
C    1.0177865   -0.0004150   -2.2415133  
N    2.1993571   -0.0011612   -2.7963824  
C   -0.2459219   -0.0002879   -2.9257116  
C   -1.3675326   -0.0000606   -2.1698520  
O   -2.6129318    0.0000865   -2.6748483  
C   -1.3083588    0.0000910   -0.6783229  
O   -2.3693264    0.0004206   -0.0541685  
C    0.0000000    0.0000000    0.0000000  
H    3.0096016   -0.0001007    0.4807518  
H   -3.1967444    0.0002093   -1.8949026  
H    4.1849275   -0.0015114   -1.9271979  
C    0.0000000    0.0000000    1.4700000  
C    1.0541688    0.0001722    2.3260392  
C    0.5103138    0.0000454    3.6635956  
C   -0.9576371   -0.0002459    3.5155732  
N   -1.2018458    0.0001392    2.1615969  
C   -1.8348311   -0.0008317    4.5510609  
C   -1.2972847   -0.0009736    5.9014604  
O   -2.0050672   -0.0014265    6.9001319  
C    0.2542623   -0.0004184    6.0817573  
O    0.7184670   -0.0002256    7.2139121  
C    1.0974552   -0.0000873    4.8889129  
H    2.0940752    0.0005483    2.0517982  
H   -2.9081052   -0.0011668    4.4207061  
H    2.1707277    0.0000911    5.0223670  
H   -2.1128194   -0.0014912    1.7406791  
