60

C    5.0629790   -4.2333789   -3.0356549  
C    5.8498030   -4.8958065   -3.9492005  
C    5.3926800   -4.5154240   -5.2457141  
C    4.3159796   -3.6111750   -5.0586991  
N    4.1408295   -3.4634589   -3.7051405  
C    3.6218739   -3.0308845   -6.1246583  
C    4.0221775   -3.3693637   -7.4026904  
O    3.3790898   -2.8314481   -8.4797691  
C    5.0939854   -4.2700342   -7.6096619  
O    5.3722068   -4.5066117   -8.9400628  
C    5.7790131   -4.8430941   -6.5585370  
H    6.6535643   -5.5710696   -3.7104937  
H    3.4550175   -2.8735476   -3.2696548  
H    3.8097618   -3.1948920   -9.2644314  
H    6.1078107   -5.1245282   -8.9917462  
H    6.5957613   -5.5297377   -6.7480656  
H    5.0856747   -4.2502933   -1.9594779  
C    2.5049800   -2.0931560   -5.9399570  
C    1.9571814   -1.6308517   -4.7865848  
C    0.8879542   -0.7344211   -5.1580690  
C    0.8574967   -0.7122313   -6.6329831  
N    1.8627384   -1.5562146   -7.0453796  
C   -0.0149283    0.0176861   -7.3731166  
C   -0.9887734    0.8362266   -6.6701573  
O   -1.8166679    1.5292766   -7.2468484  
C   -0.9745397    0.8281735   -5.1082553  
O   -1.7894805    1.5135873   -4.5054780  
C    0.0139741    0.0003876   -4.4216236  
H    2.2669048   -1.8882737   -3.7893794  
H   -0.0204614    0.0196995   -8.4542617  
H    2.0929214   -1.7534646   -8.0020176  
C    3.2798085    0.0005853   -1.4499648  
C    2.5571144    0.0005562   -2.5996554  
C    1.1637436    0.0001546   -2.2210360  
C    1.1336965   -0.0000201   -0.7459470  
N    2.4483513   -0.0001430   -0.3402717  
C    0.0000000    0.0000000    0.0000000  
C   -1.2757367   -0.0000188   -0.6964414  
O   -2.3524597   -0.0000640   -0.1142313  
C   -1.2676494   -0.0000875   -2.2584081  
O   -2.3355762   -0.0004102   -2.8557294  
C    0.0181562    0.0001757   -2.9516296  
H    2.9547357    0.0006072   -3.5989105  
H    4.3498550    0.0008609   -1.3200021  
H    2.7563627    0.0012824    0.6148063  
C    0.8175213    0.6860729    2.3021913  
C    0.0000000    0.0000000    1.4700000  
C   -0.8887526   -0.7456559    2.3478473  
C   -0.4549825   -0.3816753    3.7138435  
N    0.5448156    0.4573574    3.6934124  
C   -1.0945674   -0.9182058    4.8835240  
C   -2.1210866   -1.7789155    4.6970523  
O   -2.8083856   -2.3554314    5.6976972  
C   -2.5824069   -2.1655116    3.3310774  
O   -3.5227682   -2.9541547    3.2362962  
C   -1.9100805   -1.6015804    2.1470656  
H   -0.7567140   -0.6349833    5.8697035  
H   -3.4728268   -2.9124471    5.2533954  
H   -2.2742832   -1.9066565    1.1752040  
H    1.6189533    1.3585343    2.0405121  
