60

C    5.1569702   -1.1167905   -7.1673576  
C    4.4960352   -0.0158401   -6.6738591  
C    4.8943293    1.0997244   -7.4685146  
C    5.8070250    0.6142269   -8.4397012  
N    5.9455637   -0.7349774   -8.2273990  
C    6.4046531    1.4408957   -9.3958651  
C    6.0746789    2.7820498   -9.3713633  
O    6.6289995    3.6337608  -10.2825883  
C    5.1663723    3.2854587   -8.4099201  
O    4.9405335    4.6423593   -8.5155652  
C    4.5766255    2.4705576   -7.4661715  
H    6.5222782   -1.3517312   -8.7705346  
H    7.1011558    1.0770630  -10.1386377  
H    6.2694895    4.5098183  -10.0914353  
H    4.3164350    4.9010543   -7.8305974  
H    3.8847559    2.8847877   -6.7421490  
H    5.1293541   -2.1439366   -6.8461611  
C    4.5294737   -2.1111778   -2.7873602  
C    4.8355748   -1.6481497   -4.0267077  
C    3.7722452   -0.7522110   -4.4158856  
C    2.8147156   -0.7310541   -3.2936206  
N    3.3317090   -1.5757412   -2.3385758  
C    1.6707636   -0.0012343   -3.2725974  
C    1.3618921    0.8179366   -4.4328097  
O    0.3558259    1.5108613   -4.5101842  
C    2.3616939    0.8105939   -5.6328715  
O    2.1121098    1.4960722   -6.6152601  
C    3.5619235   -0.0167230   -5.5388102  
H    5.7067350   -1.9050624   -4.6026323  
H    5.0780201   -2.7986807   -2.1642014  
H    2.9056661   -1.7713787   -1.4512985  
C    1.0965514    0.0001358   -0.8010306  
C    0.0000000    0.0000000    0.0000000  
C   -1.1546565    0.0001470   -0.8669508  
C   -0.6372019    0.0003520   -2.2486278  
N    0.7342867    0.0007338   -2.1395012  
C   -1.4147744    0.0001354   -3.3608712  
C   -2.8576052   -0.0001047   -3.1854454  
O   -3.6427785   -0.0002490   -4.1244896  
C   -3.4275841   -0.0000727   -1.7311660  
O   -4.6406832    0.0000333   -1.5710049  
C   -2.4891868   -0.0001090   -0.6116739  
H   -1.0150456    0.0001617   -4.3654239  
H   -2.8919122   -0.0002919    0.3920871  
H    2.1388270    0.0000663   -0.5261650  
C    0.8681109    0.7263879    2.2709268  
C    0.6127770    0.5096195    3.5869401  
C   -0.4920590   -0.4175482    3.6542670  
C   -0.8620974   -0.7254003    2.2596025  
N    0.0000000    0.0000000    1.4700000  
C   -1.8641242   -1.5660088    1.8976294  
C   -2.6293522   -2.2103885    2.9520183  
O   -3.5512764   -2.9839180    2.7283916  
C   -2.2549728   -1.8987399    4.4361073  
O   -2.8923672   -2.4351063    5.3323774  
C   -1.1543735   -0.9755647    4.7012123  
H    1.1382914    0.9492124    4.4159191  
H   -2.1192137   -1.7782617    0.8686553  
H   -0.9013378   -0.7652422    5.7314848  
H    1.6172880    1.3558399    1.8188057  
