64

C    0.9735614   -0.0122826   -4.6965759  
C   -0.3184492   -0.0009345   -5.1688551  
C   -0.2411499   -0.0027667   -6.5931519  
C    1.1353397   -0.0158152   -6.9352515  
N    1.8452693   -0.0193654   -5.7602602  
C    1.5856416   -0.0213360   -8.2588780  
C    0.6289552   -0.0138495   -9.2553077  
O    1.0134847   -0.0191144  -10.5649347  
C   -0.7492295   -0.0004363   -8.9339920  
O   -1.5772180    0.0061073  -10.0375029  
C   -1.1941828    0.0052899   -7.6284236  
H   -1.2072875    0.0087179   -4.5615113  
H    2.8463995   -0.0386631   -5.6871415  
H    2.6333213   -0.0311305   -8.5262243  
H    0.2013163   -0.0120343  -11.0880010  
H   -2.4897890    0.0150690   -9.7329747  
C   -1.1188311    0.0086427   -0.8003809  
C    0.0000000    0.0000000    0.0000000  
C    1.1323381   -0.0104692   -0.8673524  
C    0.6382270   -0.0073672   -2.1969280  
N   -0.7324077    0.0023476   -2.1202242  
C    1.4770158   -0.0152270   -3.3154808  
C    2.8394284   -0.0261153   -3.0876855  
O    3.7037675   -0.0337755   -4.1440345  
C    3.3516555   -0.0297471   -1.7684322  
O    4.7298700   -0.0412500   -1.7073116  
C    2.5247562   -0.0222710   -0.6644814  
H   -1.3575349    0.0171012   -2.9057046  
H    4.5938212   -0.0410452   -3.7685124  
H    4.9932759   -0.0429679   -0.7819903  
H    2.9461477   -0.0254838    0.3339667  
H   -2.1619200    0.0173537   -0.5342070  
C   -3.2418480    0.7450551   -6.3375707  
C   -2.6348027    0.0195065   -7.3363411  
C   -3.6640948   -0.6999082   -8.0128025  
C   -4.8886932   -0.3705948   -7.3773204  
N   -4.5961679    0.5073470   -6.3632869  
C   -6.1176769   -0.8989839   -7.7837595  
C   -6.1103385   -1.7755504   -8.8513526  
O   -7.2824588   -2.3206267   -9.2895754  
C   -4.8986815   -2.1166875   -9.4981372  
O   -5.0571320   -3.0021603  -10.5441649  
C   -3.6858575   -1.5960107   -9.0975384  
H   -5.2680452    0.9236675   -5.7442235  
H   -7.0544916   -0.6521034   -7.3035201  
H   -7.0554719   -2.8955942  -10.0319738  
H   -4.1920936   -3.1798574  -10.9259187  
H   -2.7741621   -1.8759859   -9.6122263  
H   -2.8157382    1.4121995   -5.6079762  
C    0.8400945    0.7047457    2.2710304  
C    0.0000000    0.0000000    1.4700000  
C   -0.8844236   -0.7423113    2.3369512  
C   -0.4878984   -0.4098547    3.7186280  
N    0.5629682    0.4714286    3.6095011  
C   -1.0836927   -0.9095027    4.8308716  
C   -2.1891196   -1.8367527    4.6554461  
O   -2.7906899   -2.3413415    5.5944904  
C   -2.6257283   -2.2031529    3.2011665  
O   -3.5549479   -2.9829990    3.0410059  
C   -1.9068976   -1.5999348    2.0816745  
H   -0.7774656   -0.6525820    5.8354244  
H   -2.2155208   -1.8586617    1.0779135  
H    1.6384792    1.3747609    1.9961646  
H    1.0518368    0.8833920    4.3830260  
