60

C    5.1118932   -0.0090911   -7.9073958  
C    6.2091067   -0.6835067   -8.3908782  
C    6.3488649   -0.3214338   -9.7634558  
C    5.2996025    0.5845158  -10.0638393  
N    4.5661180    0.7508102   -8.9153786  
C    5.1278633    1.1494904  -11.3311588  
C    6.0319955    0.7936634  -12.3130505  
O    5.9109370    1.3161513  -13.5681859  
C    7.0853362   -0.1089873  -12.0328513  
O    7.9017891   -0.3637377  -13.1153726  
C    7.2552080   -0.6669445  -10.7829110  
H    6.8314659   -1.3548060   -7.8242917  
H    3.7632884    1.3461788   -8.8206032  
H    4.3301472    1.8404635  -11.5665472  
H    6.6325656    0.9422085  -14.0903770  
H    8.5862828   -0.9817630  -12.8412974  
H    8.0714130   -1.3555371  -10.5981736  
C    6.1837013   -2.1071897   -4.1730098  
C    6.1473622   -1.6429267   -5.4486332  
C    5.0179319   -0.7478970   -5.5388750  
C    4.3948020   -0.7286187   -4.2016659  
N    5.1487786   -1.5734158   -3.4201748  
C    3.2973506   -0.0000934   -3.8752374  
C    2.6891817    0.8195673   -4.9100425  
O    1.6983690    1.5114227   -4.7152923  
C    3.3322639    0.8142068   -6.3334969  
O    2.8288284    1.5001132   -7.2128972  
C    4.5147647   -0.0118356   -6.5641428  
H    6.8333442   -1.8984505   -6.2365100  
H    6.8793287   -2.7945278   -3.7196240  
H    4.9752871   -1.7701682   -2.4515488  
C    3.3321174    0.0004714   -1.3379332  
C    2.6974186    0.0000115   -2.5332308  
C    1.2800441   -0.0002119   -2.2052838  
C    1.2395035    0.0000643   -0.7271293  
N    2.4394063    0.0005458   -0.2131034  
C    0.0000000    0.0000000    0.0000000  
C   -1.1468701    0.0000634   -0.7169542  
O   -2.3742201    0.0000072   -0.1695492  
C   -1.1388767    0.0001606   -2.2096354  
O   -2.2206229    0.0000903   -2.7970413  
C    0.1454526    0.0001815   -2.9324239  
H   -2.9844344    0.0001023   -0.9290168  
H    0.1083580    0.0003680   -4.0135594  
H    4.3940040    0.0007617   -1.1498630  
C    0.8400945    0.7047457    2.2710304  
C    0.0000000    0.0000000    1.4700000  
C   -0.8844236   -0.7423113    2.3369512  
C   -0.4878984   -0.4098547    3.7186280  
N    0.5629682    0.4714286    3.6095011  
C   -1.0836927   -0.9095027    4.8308716  
C   -2.1891196   -1.8367527    4.6554461  
O   -2.7906899   -2.3413415    5.5944904  
C   -2.6257283   -2.2031529    3.2011665  
O   -3.5549479   -2.9829990    3.0410059  
C   -1.9068976   -1.5999348    2.0816745  
H   -0.7774656   -0.6525820    5.8354244  
H   -2.2155208   -1.8586617    1.0779135  
H    1.6384792    1.3747609    1.9961646  
H    1.0518368    0.8833920    4.3830260  
