64

C   -1.6631884    0.0132351   -3.2649299  
C   -3.0377500    0.0531543   -3.3030573  
C   -3.4163511    0.0513446   -4.6782877  
C   -2.2200871    0.0088650   -5.4392565  
N   -1.1743081   -0.0114765   -4.5501278  
C   -2.2131798   -0.0048390   -6.8373100  
C   -3.4361816    0.0245745   -7.4788534  
O   -3.4871877    0.0125355   -8.8427692  
C   -4.6406396    0.0674804   -6.7370601  
O   -5.7756116    0.0932887   -7.5209695  
C   -4.6481996    0.0812952   -5.3578289  
H   -3.6875895    0.0813502   -2.4452074  
H   -0.2023312   -0.0525611   -4.7982288  
H   -4.4230066    0.0378454   -9.0812401  
H   -6.5440340    0.1216697   -6.9427607  
H   -5.5866322    0.1145426   -4.8167951  
C   -1.1241732    0.0218656   -0.7919004  
C   -0.7477726   -0.0022700   -2.1148544  
C    0.6778007   -0.0426689   -2.1414702  
C    1.1194454   -0.0415911   -0.7935547  
N    0.0000000    0.0000000    0.0000000  
C    2.4719083   -0.0764335   -0.4408242  
C    3.3953471   -0.1133377   -1.4675068  
O    4.7290384   -0.1486647   -1.1793476  
C    2.9743095   -0.1146623   -2.8186328  
O    4.0139149   -0.1532922   -3.7247631  
C    1.6402470   -0.0800283   -3.1673483  
H    2.8150026   -0.0756715    0.5845959  
H    5.1911421   -0.1702262   -2.0274391  
H    3.6436362   -0.1515186   -4.6127351  
H    1.3479693   -0.0818092   -4.2109238  
H   -2.1055512    0.0543928   -0.3505404  
C    0.1376544   -0.7972122   -7.3395164  
C   -0.9783670   -0.0485968   -7.6336911  
C   -0.6982016    0.6604444   -8.8392481  
C    0.6148654    0.3013242   -9.2377632  
N    1.0943059   -0.5836350   -8.3041675  
C    1.2223279    0.8124616  -10.3886397  
C    0.4908201    1.7021061  -11.1512711  
O    1.0357535    2.2313427  -12.2852771  
C   -0.8206164    2.0729536  -10.7699260  
O   -1.4182024    2.9682509  -11.6328736  
C   -1.4204216    1.5693074   -9.6345408  
H    1.9983779   -1.0195849   -8.3283015  
H    2.2228096    0.5428504  -10.6977480  
H    0.3674884    2.8194090  -12.6605964  
H   -2.3000547    3.1661889  -11.3030849  
H   -2.4262529    1.8719775   -9.3677582  
H    0.3274831   -1.4655135   -6.5171431  
C    0.0000000    0.0000000    1.4700000  
C    1.0662921    0.0000102    2.3034270  
C    0.4961870   -0.0000064    3.6418889  
C   -0.9663858    0.0000850    3.4240247  
N   -1.2632773    0.0000084    2.1528658  
C   -1.8985362    0.0000517    4.5177257  
C   -1.3925775   -0.0004564    5.7720543  
O   -2.1456383   -0.0005410    6.8851312  
C    0.0786232   -0.0009323    6.0245000  
O    0.4683759   -0.0012588    7.1921102  
C    1.0143166   -0.0008442    4.8859032  
H    2.1107198   -0.0000632    2.0421868  
H   -2.9622183    0.0003270    4.3293377  
H   -1.5042274   -0.0009692    7.6184419  
H    2.0724152   -0.0013148    5.1109744  
