62

C   -0.1003142   -3.1080960  -10.3190124  
C   -0.3163824   -2.3076729  -11.4167855  
C   -0.5193205   -0.9817025  -10.9317914  
C   -0.4144570   -1.0349462   -9.5182520  
N   -0.1616073   -2.3409860   -9.1792171  
C   -0.5599405    0.0937518   -8.7060546  
C   -0.8156451    1.2981928   -9.3322461  
O   -0.9661288    2.4317188   -8.5869350  
C   -0.9241487    1.3714961  -10.7413843  
O   -1.1815399    2.6419276  -11.2137149  
C   -0.7810085    0.2583662  -11.5432430  
H   -0.3275707   -2.6389556  -12.4410509  
H   -0.0276020   -2.6824613   -8.2446487  
H   -1.1356886    3.1487823   -9.2117027  
H   -1.2397550    2.6036671  -12.1732722  
H   -0.8695893    0.3453603  -12.6198413  
H    0.0912479   -4.1657513  -10.2587879  
C    2.1798963   -2.1221801   -5.9542194  
C    1.5460052   -1.6229249   -7.0683974  
C    0.5185213   -0.7482579   -6.6059748  
C    0.5740703   -0.7535762   -5.1886487  
N    1.5926022   -1.5994966   -4.8258419  
C   -0.2963293   -0.0005341   -4.3948471  
C   -1.2397987    0.7721841   -5.0436536  
O   -2.1143391    1.5272219   -4.3169419  
C   -1.3112054    0.7904347   -6.4569424  
O   -2.3047783    1.6091615   -6.9527679  
C   -0.4530328    0.0475827   -7.2406751  
H    1.7929871   -1.8608393   -8.0888834  
H    1.8756081   -1.7961378   -3.8828567  
H   -2.6787920    1.9818131   -4.9556939  
H   -2.2847551    1.5640942   -7.9135858  
H    3.0035534   -2.8108677   -5.8751160  
C    3.1301146   -0.0010313   -1.7028256  
C    2.5367765   -0.0002766   -0.4864669  
C    1.1089901    0.0001027   -0.7656184  
C    1.0177865   -0.0004150   -2.2415133  
N    2.1993571   -0.0011612   -2.7963824  
C   -0.2459219   -0.0002879   -2.9257116  
C   -1.3675326   -0.0000606   -2.1698520  
O   -2.6129318    0.0000865   -2.6748483  
C   -1.3083588    0.0000910   -0.6783229  
O   -2.3693264    0.0004206   -0.0541685  
C    0.0000000    0.0000000    0.0000000  
H    3.0096016   -0.0001007    0.4807518  
H   -3.1967444    0.0002093   -1.8949026  
H    4.1849275   -0.0015114   -1.9271979  
C    0.8175213    0.6860729    2.3021913  
C    0.0000000    0.0000000    1.4700000  
C   -0.8887526   -0.7456559    2.3478473  
C   -0.4549825   -0.3816753    3.7138435  
N    0.5448156    0.4573574    3.6934124  
C   -1.0945674   -0.9182058    4.8835240  
C   -2.1210866   -1.7789155    4.6970523  
O   -2.8083856   -2.3554314    5.6976972  
C   -2.5824069   -2.1655116    3.3310774  
O   -3.5227682   -2.9541547    3.2362962  
C   -1.9100805   -1.6015804    2.1470656  
H   -0.7567140   -0.6349833    5.8697035  
H   -3.4728268   -2.9124471    5.2533954  
H   -2.2742832   -1.9066565    1.1752040  
H    1.6189533    1.3585343    2.0405121  
