62

C    1.9416131   -1.9941028   -8.4391276  
C    2.9258989   -2.8333458   -8.9074426  
C    2.8492625   -2.8110047  -10.3316012  
C    1.7904730   -1.9328830  -10.6777119  
N    1.2595724   -1.4556850   -9.5050895  
C    1.4294815   -1.6686407  -12.0023439  
C    2.1506632   -2.3021672  -12.9956819  
O    1.8404678   -2.0796470  -14.3061303  
C    3.2102650   -3.1820589  -12.6703354  
O    3.8313213   -3.7351841  -13.7711012  
C    3.5667667   -3.4434180  -11.3637671  
H    3.6137267   -3.3936694   -8.2975873  
H    0.4998351   -0.8030773   -9.4352062  
H    0.6234354   -1.0005245  -12.2727387  
H    2.4563539   -2.6116392  -14.8266435  
H    4.5340583   -4.3160536  -13.4639280  
H    4.3828280   -4.1222419  -11.1453154  
C    2.1650267   -2.1089225   -5.9297635  
C    1.5723604   -1.6445161   -7.0598730  
C    0.5184569   -0.7489599   -6.6450207  
C    0.5459256   -0.7295296   -5.1700098  
N    1.5661287   -1.5747495   -4.7989582  
C   -0.2963293   -0.0005341   -4.3948471  
C   -1.2968020    0.8195083   -5.0575088  
O   -2.1011000    1.5117977   -4.4474755  
C   -1.3442163    0.8139948   -6.6187671  
O   -2.1824062    1.5002192   -7.1877960  
C   -0.3835314   -0.0125660   -7.3452196  
H   -0.4228732   -0.0106496   -8.4260400  
H    2.9887824   -2.7966239   -5.8278731  
H    1.8355780   -1.7715190   -3.8525301  
C    3.1301146   -0.0010313   -1.7028256  
C    2.5367765   -0.0002766   -0.4864669  
C    1.1089901    0.0001027   -0.7656184  
C    1.0177865   -0.0004150   -2.2415133  
N    2.1993571   -0.0011612   -2.7963824  
C   -0.2459219   -0.0002879   -2.9257116  
C   -1.3675326   -0.0000606   -2.1698520  
O   -2.6129318    0.0000865   -2.6748483  
C   -1.3083588    0.0000910   -0.6783229  
O   -2.3693264    0.0004206   -0.0541685  
C    0.0000000    0.0000000    0.0000000  
H    3.0096016   -0.0001007    0.4807518  
H   -3.1967444    0.0002093   -1.8949026  
H    4.1849275   -0.0015114   -1.9271979  
C    0.8576279    0.7185626    2.2703808  
C    0.0000000    0.0000000    1.4700000  
C   -0.8668858   -0.7285659    2.3373528  
C   -0.4876752   -0.4117774    3.6669281  
N    0.5635254    0.4678311    3.5902241  
C   -1.1297612   -0.9515493    4.7854808  
C   -2.1738724   -1.8268314    4.5576857  
O   -2.8357962   -2.3827064    5.6140350  
C   -2.5667212   -2.1555554    3.2384331  
O   -3.6226318   -3.0413663    3.1773122  
C   -1.9335634   -1.6236449    2.1344818  
H    1.0363952    0.8769718    4.3757045  
H   -0.8454472   -0.7142436    5.8013813  
H   -3.5178062   -2.9546422    5.2385129  
H   -3.8247440   -3.2102924    2.2519915  
H   -2.2566033   -1.8942483    1.1360343  
H    1.6567807    1.3889844    2.0042067  
