64

C   -8.4881640    0.6134899   -2.2631523  
C   -8.1000995   -0.6303906   -2.7043261  
C   -9.1816507   -1.5220192   -2.4400454  
C  -10.2110603   -0.7589034   -1.8318534  
N   -9.7565033    0.5330383   -1.7376113  
C  -11.4307906   -1.3150726   -1.4347074  
C  -11.6148043   -2.6661548   -1.6558278  
O  -12.7871993   -3.2602735   -1.2876865  
C  -10.5994360   -3.4443882   -2.2609673  
O  -10.9342803   -4.7741337   -2.4126221  
C   -9.3957892   -2.8964349   -2.6527684  
H  -10.2745694    1.3042325   -1.3570222  
H  -12.2193171   -0.7389089   -0.9705297  
H  -12.7080102   -4.1926423   -1.5278556  
H  -10.1950833   -5.2284134   -2.8283407  
H   -8.6367682   -3.5176715   -3.1136691  
H   -7.9600150    1.5514222   -2.2804798  
C   -3.9847107    0.7177359   -1.8071027  
C   -3.3460097   -0.0004262   -2.7913647  
C   -4.3510979   -0.7290149   -3.4939003  
C   -5.5942329   -0.4126521   -2.8885437  
N   -5.3355655    0.4667354   -1.8665915  
C   -6.8075069   -0.9525620   -3.3258655  
C   -6.7651065   -1.8275472   -4.3939391  
O   -7.9205865   -2.3835397   -4.8616468  
C   -5.5345118   -2.1558450   -5.0109281  
O   -5.6582863   -3.0413985   -6.0615557  
C   -4.3371703   -1.6237976   -4.5798532  
H   -6.0266291    0.8755675   -1.2638735  
H   -7.6696382   -2.9552234   -5.5988493  
H   -4.7823574   -3.2100422   -6.4219880  
H   -3.4103027   -1.8940726   -5.0721402  
H   -3.5833885    1.3880424   -1.0664350  
C    0.0000000    0.0000000    0.0000000  
C    1.0662919   -0.0000103   -0.8334272  
C    0.4961868    0.0000066   -2.1718889  
C   -0.9663860   -0.0000849   -1.9540248  
N   -1.2632775   -0.0000084   -0.6828659  
C   -1.8985364   -0.0000515   -3.0477258  
C   -1.3925778    0.0004567   -4.3020543  
O   -2.1456385    0.0005412   -5.4151314  
C    0.0786229    0.0009326   -4.5544999  
O    0.4683756    0.0012594   -5.7221104  
C    1.0143162    0.0008443   -3.4159034  
H    2.1107195    0.0000631   -0.5721869  
H   -1.5042277    0.0009692   -6.1484420  
H    2.0724151    0.0013151   -3.6409746  
C    3.3003543   -0.0005276    2.9438989  
C    2.5232812   -0.0003497    4.0790748  
C    1.1623199    0.0001319    3.6520102  
C    1.1711883   -0.0000583    2.2336141  
N    2.4852299    0.0014920    1.8362361  
C    0.0000000    0.0000000    1.4700000  
C   -1.2020384   -0.0000520    2.1506477  
O   -2.3759250   -0.0003494    1.4542253  
C   -1.2314658    0.0005113    3.5655508  
O   -2.5054393    0.0008037    4.0950179  
C   -0.0764518    0.0007272    4.3195194  
H    2.8919952    0.0005619    5.0905303  
H    2.8036267   -0.0088181    0.8841339  
H   -3.0835639   -0.0000348    2.1118817  
H   -2.4360050    0.0011527    5.0545920  
H   -0.1304098    0.0013421    5.4019087  
H    4.3715549   -0.0004895    2.8367138  
