62

C    1.3958981   -2.3814667   -7.7397053  
C    0.9651107   -1.0781175   -7.6493175  
C    1.2825432   -0.4477724   -8.8888744  
C    1.9109633   -1.4242393   -9.7034456  
N    1.9655877   -2.5862853   -8.9745546  
C    2.3595870   -1.1528798  -10.9995508  
C    2.1701034    0.1274604  -11.4822551  
O    2.5888459    0.4465221  -12.7415670  
C    1.5454914    1.1155717  -10.6845636  
O    1.4301408    2.3413268  -11.3071077  
C    1.1029079    0.8486495   -9.4057366  
H    2.3490731   -3.4562442   -9.2971873  
H    2.8394181   -1.8926563  -11.6254069  
H    2.3635779    1.3761504  -12.8768804  
H    0.9981315    2.9508608  -10.7009391  
H    0.6281947    1.6259089   -8.8183761  
H    1.3431491   -3.1807963   -7.0205053  
C    0.6496545   -0.7066350   -5.1591666  
C   -0.1496415   -0.0015615   -4.3176961  
C   -1.0762655    0.7401247   -5.1399522  
C   -0.7489652    0.4069440   -6.5394717  
N    0.3061889   -0.4741189   -6.4823094  
C   -1.3994874    0.9058710   -7.6209511  
C   -2.4949748    1.8330541   -7.3912234  
O   -3.1426433    2.3370192   -8.2994331  
C   -2.8587001    2.2002135   -5.9172144  
O   -3.7789323    2.9800102   -5.7114232  
C   -2.0849148    1.5977389   -4.8345636  
H   -1.1436101    0.6484266   -8.6393609  
H   -2.3432252    1.8569887   -3.8168260  
H    1.4608539   -1.3763737   -4.9240181  
C    3.3003543    0.0005276   -1.4738987  
C    2.5232814    0.0003497   -2.6090747  
C    1.1623200   -0.0001320   -2.1820103  
C    1.1711883    0.0000582   -0.7636140  
N    2.4852300   -0.0014919   -0.3662360  
C    0.0000000    0.0000000    0.0000000  
C   -1.2020384    0.0000519   -0.6806477  
O   -2.3759249    0.0003493    0.0157743  
C   -1.2314656   -0.0005115   -2.0955510  
O   -2.5054392   -0.0008039   -2.6250180  
C   -0.0764516   -0.0007274   -2.8495195  
H    2.8919955   -0.0005620   -3.6205304  
H    2.8036267    0.0088183    0.5858662  
H   -3.0835638    0.0000347   -0.6418818  
H   -2.4360047   -0.0011529   -3.5845921  
H    4.3715549    0.0004895   -1.3667136  
C    2.4951002    2.0940188    2.9809380  
C    1.9440701    1.6314916    1.8291961  
C    0.8759964    0.7350050    2.2038498  
C    0.8497377    0.7130254    3.6788474  
N    1.8560616    1.5571714    4.0882609  
C   -0.0205033   -0.0168748    4.4215661  
C   -0.9962600   -0.8356168    3.7214979  
O   -1.8224391   -1.5286685    4.3006425  
C   -0.9864710   -0.8277881    2.1595606  
O   -1.8030528   -1.5133726    1.5592035  
C    0.0000000    0.0000000    1.4700000  
H    2.2509283    1.8888011    0.8310761  
H   -0.0229599   -0.0187323    5.5027230  
H    3.3143982    2.7817323    3.1139444  
H    2.0889452    1.7545833    5.0442112  
