62

C   -6.8711881    1.9442658    0.1875488  
C   -7.1639207    2.7753258    1.2440123  
C   -8.5768800    2.7264563    1.4331019  
C   -9.0973876    1.8413316    0.4545560  
N   -8.0351822    1.3856578   -0.2861854  
C  -10.4609282    1.5522607    0.3450831  
C  -11.3145360    2.1676985    1.2399386  
O  -12.6554767    1.9206406    1.1778601  
C  -10.8143113    3.0542082    2.2231442  
O  -11.7905768    3.5871931    3.0393410  
C   -9.4692965    3.3400570    2.3315512  
H   -6.4473483    3.3473588    1.8081892  
H   -8.0956137    0.7339460   -1.0475006  
H  -10.8639737    0.8786846   -0.3985918  
H  -13.0622542    2.4432818    1.8811695  
H  -11.3689780    4.1741508    3.6744305  
H   -9.1156189    4.0233801    3.0947424  
C   -4.3568011    2.1196432   -0.0439434  
C   -5.5783087    1.6201330   -0.4323715  
C   -5.3394752    0.7460401   -1.5339702  
C   -3.9416100    0.7519547   -1.7745206  
N   -3.3751248    1.5976636   -0.8533860  
C   -3.3460097   -0.0004262   -2.7913647  
C   -4.1766438   -0.7730847   -3.5795419  
O   -3.6475259   -1.5274892   -4.5864790  
C   -5.5738549   -0.7919241   -3.3553482  
O   -6.2652647   -1.6105065   -4.2243823  
C   -6.1621470   -0.0497242   -2.3525630  
H   -2.3939627    1.7946126   -0.7726814  
H   -4.3895802   -1.9821535   -5.0058840  
H   -7.2009061   -1.5658643   -4.0048709  
H   -7.2352196   -0.0842033   -2.2048984  
H   -4.1083018    2.8080669    0.7455379  
C    0.0000000    0.0000000    0.0000000  
C    1.0662919   -0.0000103   -0.8334272  
C    0.4961868    0.0000066   -2.1718889  
C   -0.9663860   -0.0000849   -1.9540248  
N   -1.2632775   -0.0000084   -0.6828659  
C   -1.8985364   -0.0000515   -3.0477258  
C   -1.3925778    0.0004567   -4.3020543  
O   -2.1456385    0.0005412   -5.4151314  
C    0.0786229    0.0009326   -4.5544999  
O    0.4683756    0.0012594   -5.7221104  
C    1.0143162    0.0008443   -3.4159034  
H    2.1107195    0.0000631   -0.5721869  
H   -1.5042277    0.0009692   -6.1484420  
H    2.0724151    0.0013151   -3.6409746  
C    1.0672568    0.0000697    2.3021913  
C    0.0000000    0.0000000    1.4700000  
C   -1.1601224    0.0000736    2.3478473  
C   -0.5938729    0.0000769    3.7138435  
N    0.7113367    0.0001554    3.6934124  
C   -1.4286986    0.0001879    4.8835240  
C   -2.7683114    0.0006799    4.6970523  
O   -3.6653903    0.0008304    5.6976972  
C   -3.3702025    0.0010610    3.3310774  
O   -4.5974910    0.0013779    3.2362962  
C   -2.4926826    0.0008943    2.1470656  
H   -0.9878360   -0.0000190    5.8697035  
H   -4.5324246    0.0012261    5.2533954  
H   -2.9677772    0.0012974    1.1752040  
H    2.1134392    0.0000545    2.0405121  
