62

C    0.1451901   -0.6002304   -9.6580529  
C   -0.3433008    0.6434121   -9.3306425  
C    0.0633026    1.5362728  -10.3660516  
C    0.8030941    0.7741200  -11.3061348  
N    0.8353027   -0.5184607  -10.8448168  
C    1.3596724    1.3316203  -12.4612128  
C    1.1656462    2.6830690  -12.6712582  
O    1.6871787    3.2784753  -13.7832430  
C    0.4307590    3.4603558  -11.7446613  
O    0.3256938    4.7906207  -12.0949485  
C   -0.1183722    2.9110887  -10.6047996  
H    1.2812938   -1.2892142  -11.3085107  
H    1.9246742    0.7561950  -13.1815310  
H    1.4389789    4.2108843  -13.7355460  
H   -0.1847505    5.2441963  -11.4172174  
H   -0.6761708    3.5316228   -9.9132239  
H    0.0571542   -1.5388305   -9.1382082  
C   -0.0037890   -0.7105352   -5.1341627  
C   -1.0641734    0.0073898   -4.6315339  
C   -1.6260116    0.7376864   -5.7203887  
C   -0.8603259    0.4225625   -6.8720603  
N    0.1176069   -0.4577634   -6.4805354  
C   -1.1316217    0.9642909   -8.1321067  
C   -2.1954372    1.8398547   -8.2314161  
O   -2.5045526    2.3976096   -9.4382181  
C   -2.9709732    2.1669368   -7.0937087  
O   -3.9953212    3.0532721   -7.3553653  
C   -2.7037390    1.6330952   -5.8502755  
H    0.8069750   -0.8660647   -7.0855499  
H   -3.2684088    2.9694078   -9.2871062  
H   -4.4693375    3.2210039   -6.5351347  
H   -3.3151855    1.9024709   -4.9970181  
H    0.6764268   -1.3817965   -4.6385081  
C    1.1319248    0.0015675   -0.8009270  
C    0.7969916    0.0034959   -2.1169404  
C   -0.6453336    0.0035703   -2.1842672  
C   -1.1266831    0.0015415   -0.7896027  
N    0.0000000    0.0000000    0.0000000  
C   -2.4346129    0.0013924   -0.4276297  
C   -3.4350110    0.0031352   -1.4820184  
O   -4.6384610    0.0030897   -1.2583919  
C   -2.9478958    0.0050460   -2.9661075  
O   -3.7809377    0.0062160   -3.8623775  
C   -1.5113821    0.0053068   -3.2312125  
H    1.4821240    0.0045436   -2.9459192  
H   -2.7664565    0.0000185    0.6013447  
H    2.1104318    0.0009428   -0.3488058  
C    2.5528530    2.1414826    2.8079335  
C    2.0663498    1.7338582    4.0032312  
C    0.9804344    0.8229586    3.6752840  
C    0.9495562    0.7966882    2.1971295  
N    1.8690446    1.5676019    1.6831036  
C    0.0000000    0.0000000    1.4700000  
C   -0.8785127   -0.7372425    2.1869543  
O   -1.8187535   -1.5261249    1.6395491  
C   -0.8723269   -0.7321790    3.6796354  
O   -1.7010379   -1.4274584    4.2670412  
C    0.1115397    0.0933559    4.4024240  
H    2.4028853    2.0163452    4.9860947  
H   -2.2861435   -1.9184361    2.3990168  
H    0.0832434    0.0693689    5.4835595  
H    3.3664920    2.8238276    2.6198634  
