62

C    8.2871483    0.0114109   -2.1338434  
C    8.5645252    0.0137111   -3.4812571  
C    9.9846372    0.0300829   -3.6139773  
C   10.5251652    0.0369524   -2.3026006  
N    9.4672282    0.0272412   -1.4277910  
C   11.9004916    0.0526817   -2.0515595  
C   12.7455529    0.0613326   -3.1442500  
O   14.0973765    0.0763946   -2.9562111  
C   12.2253282    0.0550613   -4.4603592  
O   13.1951999    0.0655447   -5.4414715  
C   10.8686456    0.0398181   -4.7087642  
H    7.8332536    0.0058028   -4.2713027  
H    9.5420776    0.0185168   -0.4266406  
H   12.3187888    0.0581317   -1.0544636  
H   14.4954569    0.0805375   -3.8364274  
H   12.7599643    0.0603562   -6.2994614  
H   10.4996722    0.0355220   -5.7277429  
C    5.7628303    0.0000250   -2.0437091  
C    4.7795901    0.0008674   -1.0815733  
C    5.4361691    0.0004496    0.1847221  
C    6.8315417   -0.0003744   -0.0699541  
N    6.9950514   -0.0025640   -1.4329939  
C    7.7866665   -0.0006604    0.9510869  
C    7.3247567    0.0002026    2.2529380  
O    8.2141755    0.0003209    3.2882866  
C    5.9363881    0.0006567    2.5272563  
O    5.6358413    0.0010869    3.8737390  
C    4.9935669    0.0006658    1.5204720  
H    8.8515839   -0.0014319    0.7635961  
H    7.6891821    0.0006671    4.0992406  
H    4.6787634    0.0014035    3.9717415  
H    3.9369291    0.0008378    1.7612934  
H    5.6826514   -0.0003796   -3.1172687  
C    3.3321168    0.0004716   -1.3379341  
C    2.6974177    0.0000118   -2.5332316  
C    1.2800432   -0.0002116   -2.2052842  
C    1.2395033    0.0000644   -0.7271298  
N    2.4394059    0.0005460   -0.2131041  
C    0.0000000    0.0000000    0.0000000  
C   -1.1468704    0.0000635   -0.7169542  
O   -2.3742206    0.0000074   -0.1695488  
C   -1.1388774    0.0001608   -2.2096352  
O   -2.2206238    0.0000906   -2.7970409  
C    0.1454514    0.0001818   -2.9324241  
H    3.1367978   -0.0000649   -3.5160956  
H   -2.9844350    0.0001027   -0.9290164  
H    0.1083567    0.0003684   -4.0135594  
C    0.8175213    0.6860729    2.3021913  
C    0.0000000    0.0000000    1.4700000  
C   -0.8887526   -0.7456559    2.3478473  
C   -0.4549825   -0.3816753    3.7138435  
N    0.5448156    0.4573574    3.6934124  
C   -1.0945674   -0.9182058    4.8835240  
C   -2.1210866   -1.7789155    4.6970523  
O   -2.8083856   -2.3554314    5.6976972  
C   -2.5824069   -2.1655116    3.3310774  
O   -3.5227682   -2.9541547    3.2362962  
C   -1.9100805   -1.6015804    2.1470656  
H   -0.7567140   -0.6349833    5.8697035  
H   -3.4728268   -2.9124471    5.2533954  
H   -2.2742832   -1.9066565    1.1752040  
H    1.6189533    1.3585343    2.0405121  
