62

C    5.4768067   -1.0658684   -6.5397148  
C    6.4683107   -1.9515704   -6.1862764  
C    7.2364910   -2.2069670   -7.3607011  
C    6.6618610   -1.4425859   -8.4082923  
N    5.5943417   -0.7630581   -7.8760672  
C    7.1643480   -1.4495593   -9.7129942  
C    8.2671920   -2.2423830   -9.9646745  
O    8.7986919   -2.2860971  -11.2211017  
C    8.8543916   -3.0124892   -8.9327107  
O    9.9460886   -3.7500479   -9.3420359  
C    8.3590407   -3.0063047   -7.6454211  
H    6.6186659   -2.3638176   -5.2032008  
H    4.9990246   -0.1310174   -8.3801541  
H    6.7308664   -0.8693588  -10.5159038  
H    9.5507406   -2.8909751  -11.1785416  
H   10.2826219   -4.2404996   -8.5858570  
H    8.8298451   -3.6067579   -6.8758262  
C    4.1935184   -0.7177398   -4.3920614  
C    3.1006054    0.0006263   -3.9654951  
C    2.6156865    0.7290727   -5.0919139  
C    3.4596602    0.4124175   -6.1870683  
N    4.4081828   -0.4670001   -5.7271261  
C    3.2765221    0.9521236   -7.4637700  
C    2.2220072    1.8272018   -7.6381675  
O    1.9974363    2.3830042   -8.8644080  
C    1.3691760    2.1557905   -6.5576473  
O    0.3653188    3.0414033   -6.8912721  
C    1.5494155    1.6239448   -5.2978134  
H    3.9163356    0.7149188   -8.3025626  
H    1.2248045    2.9547959   -8.7676620  
H   -0.1646154    3.2102482   -6.1062468  
H    0.8800660    1.8944411   -4.4895551  
H    4.8377617   -1.3880261   -3.8492670  
C    3.2798083    0.0005857   -1.4499652  
C    2.5571142    0.0005565   -2.5996556  
C    1.1637432    0.0001548   -2.2210361  
C    1.1336964   -0.0000200   -0.7459473  
N    2.4483512   -0.0001428   -0.3402723  
C    0.0000000    0.0000000    0.0000000  
C   -1.2757368   -0.0000186   -0.6964415  
O   -2.3524598   -0.0000639   -0.1142311  
C   -1.2676497   -0.0000872   -2.2584083  
O   -2.3355766   -0.0004101   -2.8557295  
C    0.0181558    0.0001758   -2.9516296  
H    0.0150788    0.0003319   -4.0331631  
H    4.3498547    0.0008612   -1.3200026  
H    2.7563626    0.0012823    0.6148059  
C    2.3971438    2.0127888    3.1728260  
C    1.9431056    1.6308205    1.9564670  
C    0.8496017    0.7127664    2.2356185  
C    0.7794028    0.6545384    3.7115134  
N    1.6840587    1.4146091    4.2663826  
C   -0.1885723   -0.1578550    4.3957118  
C   -1.0476298   -0.8789867    3.6398520  
O   -2.0015663   -1.6796266    4.1448486  
C   -1.0022026   -0.8410666    2.1483229  
O   -1.8147390   -1.5232959    1.5241687  
C    0.0000000    0.0000000    1.4700000  
H    2.3054237    1.9346118    0.9892483  
H   -0.2170646   -0.1815267    5.4753125  
H   -2.4487139   -2.0549881    3.3649027  
H    3.2048689    2.6911772    3.3971983  
