64

C    6.9343959   -3.0558171   -7.4109009  
C    6.4351860   -1.8323572   -7.0282749  
C    6.8001909   -0.8980950   -8.0424374  
C    7.5268196   -1.6153553   -9.0270557  
N    7.5915589   -2.9221854   -8.6115793  
C    8.0438526   -1.0096386  -10.1762184  
C    7.8230788    0.3447624  -10.3344424  
O    8.3056227    0.9863067  -11.4383381  
C    7.1007573    1.0776876   -9.3629023  
O    6.9655330    2.4171790   -9.6642672  
C    6.5906363    0.4808399   -8.2288504  
H    8.0372406   -3.6691620   -9.1129542  
H    8.5986347   -1.5507026  -10.9303188  
H    8.0441088    1.9122873  -11.3521117  
H    6.4660780    2.8388409   -8.9583290  
H    6.0415846    1.0680803   -7.5020978  
H    6.8749165   -4.0129174   -6.9216364  
C    5.9329387   -2.1252338   -4.5701444  
C    5.0131319   -1.6623128   -3.6579346  
C    4.1427217   -0.7751635   -4.3579010  
C    4.5839727   -0.7362135   -5.7053827  
N    5.6738276   -1.5656660   -5.7994101  
C    3.9561504    0.0394653   -6.6846425  
C    2.8627883    0.7892520   -6.2966256  
O    2.2121666    1.5642679   -7.2126249  
C    2.4077028    0.7638904   -4.9568228  
O    1.3079542    1.5648733   -4.7280809  
C    3.0267438   -0.0008951   -3.9901699  
H    4.9749618   -1.9301459   -2.6159164  
H    4.2876441    0.0736077   -7.7133057  
H    1.4899374    1.9978179   -6.7396720  
H    1.0650890    1.4902877   -3.8001493  
H    6.7541924   -2.8091832   -4.4408600  
C    3.3003547    0.0005277   -1.4738986  
C    2.5232816    0.0003497   -2.6090746  
C    1.1623203   -0.0001319   -2.1820102  
C    1.1711884    0.0000584   -0.7636141  
N    2.4852301   -0.0014919   -0.3662359  
C    0.0000000    0.0000000    0.0000000  
C   -1.2020383    0.0000520   -0.6806479  
O   -2.3759248    0.0003493    0.0157745  
C   -1.2314655   -0.0005115   -2.0955511  
O   -2.5054388   -0.0008040   -2.6250184  
C   -0.0764513   -0.0007274   -2.8495195  
H    2.8036266    0.0088183    0.5858662  
H   -3.0835639    0.0000346   -0.6418822  
H   -2.4360043   -0.0011529   -3.5845924  
H   -0.1304091   -0.0013423   -3.9319089  
H    4.3715553    0.0004897   -1.3667133  
C    0.0000000    0.0000000    1.4700000  
C    1.0662921    0.0000102    2.3034270  
C    0.4961870   -0.0000064    3.6418889  
C   -0.9663858    0.0000850    3.4240247  
N   -1.2632773    0.0000084    2.1528658  
C   -1.8985362    0.0000517    4.5177257  
C   -1.3925775   -0.0004564    5.7720543  
O   -2.1456383   -0.0005410    6.8851312  
C    0.0786232   -0.0009323    6.0245000  
O    0.4683759   -0.0012588    7.1921102  
C    1.0143166   -0.0008442    4.8859032  
H    2.1107198   -0.0000632    2.0421868  
H   -2.9622183    0.0003270    4.3293377  
H   -1.5042274   -0.0009692    7.6184419  
H    2.0724152   -0.0013148    5.1109744  
