62

C    8.4069227   -3.2278858   -4.4303711  
C    7.2328227   -2.5218320   -4.3060950  
C    7.5304606   -1.1613652   -4.6145464  
C    8.9135967   -1.0973809   -4.9223908  
N    9.4158068   -2.3690707   -4.7990702  
C    9.5557061    0.0936327   -5.2744845  
C    8.7874918    1.2409023   -5.3168736  
O    9.3638059    2.4310623   -5.6550967  
C    7.4060449    1.1973814   -5.0126921  
O    6.7789718    2.4232103   -5.0991009  
C    6.7719812    0.0228168   -4.6650012  
H    6.2793784   -2.9361678   -4.0263408  
H   10.3693878   -2.6351714   -4.9659610  
H   10.6095615    0.1490847   -5.5100984  
H    8.6611910    3.0933412   -5.6237272  
H    5.8498761    2.3057742   -4.8786614  
H    8.6048148   -4.2758899   -4.2837900  
C    4.4498803   -2.0927816   -1.5965443  
C    3.2085346   -1.6305559   -1.8956810  
C    3.3524545   -0.7335191   -3.0179321  
C    4.7897030   -0.7108882   -3.3504909  
N    5.3998262   -1.5552207   -2.4517466  
C    5.3348522    0.0196505   -4.3558915  
C    4.4468030    0.8384415   -5.1642761  
O    4.8411384    1.5320446   -6.0925625  
C    2.9210858    0.8299298   -4.8297316  
O    2.1637303    1.5155489   -5.5032295  
C    2.4521483    0.0014840   -3.7217481  
H    2.2961914   -1.8884110   -1.3879859  
H    4.7506785   -2.7807341   -0.8231548  
H    6.3833793   -1.7523012   -2.4229400  
C    0.0000000    0.0000000    0.0000000  
C    1.0662923   -0.0000101   -0.8334270  
C    0.4961873    0.0000065   -2.1718887  
C   -0.9663854   -0.0000848   -1.9540250  
N   -1.2632773   -0.0000083   -0.6828660  
C   -1.8985359   -0.0000514   -3.0477261  
C   -1.3925770    0.0004566   -4.3020547  
O   -2.1456378    0.0005414   -5.4151314  
C    0.0786240    0.0009326   -4.5545000  
O    0.4683767    0.0012591   -5.7221100  
C    1.0143171    0.0008444   -3.4159031  
H    2.1107200    0.0000633   -0.5721865  
H   -2.9622181   -0.0003268   -2.8593381  
H   -1.5042265    0.0009697   -6.1484419  
C    3.3041272   -0.0001177    3.0120429  
C    2.5845372    0.0004780    1.8395852  
C    1.2040006    0.0000008    2.1983588  
C    1.1422373   -0.0006037    3.6154372  
N    2.4348639   -0.0026109    4.0777464  
C   -0.0655181   -0.0008797    4.3197917  
C   -1.2321768   -0.0002324    3.5801400  
O   -2.4392816   -0.0001146    4.2172520  
C   -1.1911209    0.0000007    2.1655264  
O   -2.4371527    0.0002320    1.5732860  
C    0.0000000    0.0000000    1.4700000  
H    3.0031534    0.0000661    0.8477417  
H    2.7054629    0.0071099    5.0445261  
H   -0.1193549   -0.0014844    5.3997470  
H   -3.1132988    0.0000648    3.5251786  
H   -2.3200282    0.0004071    0.6183591  
H    4.3686625   -0.0004071    3.1724291  
