62

C    8.8767183    0.0032714   -4.0131856  
C    9.6540129    0.0040147   -2.8781612  
C   11.0148906    0.0049393   -3.3054910  
C   11.0057460    0.0049986   -4.7238852  
N    9.6916288    0.0020212   -5.1210071  
C   12.1767853    0.0061165   -5.4877275  
C   13.3789551    0.0075012   -4.8073136  
O   14.5527038    0.0089835   -5.5039646  
C   13.4086578    0.0070904   -3.3924163  
O   14.6827341    0.0081939   -2.8631974  
C   12.2537909    0.0057145   -2.6382226  
H    9.2854964    0.0027988   -1.8666337  
H    9.3730364    0.0119122   -6.0730479  
H   12.1765734    0.0060239   -6.5690235  
H   15.2604715    0.0094754   -4.8464461  
H   14.6134875    0.0078535   -1.9036098  
H   12.3079617    0.0052495   -1.5558439  
C    5.5868526   -0.0000801   -1.0681557  
C    6.8043821    0.0011457   -1.6695671  
C    6.5701481    0.0006875   -3.0943372  
C    5.1058548   -0.0008880   -3.2749812  
N    4.5679461   -0.0016854   -2.0086701  
C    4.4796776   -0.0013316   -4.4789774  
C    5.3028527   -0.0004068   -5.6768576  
O    4.8337325   -0.0007721   -6.8074447  
C    6.8558133    0.0010129   -5.5091795  
O    7.5591489    0.0014936   -6.5104681  
C    7.4139952    0.0016562   -4.1592592  
H    7.7577676    0.0020630   -1.1719040  
H    3.4041775   -0.0023631   -4.5894723  
H    5.3482113   -0.0001626   -0.0169941  
C    3.1301149   -0.0010311   -1.7028252  
C    2.5367768   -0.0002767   -0.4864665  
C    1.1089904    0.0001028   -0.7656183  
C    1.0177872   -0.0004148   -2.2415132  
N    2.1993578   -0.0011611   -2.7963820  
C   -0.2459209   -0.0002877   -2.9257118  
C   -1.3675319   -0.0000605   -2.1698524  
O   -2.6129313    0.0000867   -2.6748490  
C   -1.3083584    0.0000910   -0.6783232  
O   -2.3693261    0.0004206   -0.0541692  
C    0.0000000    0.0000000    0.0000000  
H    3.0096017   -0.0001007    0.4807525  
H   -0.2829630   -0.0004687   -4.0053125  
H   -3.1967441    0.0002094   -1.8949034  
C    0.8676693    0.7151171    2.2619005  
C    0.5875920    0.4624972    3.5848544  
C   -0.5048400   -0.4542819    3.6114698  
C   -0.8517165   -0.7276451    2.2635546  
N    0.0000000    0.0000000    1.4700000  
C   -1.8902865   -1.5946756    1.9108239  
C   -2.5912627   -2.1969500    2.9375057  
O   -3.6148162   -3.0527051    2.6493466  
C   -2.2603868   -1.9365747    4.2886322  
O   -3.0513550   -2.6123276    5.1947621  
C   -1.2361111   -1.0811317    4.6373480  
H    1.1060808    0.8876438    4.4271209  
H   -2.1597133   -1.8070987    0.8854031  
H   -3.9636755   -3.3565188    3.4974381  
H   -2.7621927   -2.3810384    6.0827341  
H   -1.0058879   -0.9010589    5.6809233  
H    1.6167816    1.3499334    1.8205408  
