66

C    9.9570628    0.7116801   -1.4933185  
C   11.2234066    0.4614993   -1.0176593  
C   11.0865371   -0.4482590    0.0723896  
C    9.7018564   -0.7200516    0.2163208  
N    9.0443945    0.0017442   -0.7487541  
C    9.1979244   -1.5805912    1.1962762  
C   10.1084305   -2.1778703    2.0462263  
O    9.6705902   -3.0271991    3.0208802  
C   11.4938953   -1.9189611    1.9186780  
O   12.2717520   -2.5891998    2.8401235  
C   11.9917236   -1.0699193    0.9523334  
H   12.1337195    0.8837290   -1.4075884  
H    8.1437072   -1.7917839    1.3112796  
H   10.4570987   -3.3283632    3.4941343  
H   13.1930039   -2.3593343    2.6850067  
H   13.0580361   -0.8908166    0.8790064  
H    9.6325335    1.3414762   -2.3038718  
C    6.5582216    0.0029728   -4.4647472  
C    7.6103885    0.0023858   -3.5785132  
C    7.0499442    0.0016137   -2.2668344  
C    5.6394785    0.0014820   -2.4168798  
N    5.3749058    0.0042714   -3.7639548  
C    4.7630507    0.0004755   -1.3275395  
C    5.3206371   -0.0007212   -0.0637066  
O    4.5107990   -0.0020884    1.0350079  
C    6.7255800   -0.0002356    0.1064481  
O    7.1255747   -0.0011496    1.4268069  
C    7.5907998    0.0010304   -0.9677582  
H    8.6535288    0.0036053   -3.8446898  
H    4.4592357   -0.0057081   -4.1755736  
H    5.0947317   -0.0024567    1.8046096  
H    8.0872936   -0.0007699    1.4532568  
H    6.5582215    0.0040132   -5.5412967  
C    3.3003548    0.0005276   -1.4738982  
C    2.5232817    0.0003497   -2.6090743  
C    1.1623204   -0.0001319   -2.1820101  
C    1.1711886    0.0000583   -0.7636140  
N    2.4852302   -0.0014919   -0.3662356  
C    0.0000000    0.0000000    0.0000000  
C   -1.2020379    0.0000520   -0.6806479  
O   -2.3759249    0.0003495    0.0157742  
C   -1.2314652   -0.0005112   -2.0955511  
O   -2.5054384   -0.0008036   -2.6250184  
C   -0.0764510   -0.0007271   -2.8495195  
H    2.8919962   -0.0005619   -3.6205297  
H    2.8036267    0.0088181    0.5858667  
H   -3.0835636    0.0000348   -0.6418823  
H   -2.4360038   -0.0011526   -3.5845925  
H   -0.1304090   -0.0013420   -3.9319089  
C    0.8676693    0.7151171    2.2619005  
C    0.5875920    0.4624972    3.5848544  
C   -0.5048400   -0.4542819    3.6114698  
C   -0.8517165   -0.7276451    2.2635546  
N    0.0000000    0.0000000    1.4700000  
C   -1.8902865   -1.5946756    1.9108239  
C   -2.5912627   -2.1969500    2.9375057  
O   -3.6148162   -3.0527051    2.6493466  
C   -2.2603868   -1.9365747    4.2886322  
O   -3.0513550   -2.6123276    5.1947621  
C   -1.2361111   -1.0811317    4.6373480  
H    1.1060808    0.8876438    4.4271209  
H   -2.1597133   -1.8070987    0.8854031  
H   -3.9636755   -3.3565188    3.4974381  
H   -2.7621927   -2.3810384    6.0827341  
H   -1.0058879   -0.9010589    5.6809233  
H    1.6167816    1.3499334    1.8205408  
