60

C    7.3223704   -5.5061147   -7.2714949  
C    6.6454441   -4.5428464   -6.5599108  
C    6.7887288   -3.3180074   -7.2767359  
C    7.5694909   -3.5980330   -8.4273545  
N    7.8782847   -4.9352092   -8.3923775  
C    7.9104104   -2.6198698   -9.3663745  
C    7.4546015   -1.3356907   -9.1398820  
O    7.7580777   -0.3421499  -10.0252035  
C    6.6746811   -1.0365212   -7.9974998  
O    6.2974633    0.2878485   -7.9132683  
C    6.3382017   -2.0009474   -7.0705740  
H    6.1146998   -4.7030264   -5.6370644  
H    8.4150335   -5.4251954   -9.0850495  
H    8.5052782   -2.8268243  -10.2452974  
H    7.3486663    0.4630965   -9.6828221  
H    5.7745481    0.4049227   -7.1142336  
H    7.4538314   -6.5549390   -7.0674262  
C    5.7035978   -2.1123453   -4.6323633  
C    5.5262381   -1.6495157   -5.8966447  
C    4.3945376   -0.7534731   -5.8620423  
C    3.9237596   -0.7320391   -4.4639367  
N    4.7591257   -1.5766814   -3.7699387  
C    2.8699641   -0.0020530   -4.0185824  
C    2.1513544    0.8170175   -4.9804865  
O    1.1888859    1.5100765   -4.6777909  
C    2.6323972    0.8093817   -6.4665363  
O    2.0350150    1.4947732   -7.2854586  
C    3.7812680   -0.0180953   -6.8260217  
H    4.1081467   -0.0176483   -7.8569791  
H    6.4446785   -2.7998489   -4.2581604  
H    4.6940932   -1.7721469   -2.7877926  
C    3.2573670   -0.0002921   -1.5109382  
C    2.5379468   -0.0001711   -0.3591962  
C    1.1435043    0.0000330   -0.7338498  
C    1.1092608   -0.0000085   -2.2088474  
N    2.4227562    0.0001906   -2.6182610  
C   -0.0265533   -0.0002525   -2.9515663  
C   -1.3003033   -0.0002641   -2.2514979  
O   -2.3786785   -0.0004132   -2.8306425  
C   -1.2877724    0.0000310   -0.6895608  
O   -2.3539956    0.0003306   -0.0892035  
C    0.0000000    0.0000000    0.0000000  
H    2.9384091   -0.0000370    0.6389240  
H   -0.0296290   -0.0004088   -4.0327231  
H    4.3270394   -0.0004767   -1.6439445  
C    0.0000000    0.0000000    1.4700000  
C    1.0541688    0.0001722    2.3260392  
C    0.5103138    0.0000454    3.6635956  
C   -0.9576371   -0.0002459    3.5155732  
N   -1.2018458    0.0001392    2.1615969  
C   -1.8348311   -0.0008317    4.5510609  
C   -1.2972847   -0.0009736    5.9014604  
O   -2.0050672   -0.0014265    6.9001319  
C    0.2542623   -0.0004184    6.0817573  
O    0.7184670   -0.0002256    7.2139121  
C    1.0974552   -0.0000873    4.8889129  
H    2.0940752    0.0005483    2.0517982  
H   -2.9081052   -0.0011668    4.4207061  
H    2.1707277    0.0000911    5.0223670  
H   -2.1128194   -0.0014912    1.7406791  
