62

C   -8.0477622   -0.6911209   -2.7818669  
C   -8.3940559    0.1256829   -1.7304968  
C   -9.8101161    0.0374445   -1.5835709  
C  -10.2772273   -0.8558985   -2.5814043  
N   -9.1816228   -1.2783881   -3.2925792  
C  -11.6285596   -1.1812114   -2.7326146  
C  -12.5246336   -0.5942377   -1.8604387  
O  -13.8559248   -0.8772100   -1.9634019  
C  -12.0779630    0.2999127   -0.8585419  
O  -13.0920290    0.8015858   -0.0690240  
C  -10.7450230    0.6215086   -0.7089616  
H   -7.7102885    0.7137239   -1.1425660  
H   -9.2017972   -1.9271653   -4.0585177  
H  -11.9909941   -1.8612351   -3.4911728  
H  -14.2973537   -0.3697935   -1.2699072  
H  -12.7054935    1.3961442    0.5811253  
H  -10.4327572    1.3098262    0.0676899  
C   -3.9834218    0.7255593   -1.7966834  
C   -5.3237519    0.5085135   -1.8186564  
C   -5.5825292   -0.4184187   -2.8950700  
C   -4.2737049   -0.7258308   -3.5027434  
N   -3.3460097   -0.0004262   -2.7913647  
C   -4.0918501   -1.5661180   -4.5527674  
C   -5.2633971   -2.2105920   -5.1225626  
O   -5.2038133   -2.9838537   -6.0695664  
C   -6.6595196   -1.8994069   -4.4950181  
O   -7.6531000   -2.4358562   -4.9664841  
C   -6.7288178   -0.9765509   -3.3648030  
H   -6.0484725    0.9477752   -1.1565069  
H   -3.1230856   -1.7780505   -4.9834537  
H   -3.4077091    1.3549554   -1.1376649  
C    0.0000000    0.0000000    0.0000000  
C    1.0662919   -0.0000103   -0.8334272  
C    0.4961868    0.0000066   -2.1718889  
C   -0.9663860   -0.0000849   -1.9540248  
N   -1.2632775   -0.0000084   -0.6828659  
C   -1.8985364   -0.0000515   -3.0477258  
C   -1.3925778    0.0004567   -4.3020543  
O   -2.1456385    0.0005412   -5.4151314  
C    0.0786229    0.0009326   -4.5544999  
O    0.4683756    0.0012594   -5.7221104  
C    1.0143162    0.0008443   -3.4159034  
H    2.1107195    0.0000631   -0.5721869  
H   -1.5042277    0.0009692   -6.1484420  
H    2.0724151    0.0013151   -3.6409746  
C    1.1188642   -0.0008217    2.2703808  
C    0.0000000    0.0000000    1.4700000  
C   -1.1323862   -0.0008904    2.3373528  
C   -0.6382662   -0.0019682    3.6669281  
N    0.7324016   -0.0038477    3.5902241  
C   -1.4770914   -0.0027325    4.7854808  
C   -2.8395474   -0.0020958    4.5576857  
O   -3.7039201   -0.0024443    5.6140350  
C   -3.3517868   -0.0013946    3.2384331  
O   -4.7300496   -0.0012389    3.1773122  
C   -2.5248543   -0.0009135    2.1344818  
H    1.3576314    0.0056174    4.3757045  
H   -1.1067570   -0.0036993    5.8013813  
H   -4.5940033   -0.0021850    5.2385129  
H   -4.9934601   -0.0007286    2.2519915  
H   -2.9462578   -0.0005617    1.1360343  
H    2.1619896   -0.0009344    2.0042067  
