62

C    0.9392053   -0.6141334   -9.5980212  
C    1.7651440   -0.5418800  -10.6957797  
C    1.7457777    0.8124615  -11.1429751  
C    0.8835414    1.5261688  -10.2717139  
N    0.4092627    0.6297421   -9.3464591  
C    0.6267607    2.8931024  -10.4143525  
C    1.2520267    3.5516107  -11.4553074  
O    1.0367755    4.8867138  -11.6401848  
C    2.1154827    2.8567821  -12.3353501  
O    2.6614254    3.6521912  -13.3215615  
C    2.3690511    1.5082123  -12.1953941  
H    2.3132126   -1.3643976  -11.1224861  
H   -0.0294734    3.4428071   -9.7537598  
H    1.5605494    5.1436734  -12.4101839  
H    3.2312628    3.1062685  -13.8718881  
H    3.0349949    1.0029154  -12.8850838  
H    0.6850738   -1.4548345   -8.9754489  
C    0.2810593   -0.7180972   -5.1362604  
C   -0.8287665    0.0000939   -4.7555305  
C   -1.2664169    0.7286056   -5.9011017  
C   -0.3775039    0.4121683   -6.9601705  
N    0.5511371   -0.4671876   -6.4611948  
C   -0.5073505    0.9519912   -8.2433382  
C   -1.5537890    1.8269641   -8.4614345  
O   -1.7271373    2.3828731   -9.6959103  
C   -2.4509438    2.1553354   -7.4173547  
O   -3.4401352    3.0408658   -7.7924276  
C   -2.3232913    1.6233741   -6.1511600  
H    1.3035289   -0.8760574   -6.9853261  
H   -2.5031989    2.9545631   -9.6313837  
H   -4.0023410    3.2095630   -7.0301484  
H   -3.0257716    1.8937043   -5.3714667  
H    0.9022076   -1.3883664   -4.5671622  
C    1.0672569   -0.0000698   -0.8321910  
C    0.0000000    0.0000000    0.0000000  
C   -1.1601223   -0.0000736   -0.8778472  
C   -0.5938729   -0.0000768   -2.2438435  
N    0.7113367   -0.0001553   -2.2234123  
C   -1.4286985   -0.0001877   -3.4135239  
C   -2.7683113   -0.0006798   -3.2270524  
O   -3.6653902   -0.0008302   -4.2276970  
C   -3.3702024   -0.0010610   -1.8610774  
O   -4.5974910   -0.0013779   -1.7662963  
C   -2.4926825   -0.0008943   -0.6770658  
H   -4.5324245   -0.0012258   -3.7833954  
H   -2.9677772   -0.0012974    0.2947961  
H    2.1134391   -0.0000547   -0.5705119  
C    2.3971438    2.0127888    3.1728260  
C    1.9431056    1.6308205    1.9564670  
C    0.8496017    0.7127664    2.2356185  
C    0.7794028    0.6545384    3.7115134  
N    1.6840587    1.4146091    4.2663826  
C   -0.1885723   -0.1578550    4.3957118  
C   -1.0476298   -0.8789867    3.6398520  
O   -2.0015663   -1.6796266    4.1448486  
C   -1.0022026   -0.8410666    2.1483229  
O   -1.8147390   -1.5232959    1.5241687  
C    0.0000000    0.0000000    1.4700000  
H    2.3054237    1.9346118    0.9892483  
H   -0.2170646   -0.1815267    5.4753125  
H   -2.4487139   -2.0549881    3.3649027  
H    3.2048689    2.6911772    3.3971983  
