64

C    3.8758974   -0.7315584   -4.5547714  
C    2.8310667   -0.0116218   -4.0232750  
C    2.2267735    0.7021014   -5.1003212  
C    2.9517242    0.3752583   -6.2748624  
N    3.9472877   -0.4957927   -5.9077927  
C    2.6324614    0.8994269   -7.5310901  
C    1.5616736    1.7691523   -7.6029843  
O    1.2064703    2.3098784   -8.8048412  
C    0.8263187    2.1077291   -6.4421938  
O   -0.2109555    2.9862818   -6.6778851  
C    1.1408834    1.5912148   -5.2025216  
H    3.1811278    0.6543984   -8.4300500  
H    0.4459253    2.8803801   -8.6334797  
H   -0.6557426    3.1626647   -5.8432249  
H    0.5594794    1.8690837   -4.3311797  
H    4.5767371   -1.3934618   -4.0755361  
C    3.3041274    0.0001178   -1.5420430  
C    2.5845373   -0.0004780   -0.3695856  
C    1.2040007   -0.0000008   -0.7283592  
C    1.1422377    0.0006036   -2.1454377  
N    2.4348641    0.0026109   -2.6077466  
C   -0.0655175    0.0008797   -2.8497922  
C   -1.2321767    0.0002322   -2.1101405  
O   -2.4392811    0.0001146   -2.7472530  
C   -1.1911208   -0.0000008   -0.6955268  
O   -2.4371526   -0.0002322   -0.1032864  
C    0.0000000    0.0000000    0.0000000  
H    3.0031533   -0.0000660    0.6222579  
H   -0.1193545    0.0014844   -3.9297475  
H   -3.1132988   -0.0000647   -2.0551789  
H   -2.3200282   -0.0004072    0.8516406  
H    4.3686628    0.0004071   -1.7024290  
C    5.3656443   -2.4037889   -6.7762989  
C    4.9266842   -1.1008305   -6.8219112  
C    5.6012770   -0.4720634   -7.9101098  
C    6.4459996   -1.4490466   -8.4965177  
N    6.2800213   -2.6098651   -7.7826766  
C    7.2629616   -1.1791926   -9.5985800  
C    7.2262894    0.1001443  -10.1183202  
O    8.0036670    0.4177222  -11.1943516  
C    6.3902604    1.0887501   -9.5468904  
O    6.4663331    2.3133723  -10.1776505  
C    5.5842461    0.8233128   -8.4595045  
H    6.7433050   -3.4798612   -7.9736120  
H    7.9091138   -1.9193689  -10.0500521  
H    7.8287816    1.3468561  -11.3928213  
H    5.8717984    2.9233345   -9.7303494  
H    4.9545085    1.6009181   -8.0432829  
H    5.0999048   -3.2020398   -6.1046312  
C    0.8681109    0.7263879    2.2709268  
C    0.6127770    0.5096195    3.5869401  
C   -0.4920590   -0.4175482    3.6542670  
C   -0.8620974   -0.7254003    2.2596025  
N    0.0000000    0.0000000    1.4700000  
C   -1.8641242   -1.5660088    1.8976294  
C   -2.6293522   -2.2103885    2.9520183  
O   -3.5512764   -2.9839180    2.7283916  
C   -2.2549728   -1.8987399    4.4361073  
O   -2.8923672   -2.4351063    5.3323774  
C   -1.1543735   -0.9755647    4.7012123  
H    1.1382914    0.9492124    4.4159191  
H   -2.1192137   -1.7782617    0.8686553  
H   -0.9013378   -0.7652422    5.7314848  
H    1.6172880    1.3558399    1.8188057  
