60

C    3.4017220   -3.6294105   -3.7591937  
C    3.1114194   -3.0309912   -4.9633892  
C    4.0799827   -3.4939701   -5.9026099  
C    4.9426093   -4.3803184   -5.2082126  
N    4.5037832   -4.4383917   -3.9087219  
C    6.0181179   -5.0268489   -5.8247097  
C    6.2264246   -4.7742457   -7.1667147  
O    7.2620346   -5.3793963   -7.8181104  
C    5.3768381   -3.8927599   -7.8766452  
O    5.7151729   -3.7448520   -9.2059292  
C    4.3157952   -3.2543847   -7.2690339  
H    4.9144083   -4.9961333   -3.1818850  
H    6.6793298   -5.7034086   -5.3010036  
H    7.2277406   -5.0696472   -8.7325185  
H    5.0925258   -3.1341790   -9.6121222  
H    3.6823172   -2.5844463   -7.8385649  
H    2.9107157   -3.5420686   -2.8051271  
C    2.0060352   -2.0933379   -5.2079955  
C    1.0681397   -1.6309432   -4.3416127  
C    0.2140990   -0.7346498   -5.0846523  
C    0.7350358   -0.7126392   -6.4648451  
N    1.8215793   -1.5565845   -6.4731483  
C    0.2009223    0.0171140   -7.4767175  
C   -0.9646767    0.8356540   -7.1870522  
O   -1.5183206    1.5285631   -8.0306489  
C   -1.5330623    0.8277890   -5.7321703  
O   -2.5138754    1.5132041   -5.4762935  
C   -0.8712826    0.0001710   -4.7267111  
H    0.9842759   -1.8882191   -3.3007528  
H    0.5983667    0.0189976   -8.4821755  
H    2.3914337   -1.7539288   -7.2752512  
C    1.0965514    0.0001359   -0.8010305  
C    0.0000000    0.0000000    0.0000000  
C   -1.1546563    0.0001470   -0.8669513  
C   -0.6372014    0.0003519   -2.2486282  
N    0.7342871    0.0007337   -2.1395014  
C   -1.4147739    0.0001352   -3.3608717  
C   -2.8576049   -0.0001048   -3.1854462  
O   -3.6427779   -0.0002494   -4.1244907  
C   -3.4275840   -0.0000725   -1.7311666  
O   -4.6406831    0.0000333   -1.5710060  
C   -2.4891867   -0.0001091   -0.6116744  
H   -2.8919122   -0.0002918    0.3920866  
H    2.1388272    0.0000663   -0.5261648  
H    1.3735872   -0.0006099   -2.9130262  
C    0.0000000    0.0000000    1.4700000  
C    1.0541688    0.0001722    2.3260392  
C    0.5103138    0.0000454    3.6635956  
C   -0.9576371   -0.0002459    3.5155732  
N   -1.2018458    0.0001392    2.1615969  
C   -1.8348311   -0.0008317    4.5510609  
C   -1.2972847   -0.0009736    5.9014604  
O   -2.0050672   -0.0014265    6.9001319  
C    0.2542623   -0.0004184    6.0817573  
O    0.7184670   -0.0002256    7.2139121  
C    1.0974552   -0.0000873    4.8889129  
H    2.0940752    0.0005483    2.0517982  
H   -2.9081052   -0.0011668    4.4207061  
H    2.1707277    0.0000911    5.0223670  
H   -2.1128194   -0.0014912    1.7406791  
