64

C   -0.4070060   -0.9847388   -9.5455886  
C   -0.5573018   -0.5702414  -10.8486895  
C   -0.8138438    0.8324257  -10.8124801  
C   -0.8079565    1.2215390   -9.4484844  
N   -0.5599405    0.0937518   -8.7060546  
C   -1.0272527    2.5396708   -9.0371119  
C   -1.2563701    3.4822196  -10.0206189  
O   -1.4760177    4.7841317   -9.6745080  
C   -1.2665005    3.1134000  -11.3868866  
O   -1.5091258    4.1660668  -12.2450067  
C   -1.0505038    1.8131702  -11.7934254  
H   -0.4913635   -1.2014368  -11.7183092  
H   -1.0241849    2.8426540   -7.9991370  
H   -1.6119673    5.2669465  -10.5001427  
H   -1.4990649    3.8316659  -13.1470474  
H   -1.0643787    1.5606402  -12.8472352  
H   -0.2042361   -1.9646196   -9.1485043  
C    2.1798963   -2.1221801   -5.9542194  
C    1.5460052   -1.6229249   -7.0683974  
C    0.5185213   -0.7482579   -6.6059748  
C    0.5740703   -0.7535762   -5.1886487  
N    1.5926022   -1.5994966   -4.8258419  
C   -0.2963293   -0.0005341   -4.3948471  
C   -1.2397987    0.7721841   -5.0436536  
O   -2.1143391    1.5272219   -4.3169419  
C   -1.3112054    0.7904347   -6.4569424  
O   -2.3047783    1.6091615   -6.9527679  
C   -0.4530328    0.0475827   -7.2406751  
H    1.7929871   -1.8608393   -8.0888834  
H    1.8756081   -1.7961378   -3.8828567  
H   -2.6787920    1.9818131   -4.9556939  
H   -2.2847551    1.5640942   -7.9135858  
H    3.0035534   -2.8108677   -5.8751160  
C    3.1301146   -0.0010313   -1.7028256  
C    2.5367765   -0.0002766   -0.4864669  
C    1.1089901    0.0001027   -0.7656184  
C    1.0177865   -0.0004150   -2.2415133  
N    2.1993571   -0.0011612   -2.7963824  
C   -0.2459219   -0.0002879   -2.9257116  
C   -1.3675326   -0.0000606   -2.1698520  
O   -2.6129318    0.0000865   -2.6748483  
C   -1.3083588    0.0000910   -0.6783229  
O   -2.3693264    0.0004206   -0.0541685  
C    0.0000000    0.0000000    0.0000000  
H    3.0096016   -0.0001007    0.4807518  
H   -3.1967444    0.0002093   -1.8949026  
H    4.1849275   -0.0015114   -1.9271979  
C    0.8576279    0.7185626    2.2703808  
C    0.0000000    0.0000000    1.4700000  
C   -0.8668858   -0.7285659    2.3373528  
C   -0.4876752   -0.4117774    3.6669281  
N    0.5635254    0.4678311    3.5902241  
C   -1.1297612   -0.9515493    4.7854808  
C   -2.1738724   -1.8268314    4.5576857  
O   -2.8357962   -2.3827064    5.6140350  
C   -2.5667212   -2.1555554    3.2384331  
O   -3.6226318   -3.0413663    3.1773122  
C   -1.9335634   -1.6236449    2.1344818  
H    1.0363952    0.8769718    4.3757045  
H   -0.8454472   -0.7142436    5.8013813  
H   -3.5178062   -2.9546422    5.2385129  
H   -3.8247440   -3.2102924    2.2519915  
H   -2.2566033   -1.8942483    1.1360343  
H    1.6567807    1.3889844    2.0042067  
