62

C   -0.0144412    0.7318929   -7.3629753  
C    1.1276118    0.0132744   -7.6308744  
C    0.8899113   -0.7123947   -8.8356578  
C   -0.4252759   -0.3938627   -9.2608014  
N   -0.9467425    0.4839508   -8.3431227  
C   -0.9967127   -0.9306505  -10.4184315  
C   -0.2263339   -1.8046850  -11.1605619  
O   -0.7350733   -2.3576543  -12.3000452  
C    1.0878725   -2.1351131  -10.7525227  
O    1.7264102   -3.0193642  -11.5973378  
C    1.6521538   -1.6061466   -9.6104600  
H   -1.8622342    0.8937285   -8.3871380  
H   -1.9985951   -0.6920038  -10.7477963  
H   -0.0435876   -2.9291746  -12.6584830  
H    2.6073158   -3.1896011  -11.2500207  
H    2.6611001   -1.8779991   -9.3230530  
H   -0.2382633    1.4005839   -6.5495168  
C    1.7334697    0.0049246   -3.2500361  
C    3.1090789    0.0036163   -3.2628665  
C    3.5126979    0.0054092   -4.6309632  
C    2.3299047    0.0080880   -5.4138543  
N    1.2677979    0.0057680   -4.5440599  
C    2.3483171    0.0106849   -6.8118679  
C    3.5832498    0.0108823   -7.4308328  
O    3.6589634    0.0137197   -8.7936511  
C    4.7745974    0.0078595   -6.6669617  
O    5.9240667    0.0080595   -7.4298934  
C    4.7571861    0.0050237   -5.2877534  
H    3.7435741    0.0005105   -2.3931542  
H    0.2997751    0.0173991   -4.8101012  
H    4.5993496    0.0130379   -9.0148720  
H    6.6822228    0.0059427   -6.8376106  
H    5.6860773    0.0025625   -4.7295117  
C    1.1319247    0.0015655   -0.8009267  
C    0.7969916    0.0034943   -2.1169401  
C   -0.6453337    0.0035710   -2.1842668  
C   -1.1266832    0.0015433   -0.7896026  
N    0.0000000    0.0000000    0.0000000  
C   -2.4346130    0.0013964   -0.4276294  
C   -3.4350109    0.0031408   -1.4820183  
O   -4.6384610    0.0030973   -1.2583915  
C   -2.9478956    0.0050505   -2.9661075  
O   -3.7809378    0.0062218   -3.8623775  
C   -1.5113821    0.0053090   -3.2312122  
H   -2.7664565    0.0000232    0.6013446  
H   -1.1823527    0.0068407   -4.2614846  
H    2.1104317    0.0009391   -0.3488056  
C    0.0000000    0.0000000    1.4700000  
C    1.0541688    0.0001722    2.3260392  
C    0.5103138    0.0000454    3.6635956  
C   -0.9576371   -0.0002459    3.5155732  
N   -1.2018458    0.0001392    2.1615969  
C   -1.8348311   -0.0008317    4.5510609  
C   -1.2972847   -0.0009736    5.9014604  
O   -2.0050672   -0.0014265    6.9001319  
C    0.2542623   -0.0004184    6.0817573  
O    0.7184670   -0.0002256    7.2139121  
C    1.0974552   -0.0000873    4.8889129  
H    2.0940752    0.0005483    2.0517982  
H   -2.9081052   -0.0011668    4.4207061  
H    2.1707277    0.0000911    5.0223670  
H   -2.1128194   -0.0014912    1.7406791  
