62

C    5.0857191   -1.0412910   -7.2171605  
C    5.8638742   -0.6558788   -8.2841191  
C    5.6762203    0.7482842   -8.4505876  
C    4.7652961    1.1682413   -7.4477011  
N    4.4251619    0.0565994   -6.7175106  
C    4.3498150    2.4962581   -7.3115548  
C    4.8634946    3.4171595   -8.2038848  
O    4.4915901    4.7274800   -8.1158022  
C    5.7732035    3.0174568   -9.2115980  
O    6.1941639    4.0513494  -10.0222785  
C    6.1833152    1.7074605   -9.3466681  
H    6.4889236   -1.3069211   -8.8710171  
H    3.6557047    2.8227166   -6.5494284  
H    4.9586764    5.1919743   -8.8224416  
H    6.8054399    3.6965146  -10.6749938  
H    6.8811013    1.4311264  -10.1284690  
H    4.9485202   -2.0127224   -6.7739268  
C    4.5310506   -2.0790479   -2.8543219  
C    4.8140929   -1.6029425   -4.0941952  
C    3.7433602   -0.7037141   -4.4544101  
C    2.8066152   -0.6948785   -3.3145761  
N    3.3414836   -1.5491125   -2.3780458  
C    1.6628945    0.0339172   -3.2649299  
C    1.3323529    0.8649109   -4.4106728  
O    0.3247031    1.5579297   -4.4623209  
C    2.3099254    0.8707265   -5.6289185  
O    2.0419947    1.5662240   -6.5993602  
C    3.5120773    0.0432791   -5.5655567  
H    5.6746401   -1.8532646   -4.6886789  
H    5.0912897   -2.7726313   -2.2485460  
H    2.9319190   -1.7542583   -1.4851743  
C    1.1243410    0.0100105   -0.7919003  
C    0.7474072    0.0234665   -2.1148542  
C   -0.6787384    0.0234379   -2.1414698  
C   -1.1201748    0.0098411   -0.7935547  
N    0.0000000    0.0000000    0.0000000  
C   -2.4730818    0.0063307   -0.4408240  
C   -3.3971962    0.0170429   -1.4675058  
O   -4.7313520    0.0145490   -1.1793468  
C   -2.9763654    0.0303020   -2.8186325  
O   -4.0166484    0.0394464   -3.7247625  
C   -1.6418567    0.0334992   -3.1673480  
H   -2.8160166   -0.0041569    0.5845966  
H   -5.1938823    0.0230023   -2.0274386  
H   -3.6464680    0.0481700   -4.6127343  
H   -1.3497475    0.0435647   -4.2109234  
H    2.1062466    0.0053162   -0.3505405  
C    0.8681109    0.7263879    2.2709268  
C    0.6127770    0.5096195    3.5869401  
C   -0.4920590   -0.4175482    3.6542670  
C   -0.8620974   -0.7254003    2.2596025  
N    0.0000000    0.0000000    1.4700000  
C   -1.8641242   -1.5660088    1.8976294  
C   -2.6293522   -2.2103885    2.9520183  
O   -3.5512764   -2.9839180    2.7283916  
C   -2.2549728   -1.8987399    4.4361073  
O   -2.8923672   -2.4351063    5.3323774  
C   -1.1543735   -0.9755647    4.7012123  
H    1.1382914    0.9492124    4.4159191  
H   -2.1192137   -1.7782617    0.8686553  
H   -0.9013378   -0.7652422    5.7314848  
H    1.6172880    1.3558399    1.8188057  
