62

C    1.5899290   -2.3639191   -7.2791675  
C    2.5638028   -2.5741970   -8.2277556  
C    2.7346650   -1.3438282   -8.9288964  
C    1.8306456   -0.4110735   -8.3591221  
N    1.1497551   -1.0636062   -7.3615220  
C    1.7262453    0.9100210   -8.8047673  
C    2.5496583    1.2966315   -9.8443343  
O    2.4890786    2.5752268  -10.3181866  
C    3.4578826    0.3804031  -10.4261173  
O    4.2083843    0.9170864  -11.4518176  
C    3.5612214   -0.9231183   -9.9871651  
H    3.0859583   -3.5007464   -8.3946529  
H    1.0391739    1.6257630   -8.3748262  
H    3.1368554    2.6326394  -11.0325776  
H    4.7952877    0.2334630  -11.7891703  
H    4.2661027   -1.6021760  -10.4524621  
H    1.1734585   -3.0389975   -6.5513080  
C   -0.0202922   -0.6967077   -5.1400949  
C   -1.0641734    0.0073898   -4.6315339  
C   -1.6428385    0.7514419   -5.7253201  
C   -0.8448103    0.4207134   -6.9213807  
N    0.1229396   -0.4613332   -6.4990735  
C   -1.0739330    0.9222826   -8.1613949  
C   -2.1802191    1.8499246   -8.3291657  
O   -2.4675344    2.3561924   -9.4059405  
C   -3.0385139    2.2145169   -7.0760867  
O   -3.9723191    2.9946743   -7.2050172  
C   -2.6944049    1.6092961   -5.7918944  
H   -0.4766435    0.6666081   -9.0255628  
H   -3.2937360    1.8667795   -4.9292078  
H    0.6565473   -1.3675748   -4.6363937  
C    1.1319248    0.0015675   -0.8009270  
C    0.7969916    0.0034959   -2.1169404  
C   -0.6453336    0.0035703   -2.1842672  
C   -1.1266831    0.0015415   -0.7896027  
N    0.0000000    0.0000000    0.0000000  
C   -2.4346129    0.0013924   -0.4276297  
C   -3.4350110    0.0031352   -1.4820184  
O   -4.6384610    0.0030897   -1.2583919  
C   -2.9478958    0.0050460   -2.9661075  
O   -3.7809377    0.0062160   -3.8623775  
C   -1.5113821    0.0053068   -3.2312125  
H    1.4821240    0.0045436   -2.9459192  
H   -2.7664565    0.0000185    0.6013447  
H    2.1104318    0.0009428   -0.3488058  
C    2.5285572    2.1210227    2.9438989  
C    1.9331703    1.6216660    4.0790748  
C    0.8903039    0.7472258    3.6520102  
C    0.8972198    0.7527806    2.2336141  
N    1.9028376    1.5986179    1.8362361  
C    0.0000000    0.0000000    1.4700000  
C   -0.9207814   -0.7726952    2.1506477  
O   -1.8198395   -1.5274828    1.4542253  
C   -0.9436862   -0.7911793    3.5655508  
O   -1.9197945   -1.6098497    4.0950179  
C   -0.0590329   -0.0485852    4.3195194  
H    2.2150357    1.8593692    5.0905303  
H    2.1533708    1.7953814    0.8841339  
H   -2.3621246   -1.9821033    2.1118817  
H   -1.8668290   -1.5649508    5.0545920  
H   -0.1007624   -0.0827977    5.4019087  
H    3.3491200    2.8096064    2.8367138  
