62

C    7.3785306   -0.5376611   -5.2381325  
C    6.8134651    0.6934902   -5.4777870  
C    7.8862776    1.6142088   -5.6673911  
C    9.0929022    0.8811410   -5.5310250  
N    8.7485488   -0.4216721   -5.2688849  
C   10.3543672    1.4707726   -5.6568261  
C   10.3985574    2.8250443   -5.9254784  
O   11.6040458    3.4512379   -6.0584835  
C    9.2056160    3.5736052   -6.0646316  
O    9.4163363    4.9108118   -6.3307469  
C    7.9608041    2.9926299   -5.9403847  
H    9.3958598   -1.1772335   -5.1343650  
H   11.2777417    0.9176140   -5.5538733  
H   11.4106326    4.3800158   -6.2407657  
H    8.5607828    5.3436533   -6.4099961  
H    7.0645760    3.5916282   -6.0519867  
H    6.9127083   -1.4890604   -5.0462775  
C    3.4164201   -0.7248687   -3.0395957  
C    4.6504342   -0.5074357   -3.5630528  
C    4.4860928    0.4201596   -4.6573078  
C    3.0448514    0.7275388   -4.7289411  
N    2.4521483    0.0014840   -3.7217481  
C    2.4820253    1.5683510   -5.6333557  
C    3.3539025    2.2134654   -6.6009263  
O    2.9430853    2.9872304   -7.4558052  
C    4.8835167    1.9023274   -6.5436540  
O    5.6273698    2.4393134   -7.3533383  
C    5.3721317    0.9788703   -5.5227059  
H    5.5707633   -0.9468576   -3.2217088  
H    1.4224208    1.7802485   -5.6686830  
H    3.1302859   -1.3547876   -2.2130249  
C    0.0000000    0.0000000    0.0000000  
C    1.0662923   -0.0000101   -0.8334270  
C    0.4961873    0.0000065   -2.1718887  
C   -0.9663854   -0.0000848   -1.9540250  
N   -1.2632773   -0.0000083   -0.6828660  
C   -1.8985359   -0.0000514   -3.0477261  
C   -1.3925770    0.0004566   -4.3020547  
O   -2.1456378    0.0005414   -5.4151314  
C    0.0786240    0.0009326   -4.5545000  
O    0.4683767    0.0012591   -5.7221100  
C    1.0143171    0.0008444   -3.4159031  
H    2.1107200    0.0000633   -0.5721865  
H   -2.9622181   -0.0003268   -2.8593381  
H   -1.5042265    0.0009697   -6.1484419  
C    3.3003543   -0.0005276    2.9438989  
C    2.5232812   -0.0003497    4.0790748  
C    1.1623199    0.0001319    3.6520102  
C    1.1711883   -0.0000583    2.2336141  
N    2.4852299    0.0014920    1.8362361  
C    0.0000000    0.0000000    1.4700000  
C   -1.2020384   -0.0000520    2.1506477  
O   -2.3759250   -0.0003494    1.4542253  
C   -1.2314658    0.0005113    3.5655508  
O   -2.5054393    0.0008037    4.0950179  
C   -0.0764518    0.0007272    4.3195194  
H    2.8919952    0.0005619    5.0905303  
H    2.8036267   -0.0088181    0.8841339  
H   -3.0835639   -0.0000348    2.1118817  
H   -2.4360050    0.0011527    5.0545920  
H   -0.1304098    0.0013421    5.4019087  
H    4.3715549   -0.0004895    2.8367138  
