60

C    5.1465751   -2.4190093   -4.7041069  
C    4.7662197   -1.1161853   -4.9287104  
C    5.8368379   -0.4845949   -5.6283314  
C    6.8517114   -1.4597960   -5.8042303  
N    6.4010746   -2.6223172   -5.2296970  
C    8.0577202   -1.1870102   -6.4568572  
C    8.2424610    0.0934810   -6.9409965  
O    9.4015207    0.4139110   -7.5866889  
C    7.2417828    1.0803433   -6.7749718  
O    7.5757216    2.3064312   -7.3121284  
C    6.0518949    0.8120135   -6.1310060  
H    6.9028910   -3.4916312   -5.2083644  
H    8.8352477   -1.9258174   -6.5940334  
H    9.3256472    1.3433978   -7.8388015  
H    6.8469205    2.9150614   -7.1571396  
H    5.3040978    1.5883371   -6.0187620  
H    4.6228533   -3.2189215   -4.2093196  
C    2.8494835   -0.7287725   -3.3362167  
C    3.4912467   -0.5137431   -4.5134921  
C    2.6833698    0.4134337   -5.2701383  
C    1.5099393    0.7231864   -4.4311483  
N    1.6707636   -0.0012343   -3.2725974  
C    0.5077399    1.5643692   -4.7913044  
C    0.5901938    2.2074060   -6.0921659  
O   -0.2621883    2.9813176   -6.5078653  
C    1.8239356    1.8937367   -6.9973164  
O    1.9040948    2.4289607   -8.0947548  
C    2.8403293    0.9701078   -6.4996160  
H   -0.3442082    1.7780229   -4.1608711  
H    3.6915232    0.7583833   -7.1323605  
H    3.1383514   -1.3576862   -2.5098316  
C    1.0965514    0.0001358   -0.8010306  
C    0.0000000    0.0000000    0.0000000  
C   -1.1546565    0.0001470   -0.8669508  
C   -0.6372019    0.0003520   -2.2486278  
N    0.7342867    0.0007338   -2.1395012  
C   -1.4147744    0.0001354   -3.3608712  
C   -2.8576052   -0.0001047   -3.1854454  
O   -3.6427785   -0.0002490   -4.1244896  
C   -3.4275841   -0.0000727   -1.7311660  
O   -4.6406832    0.0000333   -1.5710049  
C   -2.4891868   -0.0001090   -0.6116739  
H   -1.0150456    0.0001617   -4.3654239  
H   -2.8919122   -0.0002919    0.3920871  
H    2.1388270    0.0000663   -0.5261650  
C    0.0000000    0.0000000    1.4700000  
C    1.0541688    0.0001722    2.3260392  
C    0.5103138    0.0000454    3.6635956  
C   -0.9576371   -0.0002459    3.5155732  
N   -1.2018458    0.0001392    2.1615969  
C   -1.8348311   -0.0008317    4.5510609  
C   -1.2972847   -0.0009736    5.9014604  
O   -2.0050672   -0.0014265    6.9001319  
C    0.2542623   -0.0004184    6.0817573  
O    0.7184670   -0.0002256    7.2139121  
C    1.0974552   -0.0000873    4.8889129  
H    2.0940752    0.0005483    2.0517982  
H   -2.9081052   -0.0011668    4.4207061  
H    2.1707277    0.0000911    5.0223670  
H   -2.1128194   -0.0014912    1.7406791  
