64

C    8.3562011    0.7140888   -3.8290107  
C    9.6121554    0.4658266   -4.3324100  
C   10.2476688   -0.4437387   -3.4360773  
C    9.3230266   -0.7173961   -2.3958495  
N    8.1857344    0.0031518   -2.6641678  
C    9.6132592   -1.5782891   -1.3331089  
C   10.8595057   -2.1740109   -1.3203991  
O   11.1949347   -3.0236031   -0.3061538  
C   11.7957979   -1.9132300   -2.3490724  
O   12.9924577   -2.5820695   -2.1941472  
C   11.5102544   -1.0638385   -3.3976551  
H   10.0204993    0.8891788   -5.2340884  
H    8.9129514   -1.7908997   -0.5371387  
H   12.0951449   -3.3235135   -0.4876451  
H   13.5675319   -2.3509841   -2.9300096  
H   12.2476474   -0.8832866   -4.1710444  
H    7.5690239    1.3431519   -4.2079450  
C    5.6692779    0.0013337   -2.3388887  
C    4.7630507    0.0004755   -1.3275395  
C    5.5107321   -0.0007787   -0.0923042  
C    6.9370632   -0.0005500   -0.4696228  
N    6.9650294    0.0003506   -1.8451615  
C    7.9663623   -0.0010976    0.4148250  
C    7.6481548   -0.0021966    1.8330204  
O    8.5043582   -0.0028173    2.7077865  
C    6.1443522   -0.0027088    2.2553735  
O    5.8642064   -0.0039399    3.4464980  
C    5.1238530   -0.0017578    1.2101785  
H    9.0057222   -0.0007868    0.1170995  
H    4.0849824   -0.0019147    1.5109647  
H    5.4995508    0.0023847   -3.4033514  
C    3.3003548    0.0005276   -1.4738982  
C    2.5232817    0.0003497   -2.6090743  
C    1.1623204   -0.0001319   -2.1820101  
C    1.1711886    0.0000583   -0.7636140  
N    2.4852302   -0.0014919   -0.3662356  
C    0.0000000    0.0000000    0.0000000  
C   -1.2020379    0.0000520   -0.6806479  
O   -2.3759249    0.0003495    0.0157742  
C   -1.2314652   -0.0005112   -2.0955511  
O   -2.5054384   -0.0008036   -2.6250184  
C   -0.0764510   -0.0007271   -2.8495195  
H    2.8919962   -0.0005619   -3.6205297  
H    2.8036267    0.0088181    0.5858667  
H   -3.0835636    0.0000348   -0.6418823  
H   -2.4360038   -0.0011526   -3.5845925  
H   -0.1304090   -0.0013420   -3.9319089  
C    2.5285572    2.1210227    2.9438989  
C    1.9331703    1.6216660    4.0790748  
C    0.8903039    0.7472258    3.6520102  
C    0.8972198    0.7527806    2.2336141  
N    1.9028376    1.5986179    1.8362361  
C    0.0000000    0.0000000    1.4700000  
C   -0.9207814   -0.7726952    2.1506477  
O   -1.8198395   -1.5274828    1.4542253  
C   -0.9436862   -0.7911793    3.5655508  
O   -1.9197945   -1.6098497    4.0950179  
C   -0.0590329   -0.0485852    4.3195194  
H    2.2150357    1.8593692    5.0905303  
H    2.1533708    1.7953814    0.8841339  
H   -2.3621246   -1.9821033    2.1118817  
H   -1.8668290   -1.5649508    5.0545920  
H   -0.1007624   -0.0827977    5.4019087  
H    3.3491200    2.8096064    2.8367138  
