60

C   -1.6802559    2.1235786   -6.3111912  
C   -0.3959234    1.6602911   -6.1429032  
C   -0.1285433    0.7717013   -7.2261924  
C   -1.2964494    0.7322900   -8.0301624  
N   -2.2197727    1.5628674   -7.4451554  
C   -1.3912708   -0.0447600   -9.1886053  
C   -0.2868743   -0.7954694   -9.5420477  
O   -0.3252094   -1.5718372  -10.6640094  
C    0.8873718   -0.7696673   -8.7525561  
O    1.9002537   -1.5716917   -9.2364677  
C    0.9815271   -0.0035290   -7.6094495  
H    0.2663375    1.9288119   -5.3377326  
H   -3.1420766    1.7449930   -7.7975264  
H   -2.2785899   -0.0792604   -9.8055957  
H    0.5356904   -2.0058452  -10.7252713  
H    2.6560360   -1.4967219   -8.6458954  
H   -2.2546483    2.8085155   -5.7112794  
C    1.6707638   -0.0012342   -3.2725973  
C    3.0286798   -0.0026502   -3.2608754  
C    3.4615711   -0.0042638   -4.6383506  
C    2.2357545   -0.0036380   -5.4594256  
N    1.1849517   -0.0021877   -4.5713373  
C    2.2192683   -0.0043573   -6.8164193  
C    3.4939012   -0.0060731   -7.5148769  
O    3.5845456   -0.0068917   -8.7355668  
C    4.8047152   -0.0070137   -6.6654233  
O    5.8837806   -0.0087651   -7.2423779  
C    4.6947478   -0.0058259   -5.2087976  
H    3.6555464   -0.0027555   -2.3870037  
H    5.6070596   -0.0062825   -4.6279272  
H    0.2146122    0.0000906   -4.8272343  
C    1.0965515    0.0001359   -0.8010305  
C    0.0000000    0.0000000    0.0000000  
C   -1.1546564    0.0001470   -0.8669509  
C   -0.6372018    0.0003521   -2.2486279  
N    0.7342868    0.0007339   -2.1395011  
C   -1.4147743    0.0001355   -3.3608714  
C   -2.8576049   -0.0001046   -3.1854455  
O   -3.6427782   -0.0002491   -4.1244898  
C   -3.4275842   -0.0000725   -1.7311664  
O   -4.6406831    0.0000334   -1.5710053  
C   -2.4891868   -0.0001091   -0.6116742  
H   -1.0150456    0.0001619   -4.3654242  
H   -2.8919123   -0.0002920    0.3920869  
H    2.1388270    0.0000663   -0.5261648  
C    0.8175213    0.6860729    2.3021913  
C    0.0000000    0.0000000    1.4700000  
C   -0.8887526   -0.7456559    2.3478473  
C   -0.4549825   -0.3816753    3.7138435  
N    0.5448156    0.4573574    3.6934124  
C   -1.0945674   -0.9182058    4.8835240  
C   -2.1210866   -1.7789155    4.6970523  
O   -2.8083856   -2.3554314    5.6976972  
C   -2.5824069   -2.1655116    3.3310774  
O   -3.5227682   -2.9541547    3.2362962  
C   -1.9100805   -1.6015804    2.1470656  
H   -0.7567140   -0.6349833    5.8697035  
H   -3.4728268   -2.9124471    5.2533954  
H   -2.2742832   -1.9066565    1.1752040  
H    1.6189533    1.3585343    2.0405121  
