64

C   -6.6559387    0.0007721   -5.7773183  
C   -5.6227364   -0.0013054   -6.6855892  
C   -6.2107763   -0.0020306   -7.9851312  
C   -7.6177543   -0.0000246   -7.8053132  
N   -7.8538016   -0.0003059   -6.4529454  
C   -8.5170068    0.0002130   -8.8758893  
C   -7.9862542   -0.0013005  -10.1512237  
O   -8.8191301   -0.0007944  -11.2325802  
C   -6.5852228   -0.0036869  -10.3510280  
O   -6.2132214   -0.0053937  -11.6795456  
C   -5.6974956   -0.0041960   -9.2953454  
H   -4.5742057   -0.0032945   -6.4415141  
H   -8.7605560    0.0114041   -6.0220851  
H   -9.5904138    0.0015934   -8.7455188  
H   -8.2515920   -0.0023587  -12.0143492  
H   -5.2522768   -0.0069275  -11.7263125  
H   -4.6295098   -0.0062239   -9.4794121  
C   -3.2941076    0.0012874   -2.9038237  
C   -4.0470173    0.0024418   -1.7524797  
C   -5.4166997    0.0030193   -2.1506880  
C   -5.4378081    0.0018785   -3.5689540  
N   -4.1324577    0.0027950   -3.9940143  
C   -6.6248729    0.0017547   -4.3076470  
C   -7.8122586    0.0024944   -3.6017487  
O   -9.0006005    0.0020605   -4.2732075  
C   -7.8117779    0.0040117   -2.1865403  
O   -9.0742767    0.0050151   -1.6302687  
C   -6.6410879    0.0044080   -1.4571491  
H   -3.6570098    0.0039261   -0.7490430  
H   -3.8342559   -0.0082407   -4.9526251  
H   -9.6941823    0.0030129   -3.6007435  
H   -8.9845798    0.0059859   -0.6723767  
H   -6.6721590    0.0057615   -0.3738619  
C    0.0000000    0.0000000    0.0000000  
C    1.0541688   -0.0001722   -0.8560393  
C    0.5103135   -0.0000454   -2.1935957  
C   -0.9576374    0.0002459   -2.0455730  
N   -1.2018460   -0.0001391   -0.6915968  
C   -1.8348314    0.0008317   -3.0810607  
C   -1.2972851    0.0009737   -4.4314604  
O   -2.0050676    0.0014265   -5.4301315  
C    0.2542619    0.0004184   -4.6117571  
O    0.7184666    0.0002257   -5.7439121  
C    1.0974550    0.0000874   -3.4189130  
H    2.0940752   -0.0005483   -0.5817984  
H    2.1707276   -0.0000911   -3.5523671  
H   -2.1128194    0.0014912   -0.2706789  
C    3.3003543   -0.0005276    2.9438989  
C    2.5232812   -0.0003497    4.0790748  
C    1.1623199    0.0001319    3.6520102  
C    1.1711883   -0.0000583    2.2336141  
N    2.4852299    0.0014920    1.8362361  
C    0.0000000    0.0000000    1.4700000  
C   -1.2020384   -0.0000520    2.1506477  
O   -2.3759250   -0.0003494    1.4542253  
C   -1.2314658    0.0005113    3.5655508  
O   -2.5054393    0.0008037    4.0950179  
C   -0.0764518    0.0007272    4.3195194  
H    2.8919952    0.0005619    5.0905303  
H    2.8036267   -0.0088181    0.8841339  
H   -3.0835639   -0.0000348    2.1118817  
H   -2.4360050    0.0011527    5.0545920  
H   -0.1304098    0.0013421    5.4019087  
H    4.3715549   -0.0004895    2.8367138  
