62

C   10.0164778    0.7211271   -0.6961052  
C    9.0554111    0.0026475   -0.0233452  
C    9.7236594   -0.7250901    1.0054608  
C   11.1029330   -0.4079051    0.9109895  
N   11.2463297    0.4711320   -0.1336867  
C   12.0635933   -0.9468524    1.7720677  
C   11.6238341   -1.8217017    2.7464537  
O   12.5195304   -2.3767694    3.6140030  
C   10.2518244   -2.1508105    2.8564196  
O    9.9726402   -3.0361089    3.8770308  
C    9.3035900   -1.6197139    2.0071169  
H   12.1128703    0.8803794   -0.4330255  
H   13.1163371   -0.7092409    1.7052004  
H   12.0105165   -2.9485233    4.2032966  
H    9.0255730   -3.2053423    3.8823002  
H    8.2598710   -1.8905951    2.1155131  
H    9.9221781    1.3910221   -1.5335465  
C    7.0021977    0.0016964   -3.8667569  
C    5.7010038    0.0007394   -3.4946381  
C    5.7268785    0.0007367   -2.0400488  
C    7.1642508    0.0016711   -1.6928540  
N    7.9166770    0.0023173   -2.7595516  
C    7.6175797    0.0019951   -0.3291902  
C    6.6776994    0.0018010    0.6434145  
O    6.9577654    0.0020529    1.9577977  
C    5.2193467    0.0012353    0.3250321  
O    4.4197297    0.0009616    1.2608917  
C    4.7795901    0.0008674   -1.0815733  
H    4.8310653    0.0002032   -4.1288957  
H    6.0879580    0.0018433    2.3966452  
H    7.4070859    0.0020142   -4.8662762  
C    3.3321168    0.0004716   -1.3379341  
C    2.6974177    0.0000118   -2.5332316  
C    1.2800432   -0.0002116   -2.2052842  
C    1.2395033    0.0000644   -0.7271298  
N    2.4394059    0.0005460   -0.2131041  
C    0.0000000    0.0000000    0.0000000  
C   -1.1468704    0.0000635   -0.7169542  
O   -2.3742206    0.0000074   -0.1695488  
C   -1.1388774    0.0001608   -2.2096352  
O   -2.2206238    0.0000906   -2.7970409  
C    0.1454514    0.0001818   -2.9324241  
H    3.1367978   -0.0000649   -3.5160956  
H   -2.9844350    0.0001027   -0.9290164  
H    0.1083567    0.0003684   -4.0135594  
C    2.5285572    2.1210227    2.9438989  
C    1.9331703    1.6216660    4.0790748  
C    0.8903039    0.7472258    3.6520102  
C    0.8972198    0.7527806    2.2336141  
N    1.9028376    1.5986179    1.8362361  
C    0.0000000    0.0000000    1.4700000  
C   -0.9207814   -0.7726952    2.1506477  
O   -1.8198395   -1.5274828    1.4542253  
C   -0.9436862   -0.7911793    3.5655508  
O   -1.9197945   -1.6098497    4.0950179  
C   -0.0590329   -0.0485852    4.3195194  
H    2.2150357    1.8593692    5.0905303  
H    2.1533708    1.7953814    0.8841339  
H   -2.3621246   -1.9821033    2.1118817  
H   -1.8668290   -1.5649508    5.0545920  
H   -0.1007624   -0.0827977    5.4019087  
H    3.3491200    2.8096064    2.8367138  
