60

C   -2.9481722   -0.0008213   -8.5573797  
C   -4.0286913   -0.0002569   -7.7059422  
C   -5.2001051   -0.0007131   -8.5198151  
C   -4.7682135   -0.0018475   -9.8708865  
N   -3.3954634    0.0000669   -9.8578716  
C   -5.6580398   -0.0028611  -10.9493098  
C   -7.0084585   -0.0030341  -10.6585377  
O   -7.9209179   -0.0043598  -11.6736386  
C   -7.4589282   -0.0015389   -9.3169377  
O   -8.8328704   -0.0015031   -9.1919267  
C   -6.5816603   -0.0002652   -8.2525481  
H   -3.9787356    0.0015078   -6.6305380  
H   -2.8073555   -0.0107272  -10.6715018  
H   -5.3352462   -0.0035841  -11.9813012  
H   -8.7926167   -0.0039446  -11.2572184  
H   -9.0530596   -0.0004792   -8.2553802  
H   -6.9562784    0.0010475   -7.2356227  
C   -0.8712823    0.0001712   -4.7267111  
C    0.4275910    0.0003833   -5.1068518  
C    0.3927412    0.0003245   -6.5612538  
C   -1.0467464   -0.0000493   -6.8995721  
N   -1.7925765   -0.0000599   -5.8282521  
C   -1.5084814   -0.0001661   -8.2604129  
C   -0.5746209    0.0004685   -9.2387989  
O   -0.8627925    0.0004375  -10.5514293  
C    0.8856685    0.0012293   -8.9294212  
O    1.6794953    0.0016581   -9.8701972  
C    1.3340966    0.0012908   -7.5255564  
H    1.3014265    0.0006484   -4.4779743  
H    0.0042906    0.0010051  -10.9956357  
H    2.4004346    0.0019674   -7.3434770  
C    1.0965515    0.0001358   -0.8010304  
C    0.0000000    0.0000000    0.0000000  
C   -1.1546562    0.0001470   -0.8669514  
C   -0.6372012    0.0003520   -2.2486282  
N    0.7342873    0.0007338   -2.1395014  
C   -1.4147737    0.0001354   -3.3608717  
C   -2.8576047   -0.0001047   -3.1854463  
O   -3.6427778   -0.0002491   -4.1244908  
C   -3.4275837   -0.0000725   -1.7311667  
O   -4.6406828    0.0000333   -1.5710061  
C   -2.4891866   -0.0001090   -0.6116745  
H   -2.8919121   -0.0002919    0.3920865  
H    2.1388272    0.0000662   -0.5261647  
H    1.3735873   -0.0006098   -2.9130261  
C    2.5128556    2.1077716    2.9199648  
C    1.9592212    1.6432552    4.0696553  
C    0.8915788    0.7479214    3.6910360  
C    0.8684491    0.7287414    2.2159470  
N    1.8754542    1.5738793    1.8102719  
C    0.0000000    0.0000000    1.4700000  
C   -0.9772830   -0.8200135    2.1664417  
O   -1.8021297   -1.5120829    1.5842315  
C   -0.9711318   -0.8147624    3.7284083  
O   -1.7894187   -1.5009653    4.3257297  
C    0.0140216    0.0115358    4.4216297  
H    2.2638494    1.8988021    5.0689105  
H    0.0117648    0.0094386    5.5031631  
H    3.3327358    2.7953732    2.7900019  
H    2.1123206    1.7707734    0.8551938  
