62

C    4.9538845    0.0945550   -7.8642006  
C    6.0398501   -0.5535316   -8.4056155  
C    6.1253807   -0.1526502   -9.7718440  
C    5.0561536    0.7487482  -10.0088272  
N    4.3634497    0.8751245   -8.8303514  
C    4.8320858    1.3459219  -11.2530008  
C    5.7034460    1.0275703  -12.2765057  
O    5.5309240    1.5825397  -13.5115192  
C    6.7759738    0.1300662  -12.0597422  
O    7.5549500   -0.0855462  -13.1778005  
C    6.9974645   -0.4596423  -10.8326686  
H    6.6897066   -1.2326354   -7.8807371  
H    3.5582768    1.4582265   -8.6901053  
H    4.0189108    2.0336249  -11.4401202  
H    6.2369332    1.2314362  -14.0696789  
H    8.2556168   -0.7027149  -12.9459115  
H    7.8272354   -1.1433712  -10.6967530  
C    6.2078071   -2.1204373   -4.1884496  
C    6.1274185   -1.6213459   -5.4678684  
C    5.0008409   -0.7471987   -5.5037681  
C    4.4282842   -0.7526502   -4.2060484  
N    5.1843804   -1.5981473   -3.4326985  
C    3.2973506   -0.0000934   -3.8752374  
C    2.7343299    0.7722679   -4.8725555  
O    1.6291395    1.5268265   -4.6038363  
C    3.2908610    0.7906441   -6.1736139  
O    2.6156196    1.6089740   -7.0555033  
C    4.4063830    0.0482704   -6.5007499  
H    6.7975949   -1.8590340   -6.2761773  
H    5.0245806   -1.7947656   -2.4612116  
H    1.4023567    1.9812320   -5.4256330  
H    3.0556028    1.5640234   -7.9099020  
H    6.9133535   -2.8087585   -3.7555800  
C    3.3321174    0.0004714   -1.3379332  
C    2.6974186    0.0000115   -2.5332308  
C    1.2800441   -0.0002119   -2.2052838  
C    1.2395035    0.0000643   -0.7271293  
N    2.4394063    0.0005458   -0.2131034  
C    0.0000000    0.0000000    0.0000000  
C   -1.1468701    0.0000634   -0.7169542  
O   -2.3742201    0.0000072   -0.1695492  
C   -1.1388767    0.0001606   -2.2096354  
O   -2.2206229    0.0000903   -2.7970413  
C    0.1454526    0.0001815   -2.9324239  
H   -2.9844344    0.0001023   -0.9290168  
H    0.1083580    0.0003680   -4.0135594  
H    4.3940040    0.0007617   -1.1498630  
C    2.5528530    2.1414826    2.8079335  
C    2.0663498    1.7338582    4.0032312  
C    0.9804344    0.8229586    3.6752840  
C    0.9495562    0.7966882    2.1971295  
N    1.8690446    1.5676019    1.6831036  
C    0.0000000    0.0000000    1.4700000  
C   -0.8785127   -0.7372425    2.1869543  
O   -1.8187535   -1.5261249    1.6395491  
C   -0.8723269   -0.7321790    3.6796354  
O   -1.7010379   -1.4274584    4.2670412  
C    0.1115397    0.0933559    4.4024240  
H    2.4028853    2.0163452    4.9860947  
H   -2.2861435   -1.9184361    2.3990168  
H    0.0832434    0.0693689    5.4835595  
H    3.3664920    2.8238276    2.6198634  
