64

C    7.6701185   -1.0955475   -4.3075020  
C    8.9694717   -0.7220865   -4.5618154  
C    8.9564817    0.6805749   -4.8206048  
C    7.6098835    1.1119762   -4.7088297  
N    6.8548572    0.0082878   -4.3983054  
C    7.2234095    2.4418892   -4.9005544  
C    8.2144137    3.3529564   -5.2104675  
O    7.8924358    4.6646248   -5.4076190  
C    9.5635673    2.9417610   -5.3267364  
O   10.4319710    3.9667729   -5.6406928  
C    9.9455195    1.6298860   -5.1379957  
H    9.8216641   -1.3799339   -4.5619914  
H    6.1987737    2.7770469   -4.8169329  
H    8.7192865    5.1212602   -5.6102729  
H   11.3212280    3.6044681   -5.7003770  
H   10.9866368    1.3446451   -5.2338512  
H    7.2601924   -2.0622326   -4.0699332  
C    4.3488999   -2.1006741   -1.4732764  
C    3.1285972   -1.6364581   -1.8466928  
C    3.3412600   -0.7405811   -2.9589043  
C    4.7959155   -0.7207998   -3.2046231  
N    5.3494459   -1.5655069   -2.2702982  
C    5.4017639    0.0079521   -4.1759997  
C    4.5653395    0.8276895   -5.0367899  
O    5.0159503    1.5198388   -5.9402171  
C    3.0222821    0.8221878   -4.7944081  
O    2.3079746    1.5086269   -5.5126189  
C    2.4861704   -0.0045255   -3.7159919  
H    2.1869565   -1.8922662   -1.3944886  
H    4.6014745   -2.7885460   -0.6827525  
H    6.3291323   -1.7643315   -2.1823793  
C    0.0000000    0.0000000    0.0000000  
C    1.0521669   -0.0011848   -0.8862341  
C    0.4917221   -0.0011931   -2.1979130  
C   -0.9187427    0.0003100   -2.0478683  
N   -1.1833170   -0.0009472   -0.7007915  
C   -1.7951698    0.0010259   -3.1372090  
C   -1.2375835    0.0005161   -4.4010425  
O   -2.0474208    0.0015256   -5.4997580  
C    0.1673584   -0.0013557   -4.5711962  
O    0.5673529   -0.0020659   -5.8915551  
C    1.0325773   -0.0023359   -3.4969890  
H    2.0953059   -0.0030542   -0.6200560  
H   -2.0989777    0.0102265   -0.2891825  
H   -2.8710930    0.0020274   -3.0295514  
H   -1.4634881    0.0006427   -6.2693593  
H    1.5290715   -0.0033076   -5.9180042  
C    1.1243417   -0.0099156    2.2619005  
C    0.7474090   -0.0234034    3.5848544  
C   -0.6787367   -0.0234952    3.6114698  
C   -1.1201739   -0.0099357    2.2635546  
N    0.0000000    0.0000000    1.4700000  
C   -2.4730812   -0.0065396    1.9108239  
C   -3.3971947   -0.0173298    2.9375057  
O   -4.7313508   -0.0149487    2.6493466  
C   -2.9763630   -0.0305536    4.2886322  
O   -4.0166453   -0.0397858    5.1947621  
C   -1.6418541   -0.0336380    4.6373480  
H    1.4178735   -0.0310004    4.4271209  
H   -2.8160170    0.0039190    0.8854031  
H   -5.1938803   -0.0234410    3.4974381  
H   -3.6464643   -0.0484781    6.0827341  
H   -1.3497443   -0.0436789    5.6809233  
H    2.1062470   -0.0051382    1.8205408  
