62

C    0.6936368   -0.7066095   -5.1527421  
C    0.3462077   -0.4553043   -6.4598790  
C   -0.7528345    0.4534777   -6.4312305  
C   -1.0341488    0.7235434   -5.0674660  
N   -0.1387074    0.0017015   -4.3179686  
C   -2.0601481    1.5827600   -4.6626691  
C   -2.8157357    2.1804672   -5.6526248  
O   -3.8298703    3.0285541   -5.3130773  
C   -2.5506561    1.9232735   -7.0187878  
O   -3.3906535    2.5937317   -7.8837922  
C   -1.5388174    1.0755377   -7.4188527  
H    0.8251970   -0.8761778   -7.3273052  
H   -2.2797242    1.7926343   -3.6249113  
H   -4.2227237    3.3302833   -6.1424686  
H   -3.1443862    2.3650595   -8.7852722  
H   -1.3595342    0.8977365   -8.4727603  
H    1.4683930   -1.3361781   -4.7498092  
C    3.3041276    0.0001179   -1.5420426  
C    2.5845373   -0.0004778   -0.3695850  
C    1.2040008   -0.0000007   -0.7283588  
C    1.1422377    0.0006038   -2.1454370  
N    2.4348643    0.0026110   -2.6077459  
C   -0.0655176    0.0008796   -2.8497919  
C   -1.2321760    0.0002323   -2.1101404  
O   -2.4392811    0.0001143   -2.7472523  
C   -1.1911205   -0.0000006   -0.6955268  
O   -2.4371526   -0.0002322   -0.1032865  
C    0.0000000    0.0000000    0.0000000  
H    3.0031533   -0.0000657    0.6222587  
H    2.7054636   -0.0071097   -3.5745259  
H   -3.1132988   -0.0000651   -2.0551790  
H   -2.3200280   -0.0004074    0.8516406  
C    4.7577225    0.0005133   -1.7610455  
C    5.7612601   -0.0009871   -0.8461768  
C    7.0028647    0.0003035   -1.5832328  
C    6.6377965    0.0027252   -3.0127466  
N    5.2625481    0.0023369   -3.0525128  
C    7.5310416    0.0048863   -4.0344177  
C    8.9464547    0.0045968   -3.7040555  
O    9.8285352    0.0063647   -4.5527212  
C    9.3558927    0.0017963   -2.1966873  
O   10.5445703    0.0012218   -1.9063342  
C    8.3019810   -0.0001022   -1.1851942  
H    5.6450064   -0.0029743    0.2229794  
H    7.2422436    0.0067731   -5.0762919  
H    8.5938431   -0.0018313   -0.1437829  
H    4.7106090    0.0052008   -3.8906074  
C    2.5128556    2.1077716    2.9199648  
C    1.9592212    1.6432552    4.0696553  
C    0.8915788    0.7479214    3.6910360  
C    0.8684491    0.7287414    2.2159470  
N    1.8754542    1.5738793    1.8102719  
C    0.0000000    0.0000000    1.4700000  
C   -0.9772830   -0.8200135    2.1664417  
O   -1.8021297   -1.5120829    1.5842315  
C   -0.9711318   -0.8147624    3.7284083  
O   -1.7894187   -1.5009653    4.3257297  
C    0.0140216    0.0115358    4.4216297  
H    2.2638494    1.8988021    5.0689105  
H    0.0117648    0.0094386    5.5031631  
H    3.3327358    2.7953732    2.7900019  
H    2.1123206    1.7707734    0.8551938  
