62

C    5.1145489   -1.0745179   -7.2135937  
C    4.4612582    0.0039979   -6.6636105  
C    4.8111502    1.1452224   -7.4444957  
C    5.6877955    0.6977793   -8.4658728  
N    5.8523986   -0.6544361   -8.2954715  
C    6.2336282    1.5571846   -9.4241420  
C    5.8879579    2.8925565   -9.3501682  
O    6.3921189    3.7752273  -10.2610618  
C    5.0150542    3.3582170   -8.3382318  
O    4.7676784    4.7141480   -8.3982200  
C    4.4764172    2.5110054   -7.3923827  
H    6.4132788   -1.2488417   -8.8786315  
H    6.9024653    1.2224318  -10.2050375  
H    6.0299513    4.6409684  -10.0317350  
H    4.1700509    4.9463118   -7.6809016  
H    3.8107693    2.8966849   -6.6290729  
H    5.1136974   -2.1099409   -6.9188783  
C    4.4925594   -2.1138020   -2.7420817  
C    4.8565035   -1.6946788   -3.9763669  
C    3.8030382   -0.7794116   -4.3874586  
C    2.8583249   -0.7634595   -3.2499852  
N    3.2572738   -1.5436999   -2.2824862  
C    1.6628945    0.0339172   -3.2649299  
C    1.4223703    0.7816763   -4.3659925  
O    0.3461535    1.5724674   -4.5158194  
C    2.3568206    0.7871866   -5.5300089  
O    2.0745623    1.4917543   -6.4990985  
C    3.5763791   -0.0392794   -5.4905725  
H    5.7317950   -1.9722543   -4.5384098  
H    0.4536192    1.9730612   -5.3973688  
H    5.0117291   -2.8025035   -2.0946821  
C    1.1243410    0.0100105   -0.7919003  
C    0.7474072    0.0234665   -2.1148542  
C   -0.6787384    0.0234379   -2.1414698  
C   -1.1201748    0.0098411   -0.7935547  
N    0.0000000    0.0000000    0.0000000  
C   -2.4730818    0.0063307   -0.4408240  
C   -3.3971962    0.0170429   -1.4675058  
O   -4.7313520    0.0145490   -1.1793468  
C   -2.9763654    0.0303020   -2.8186325  
O   -4.0166484    0.0394464   -3.7247625  
C   -1.6418567    0.0334992   -3.1673480  
H   -2.8160166   -0.0041569    0.5845966  
H   -5.1938823    0.0230023   -2.0274386  
H   -3.6464680    0.0481700   -4.6127343  
H   -1.3497475    0.0435647   -4.2109234  
H    2.1062466    0.0053162   -0.3505405  
C    0.0000000    0.0000000    1.4700000  
C    1.0541688    0.0001722    2.3260392  
C    0.5103138    0.0000454    3.6635956  
C   -0.9576371   -0.0002459    3.5155732  
N   -1.2018458    0.0001392    2.1615969  
C   -1.8348311   -0.0008317    4.5510609  
C   -1.2972847   -0.0009736    5.9014604  
O   -2.0050672   -0.0014265    6.9001319  
C    0.2542623   -0.0004184    6.0817573  
O    0.7184670   -0.0002256    7.2139121  
C    1.0974552   -0.0000873    4.8889129  
H    2.0940752    0.0005483    2.0517982  
H   -2.9081052   -0.0011668    4.4207061  
H    2.1707277    0.0000911    5.0223670  
H   -2.1128194   -0.0014912    1.7406791  
