62

C    9.1408954   -0.0023554    0.7141667  
C    9.7649386   -0.0041690    1.9401498  
C   11.1696403   -0.0042822    1.6923323  
C   11.3439339   -0.0021919    0.2846591  
N   10.0921788   -0.0030139   -0.2790138  
C   12.6038923   -0.0014031   -0.3213878  
C   13.7080166   -0.0024419    0.5087255  
O   14.9619755   -0.0013875   -0.0303429  
C   13.5545582   -0.0049034    1.9155878  
O   14.7495295   -0.0060950    2.6050703  
C   12.3118853   -0.0059561    2.5141575  
H    9.2687487   -0.0063794    2.8955476  
H    9.8993441    0.0086182   -1.2642349  
H   12.7434678    0.0000444   -1.3936373  
H   15.5788050   -0.0026883    0.7131529  
H   14.5568151   -0.0077182    3.5476529  
H   12.2256755   -0.0080280    3.5944549  
C    6.6801374   -0.0033359    1.2661377  
C    7.7093289   -0.0019929    0.3802267  
C    7.1273474   -0.0004470   -0.9411859  
C    5.6642446   -0.0009741   -0.7511363  
N    5.4589565   -0.0031397    0.6092836  
C    4.7577216    0.0005129   -1.7610467  
C    5.2563291    0.0025580   -3.1263019  
O    4.5202037    0.0039399   -4.1042686  
C    6.8020686    0.0028974   -3.3510097  
O    7.2336221    0.0043060   -4.4960075  
C    7.6791157    0.0014558   -2.1828322  
H    8.7481212    0.0019070   -2.3470034  
H    6.7110430   -0.0046693    2.3436031  
H    4.5604252   -0.0024244    1.0561485  
C    3.3041270    0.0001177   -1.5420435  
C    2.5845370   -0.0004780   -0.3695856  
C    1.2040004   -0.0000007   -0.7283590  
C    1.1422370    0.0006038   -2.1454373  
N    2.4348634    0.0026110   -2.6077469  
C   -0.0655187    0.0008799   -2.8497918  
C   -1.2321769    0.0002326   -2.1101398  
O   -2.4392822    0.0001149   -2.7472517  
C   -1.1911211   -0.0000007   -0.6955263  
O   -2.4371526   -0.0002319   -0.1032858  
C    0.0000000    0.0000000    0.0000000  
H    3.0031534   -0.0000661    0.6222578  
H    2.7054623   -0.0071098   -3.5745266  
H   -0.1193555    0.0014846   -3.9297472  
H   -3.1132992   -0.0000646   -2.0551783  
H   -2.3200279   -0.0004070    0.8516411  
C    0.0000000    0.0000000    1.4700000  
C    1.0541688    0.0001722    2.3260392  
C    0.5103138    0.0000454    3.6635956  
C   -0.9576371   -0.0002459    3.5155732  
N   -1.2018458    0.0001392    2.1615969  
C   -1.8348311   -0.0008317    4.5510609  
C   -1.2972847   -0.0009736    5.9014604  
O   -2.0050672   -0.0014265    6.9001319  
C    0.2542623   -0.0004184    6.0817573  
O    0.7184670   -0.0002256    7.2139121  
C    1.0974552   -0.0000873    4.8889129  
H    2.0940752    0.0005483    2.0517982  
H   -2.9081052   -0.0011668    4.4207061  
H    2.1707277    0.0000911    5.0223670  
H   -2.1128194   -0.0014912    1.7406791  
