64

C    4.9188921   -1.1103924   -6.8239961  
C    5.9395065   -1.9968481   -6.5690277  
C    6.5785870   -2.2657262   -7.8155761  
C    5.8988378   -1.5084128   -8.8036772  
N    4.8955482   -0.8199450   -8.1680355  
C    6.2607012   -1.5289821  -10.1540182  
C    7.3284057   -2.3283868  -10.5133755  
O    7.7241073   -2.3853811  -11.8184366  
C    8.0189862   -3.0916136   -9.5420878  
O    9.0591231   -3.8371131  -10.0575371  
C    7.6623777   -3.0720163   -8.2098073  
H    6.1916023   -2.4009326   -5.6035454  
H    4.2522294   -0.1900515   -8.6122837  
H    5.7465973   -0.9542262  -10.9120124  
H    8.4746203   -2.9928392  -11.8499148  
H    9.4721565   -4.3221550   -9.3366059  
H    8.2100163   -3.6674686   -7.4886930  
C    3.8706492   -0.7380877   -4.5561748  
C    2.8310662   -0.0116220   -4.0232752  
C    2.2320931    0.7087009   -5.0988988  
C    2.9547298    0.3789711   -6.2740583  
N    3.9438703   -0.5000829   -5.9087061  
C    2.6394088    0.9080278   -7.5292320  
C    1.5750126    1.7857026   -7.5994170  
O    1.2238682    2.3314681   -8.8001884  
C    0.8420582    2.1272704   -6.4379846  
O   -0.1887477    3.0138620   -6.6719459  
C    1.1527393    1.6059352   -5.1993504  
H    3.1863417    0.6608350   -8.4286544  
H    0.4675002    2.9071616   -8.6277090  
H   -0.6323006    3.1917836   -5.8369559  
H    0.5733112    1.8862638   -4.3274803  
H    4.5665931   -1.4060752   -4.0782484  
C    3.3041270    0.0001177   -1.5420434  
C    2.5845372   -0.0004781   -0.3695856  
C    1.2040006   -0.0000008   -0.7283592  
C    1.1422371    0.0006037   -2.1454375  
N    2.4348636    0.0026109   -2.6077467  
C   -0.0655183    0.0008798   -2.8497920  
C   -1.2321770    0.0002326   -2.1101400  
O   -2.4392818    0.0001147   -2.7472520  
C   -1.1911210   -0.0000007   -0.6955263  
O   -2.4371527   -0.0002320   -0.1032859  
C    0.0000000    0.0000000    0.0000000  
H    3.0031533   -0.0000660    0.6222577  
H   -0.1193553    0.0014844   -3.9297472  
H   -3.1132989   -0.0000648   -2.0551784  
H   -2.3200282   -0.0004069    0.8516410  
H    4.3686624    0.0004070   -1.7024294  
C    2.5528530    2.1414826    2.8079335  
C    2.0663498    1.7338582    4.0032312  
C    0.9804344    0.8229586    3.6752840  
C    0.9495562    0.7966882    2.1971295  
N    1.8690446    1.5676019    1.6831036  
C    0.0000000    0.0000000    1.4700000  
C   -0.8785127   -0.7372425    2.1869543  
O   -1.8187535   -1.5261249    1.6395491  
C   -0.8723269   -0.7321790    3.6796354  
O   -1.7010379   -1.4274584    4.2670412  
C    0.1115397    0.0933559    4.4024240  
H    2.4028853    2.0163452    4.9860947  
H   -2.2861435   -1.9184361    2.3990168  
H    0.0832434    0.0693689    5.4835595  
H    3.3664920    2.8238276    2.6198634  
