62

C   -7.3371757    3.0771900    0.5181373  
C   -8.6171200    2.9725415    1.0113505  
C   -9.0091850    1.6088270    0.8658589  
C   -7.9181514    0.9230527    0.2731645  
N   -6.9202186    1.8443968    0.0734841  
C   -7.9520630   -0.4441769   -0.0172189  
C   -9.1083199   -1.1317066    0.2967121  
O   -9.1949847   -2.4684565    0.0347927  
C  -10.2076747   -0.4650130    0.8881121  
O  -11.2862767   -1.2874178    1.1403269  
C  -10.1750212    0.8838299    1.1746131  
H   -9.1972967    3.7800259    1.4240944  
H   -7.1239523   -0.9726768   -0.4690178  
H  -10.0725905   -2.7475419    0.3266555  
H  -11.9846137   -0.7594103    1.5392460  
H  -11.0326991    1.3671930    1.6276340  
H   -6.6892190    3.9339603    0.4470394  
C   -4.3991028    2.0926370   -0.0704356  
C   -3.3610094    1.6305297   -0.8140045  
C   -3.9159994    0.7341915   -1.8006144  
C   -5.3729682    0.7118418   -1.5692442  
N   -5.6007886    1.5556535   -0.5067144  
C   -6.2559171   -0.0180489   -2.2968193  
C   -5.7365717   -0.8363895   -3.3799325  
O   -6.4507762   -1.5294000   -4.0926375  
C   -4.1968645   -0.8281647   -3.6426857  
O   -3.7479705   -1.5134097   -4.5516380  
C   -3.3460097   -0.0004262   -2.7913647  
H   -2.3247245    1.8880235   -0.6858468  
H   -7.3209339   -0.0201814   -2.1106904  
H   -4.3873341    2.7801298    0.7596881  
C    0.0000000    0.0000000    0.0000000  
C    1.0662919   -0.0000103   -0.8334272  
C    0.4961868    0.0000066   -2.1718889  
C   -0.9663860   -0.0000849   -1.9540248  
N   -1.2632775   -0.0000084   -0.6828659  
C   -1.8985364   -0.0000515   -3.0477258  
C   -1.3925778    0.0004567   -4.3020543  
O   -2.1456385    0.0005412   -5.4151314  
C    0.0786229    0.0009326   -4.5544999  
O    0.4683756    0.0012594   -5.7221104  
C    1.0143162    0.0008443   -3.4159034  
H    2.1107195    0.0000631   -0.5721869  
H   -1.5042277    0.0009692   -6.1484420  
H    2.0724151    0.0013151   -3.6409746  
C    1.1188642   -0.0008217    2.2703808  
C    0.0000000    0.0000000    1.4700000  
C   -1.1323862   -0.0008904    2.3373528  
C   -0.6382662   -0.0019682    3.6669281  
N    0.7324016   -0.0038477    3.5902241  
C   -1.4770914   -0.0027325    4.7854808  
C   -2.8395474   -0.0020958    4.5576857  
O   -3.7039201   -0.0024443    5.6140350  
C   -3.3517868   -0.0013946    3.2384331  
O   -4.7300496   -0.0012389    3.1773122  
C   -2.5248543   -0.0009135    2.1344818  
H    1.3576314    0.0056174    4.3757045  
H   -1.1067570   -0.0036993    5.8013813  
H   -4.5940033   -0.0021850    5.2385129  
H   -4.9934601   -0.0007286    2.2519915  
H   -2.9462578   -0.0005617    1.1360343  
H    2.1619896   -0.0009344    2.0042067  
