60

C    7.2044671   -0.0013309    2.2521554  
C    6.5001430   -0.0021007    3.4338466  
C    7.4588753   -0.0021136    4.4899865  
C    8.7426322   -0.0010408    3.8867500  
N    8.5519357   -0.0025389    2.5272465  
C    9.9272184   -0.0004490    4.6294111  
C    9.8137929   -0.0006423    6.0061144  
O   10.9385205    0.0002639    6.7794181  
C    8.5418339   -0.0020829    6.6265460  
O    8.5958212   -0.0025158    8.0051063  
C    7.3727908   -0.0029406    5.8945195  
H    5.4273260   -0.0036976    3.5235912  
H    9.2825464    0.0083173    1.8387188  
H   10.9087110    0.0002250    4.1756769  
H   10.6385055   -0.0003554    7.6977077  
H    7.6956802   -0.0034732    8.3447370  
H    6.4129487   -0.0042221    6.3976895  
C    6.7235408   -0.0015094    0.8630512  
C    5.4473216   -0.0011276    0.3990033  
C    5.5236519   -0.0015785   -1.0428735  
C    6.9592470   -0.0022883   -1.3832528  
N    7.6329841   -0.0018115   -0.1836830  
C    7.4493963   -0.0032606   -2.6487389  
C    6.4996345   -0.0034066   -3.7489602  
O    6.8417402   -0.0041912   -4.9242320  
C    4.9744852   -0.0024120   -3.4117301  
O    4.1654296   -0.0022186   -4.3297116  
C    4.5679461   -0.0016854   -2.0086701  
H    4.5543636   -0.0004090    0.9983692  
H    8.5062543   -0.0038991   -2.8766912  
H    8.6315332   -0.0036617   -0.0839633  
C    3.1301149   -0.0010311   -1.7028252  
C    2.5367768   -0.0002767   -0.4864665  
C    1.1089904    0.0001028   -0.7656183  
C    1.0177872   -0.0004148   -2.2415132  
N    2.1993578   -0.0011611   -2.7963820  
C   -0.2459209   -0.0002877   -2.9257118  
C   -1.3675319   -0.0000605   -2.1698524  
O   -2.6129313    0.0000867   -2.6748490  
C   -1.3083584    0.0000910   -0.6783232  
O   -2.3693261    0.0004206   -0.0541692  
C    0.0000000    0.0000000    0.0000000  
H    3.0096017   -0.0001007    0.4807525  
H   -0.2829630   -0.0004687   -4.0053125  
H   -3.1967441    0.0002094   -1.8949034  
C    2.3971438    2.0127888    3.1728260  
C    1.9431056    1.6308205    1.9564670  
C    0.8496017    0.7127664    2.2356185  
C    0.7794028    0.6545384    3.7115134  
N    1.6840587    1.4146091    4.2663826  
C   -0.1885723   -0.1578550    4.3957118  
C   -1.0476298   -0.8789867    3.6398520  
O   -2.0015663   -1.6796266    4.1448486  
C   -1.0022026   -0.8410666    2.1483229  
O   -1.8147390   -1.5232959    1.5241687  
C    0.0000000    0.0000000    1.4700000  
H    2.3054237    1.9346118    0.9892483  
H   -0.2170646   -0.1815267    5.4753125  
H   -2.4487139   -2.0549881    3.3649027  
H    3.2048689    2.6911772    3.3971983  
