60

C    7.9457124   -3.7110695   -4.2445834  
C    8.5975215   -4.5139473   -3.3373909  
C    7.9244297   -4.3630651   -2.0888790  
C    6.8608369   -3.4480582   -2.2973488  
N    6.9035289   -3.0702415   -3.6164583  
C    5.9837582   -3.0631485   -1.2788372  
C    6.1838316   -3.6121626   -0.0271456  
O    5.3563258   -3.2710839    1.0033456  
C    7.2397011   -4.5265192    0.2006877  
O    7.3077563   -4.9844121    1.5003208  
C    8.1055098   -4.9064863   -0.8035666  
H    9.4535743   -5.1314628   -3.5491530  
H    5.1712790   -2.3661146   -1.4312269  
H    5.6673963   -3.7596694    1.7765113  
H    8.0469698   -5.5963494    1.5688760  
H    8.9052085   -5.6087055   -0.5989962  
H    8.1426396   -3.5437322   -5.2896560  
C    5.9676385   -2.1403201   -4.2647287  
C    5.9574580   -1.7327287   -5.5552114  
C    4.8270660   -0.8220457   -5.6520102  
C    4.2518649   -0.7958515   -4.2900113  
N    4.9163000   -1.5666193   -3.4724345  
C    3.1006054    0.0006263   -3.9654951  
C    2.5492758    0.7377404   -4.9564711  
O    1.4731209    1.5264230   -4.7955005  
C    3.1069008    0.7327491   -6.3410973  
O    2.5539554    1.4279030   -7.1932904  
C    4.2884402   -0.0925691   -6.6488941  
H    6.6335874   -2.0151067   -6.3440011  
H    1.3195663    1.9186838   -5.6739680  
H    4.6618638   -0.0685360   -7.6638851  
C    3.2798083    0.0005857   -1.4499652  
C    2.5571142    0.0005565   -2.5996556  
C    1.1637432    0.0001548   -2.2210361  
C    1.1336964   -0.0000200   -0.7459473  
N    2.4483512   -0.0001428   -0.3402723  
C    0.0000000    0.0000000    0.0000000  
C   -1.2757368   -0.0000186   -0.6964415  
O   -2.3524598   -0.0000639   -0.1142311  
C   -1.2676497   -0.0000872   -2.2584083  
O   -2.3355766   -0.0004101   -2.8557295  
C    0.0181558    0.0001758   -2.9516296  
H    0.0150788    0.0003319   -4.0331631  
H    4.3498547    0.0008612   -1.3200026  
H    2.7563626    0.0012823    0.6148059  
C    0.8400945    0.7047457    2.2710304  
C    0.0000000    0.0000000    1.4700000  
C   -0.8844236   -0.7423113    2.3369512  
C   -0.4878984   -0.4098547    3.7186280  
N    0.5629682    0.4714286    3.6095011  
C   -1.0836927   -0.9095027    4.8308716  
C   -2.1891196   -1.8367527    4.6554461  
O   -2.7906899   -2.3413415    5.5944904  
C   -2.6257283   -2.2031529    3.2011665  
O   -3.5549479   -2.9829990    3.0410059  
C   -1.9068976   -1.5999348    2.0816745  
H   -0.7774656   -0.6525820    5.8354244  
H   -2.2155208   -1.8586617    1.0779135  
H    1.6384792    1.3747609    1.9961646  
H    1.0518368    0.8833920    4.3830260  
