62

C   -0.4370037   -0.0099621   -8.8142440  
C    0.3360870   -0.6848322   -9.7304047  
C   -0.1410011   -0.3226868  -11.0249456  
C   -1.2151670    0.5837731  -10.8340937  
N   -1.3696690    0.7502894   -9.4802042  
C   -1.9257839    1.1489524  -11.8972895  
C   -1.5449045    0.7928089  -13.1764580  
O   -2.2046582    1.3154769  -14.2509609  
C   -0.4759378   -0.1103521  -13.3872349  
O   -0.2179779   -0.3653689  -14.7183129  
C    0.2253720   -0.6685113  -12.3388332  
H    1.1437421   -1.3564728   -9.4946384  
H   -2.0490347    1.3460161   -9.0425365  
H   -2.7455141    1.8403142  -11.7584967  
H   -1.7858558    0.9412556  -15.0369809  
H    0.5170573   -0.9837349  -14.7726324  
H    1.0394687   -1.3574960  -12.5312510  
C    2.1650268   -2.1089228   -5.9297630  
C    1.5723604   -1.6445165   -7.0598730  
C    0.5184572   -0.7489604   -6.6450207  
C    0.5459257   -0.7295297   -5.1700093  
N    1.5661289   -1.5747498   -4.7989577  
C   -0.2963293   -0.0005341   -4.3948471  
C   -1.2968018    0.8195080   -5.0575088  
O   -2.1011001    1.5117977   -4.4474759  
C   -1.3442161    0.8139944   -6.6187671  
O   -2.1824060    1.5002187   -7.1877956  
C   -0.3835313   -0.0125666   -7.3452196  
H    1.8425077   -1.9002762   -8.0689424  
H    2.9887830   -2.7966246   -5.8278722  
H    1.8355782   -1.7715191   -3.8525299  
C    3.1301146   -0.0010313   -1.7028256  
C    2.5367765   -0.0002766   -0.4864669  
C    1.1089901    0.0001027   -0.7656184  
C    1.0177865   -0.0004150   -2.2415133  
N    2.1993571   -0.0011612   -2.7963824  
C   -0.2459219   -0.0002879   -2.9257116  
C   -1.3675326   -0.0000606   -2.1698520  
O   -2.6129318    0.0000865   -2.6748483  
C   -1.3083588    0.0000910   -0.6783229  
O   -2.3693264    0.0004206   -0.0541685  
C    0.0000000    0.0000000    0.0000000  
H    3.0096016   -0.0001007    0.4807518  
H   -3.1967444    0.0002093   -1.8949026  
H    4.1849275   -0.0015114   -1.9271979  
C    0.8576279    0.7185626    2.2703808  
C    0.0000000    0.0000000    1.4700000  
C   -0.8668858   -0.7285659    2.3373528  
C   -0.4876752   -0.4117774    3.6669281  
N    0.5635254    0.4678311    3.5902241  
C   -1.1297612   -0.9515493    4.7854808  
C   -2.1738724   -1.8268314    4.5576857  
O   -2.8357962   -2.3827064    5.6140350  
C   -2.5667212   -2.1555554    3.2384331  
O   -3.6226318   -3.0413663    3.1773122  
C   -1.9335634   -1.6236449    2.1344818  
H    1.0363952    0.8769718    4.3757045  
H   -0.8454472   -0.7142436    5.8013813  
H   -3.5178062   -2.9546422    5.2385129  
H   -3.8247440   -3.2102924    2.2519915  
H   -2.2566033   -1.8942483    1.1360343  
H    1.6567807    1.3889844    2.0042067  
