62

C    4.8600945   -3.0309768   -0.5418343  
C    4.1066646   -3.6816022    0.4076374  
C    5.0056645   -4.4739631    1.1813059  
C    6.3053073   -4.2643121    0.6531953  
N    6.1808314   -3.3843851   -0.3931561  
C    7.4428496   -4.8889606    1.1733895  
C    7.2652135   -5.7405322    2.2464453  
O    8.3420857   -6.3762602    2.7934442  
C    5.9763853   -5.9628578    2.7871015  
O    5.9643625   -6.8380632    3.8535046  
C    4.8536897   -5.3471751    2.2742510  
H    3.0401395   -3.5965286    0.5271370  
H    6.9382279   -3.0399414   -0.9550200  
H    8.4361143   -4.7334854    0.7753247  
H    8.0014263   -6.9147910    3.5195297  
H    5.0570096   -6.9327640    4.1590307  
H    3.8794319   -5.5371128    2.7092494  
C    4.4498807   -2.0927813   -1.5965448  
C    3.2085348   -1.6305556   -1.8956814  
C    3.3524544   -0.7335188   -3.0179324  
C    4.7897028   -0.7108877   -3.3504919  
N    5.3998261   -1.5552201   -2.4517473  
C    5.3348516    0.0196508   -4.3558921  
C    4.4468029    0.8384418   -5.1642765  
O    4.8411373    1.5320447   -6.0925628  
C    2.9210854    0.8299296   -4.8297317  
O    2.1637298    1.5155489   -5.5032294  
C    2.4521483    0.0014840   -3.7217481  
H    2.2961919   -1.8884108   -1.3879859  
H    6.3918374    0.0219799   -4.5832377  
H    6.3833796   -1.7523003   -2.4229412  
C    0.0000000    0.0000000    0.0000000  
C    1.0662923   -0.0000101   -0.8334270  
C    0.4961873    0.0000065   -2.1718887  
C   -0.9663854   -0.0000848   -1.9540250  
N   -1.2632773   -0.0000083   -0.6828660  
C   -1.8985359   -0.0000514   -3.0477261  
C   -1.3925770    0.0004566   -4.3020547  
O   -2.1456378    0.0005414   -5.4151314  
C    0.0786240    0.0009326   -4.5545000  
O    0.4683767    0.0012591   -5.7221100  
C    1.0143171    0.0008444   -3.4159031  
H    2.1107200    0.0000633   -0.5721865  
H   -2.9622181   -0.0003268   -2.8593381  
H   -1.5042265    0.0009697   -6.1484419  
C    3.3003543   -0.0005276    2.9438989  
C    2.5232812   -0.0003497    4.0790748  
C    1.1623199    0.0001319    3.6520102  
C    1.1711883   -0.0000583    2.2336141  
N    2.4852299    0.0014920    1.8362361  
C    0.0000000    0.0000000    1.4700000  
C   -1.2020384   -0.0000520    2.1506477  
O   -2.3759250   -0.0003494    1.4542253  
C   -1.2314658    0.0005113    3.5655508  
O   -2.5054393    0.0008037    4.0950179  
C   -0.0764518    0.0007272    4.3195194  
H    2.8919952    0.0005619    5.0905303  
H    2.8036267   -0.0088181    0.8841339  
H   -3.0835639   -0.0000348    2.1118817  
H   -2.4360050    0.0011527    5.0545920  
H   -0.1304098    0.0013421    5.4019087  
H    4.3715549   -0.0004895    2.8367138  
