60

C    2.2542570   -4.5551150   -6.4403366  
C    3.2434681   -4.3435320   -7.3726249  
C    3.1416380   -2.9821804   -7.7860875  
C    2.0631085   -2.4079656   -7.0656875  
N    1.5452195   -3.3907389   -6.2591111  
C    1.6748844   -1.0738462   -7.2212416  
C    2.3886219   -0.3053128   -8.1201928  
O    2.0520927    1.0036884   -8.3106602  
C    3.4676302   -0.8602748   -8.8486002  
O    4.0781133    0.0328899   -9.7047016  
C    3.8510034   -2.1764120   -8.6958470  
H    3.9506787   -5.0801134   -7.7136458  
H    0.7765141   -3.2749056   -5.6237723  
H    2.6671990    1.3506134   -8.9698647  
H    4.7952725   -0.4213893  -10.1573787  
H    4.6814676   -2.5735923   -9.2677339  
H    1.9974631   -5.4448616   -5.8913686  
C    0.2653132   -0.7042850   -5.1440085  
C   -0.8287665    0.0000939   -4.7555305  
C   -1.2825957    0.7423470   -5.9078911  
C   -0.3566077    0.4102558   -7.0074599  
N    0.5584964   -0.4707815   -6.4790213  
C   -0.4467553    0.9099656   -8.2659782  
C   -1.5278137    1.8369015   -8.5569044  
O   -1.6939217    2.3415174   -9.6596606  
C   -2.5200360    2.2029120   -7.4074107  
O   -3.4339547    2.9824917   -7.6403699  
C   -2.3204910    1.5996618   -6.0920693  
H    0.2428630    0.6533153   -9.0581062  
H   -3.0119746    1.8581180   -5.3016419  
H    0.8822125   -1.3741501   -4.5672890  
C    1.0672569   -0.0000698   -0.8321910  
C    0.0000000    0.0000000    0.0000000  
C   -1.1601223   -0.0000736   -0.8778472  
C   -0.5938729   -0.0000768   -2.2438435  
N    0.7113367   -0.0001553   -2.2234123  
C   -1.4286985   -0.0001877   -3.4135239  
C   -2.7683113   -0.0006798   -3.2270524  
O   -3.6653902   -0.0008302   -4.2276970  
C   -3.3702024   -0.0010610   -1.8610774  
O   -4.5974910   -0.0013779   -1.7662963  
C   -2.4926825   -0.0008943   -0.6770658  
H   -4.5324245   -0.0012258   -3.7833954  
H   -2.9677772   -0.0012974    0.2947961  
H    2.1134391   -0.0000547   -0.5705119  
C    2.5528530    2.1414826    2.8079335  
C    2.0663498    1.7338582    4.0032312  
C    0.9804344    0.8229586    3.6752840  
C    0.9495562    0.7966882    2.1971295  
N    1.8690446    1.5676019    1.6831036  
C    0.0000000    0.0000000    1.4700000  
C   -0.8785127   -0.7372425    2.1869543  
O   -1.8187535   -1.5261249    1.6395491  
C   -0.8723269   -0.7321790    3.6796354  
O   -1.7010379   -1.4274584    4.2670412  
C    0.1115397    0.0933559    4.4024240  
H    2.4028853    2.0163452    4.9860947  
H   -2.2861435   -1.9184361    2.3990168  
H    0.0832434    0.0693689    5.4835595  
H    3.3664920    2.8238276    2.6198634  
