62

C   -4.0929034    0.7138110   -7.7421558  
C   -5.3467976    0.4629911   -8.2494090  
C   -5.1819341   -0.4447601   -9.3372543  
C   -3.7937967   -0.7147263   -9.4473445  
N   -3.1612588    0.0061823   -8.4651000  
C   -3.2647613   -1.5730263  -10.4159683  
C   -4.1532590   -2.1699028  -11.2891745  
O   -3.6904414   -3.0170765  -12.2541148  
C   -5.5417612   -1.9127932  -11.1955040  
O   -6.2957955   -2.5823562  -12.1370237  
C   -6.0643422   -1.0659610  -10.2403540  
H   -6.2669767    0.8835188   -7.8814127  
H   -2.2077735   -1.7828196  -10.5052127  
H   -4.4646480   -3.3183356  -12.7471801  
H   -7.2208737   -2.3538067  -12.0043578  
H   -7.1323544   -0.8882009  -10.1931263  
H   -3.7892669    1.3426018   -6.9227745  
C   -0.9736295    0.0040466   -4.6965763  
C    0.3136156    0.0047603   -5.1144031  
C    0.2364007    0.0059852   -6.5671712  
C   -1.2123337    0.0057278   -6.8634017  
N   -1.9266299    0.0046737   -5.7708044  
C   -1.7135262    0.0067575   -8.2102096  
C   -0.8085709    0.0083771   -9.2153904  
O   -1.1348685    0.0094717  -10.5190660  
C    0.6601134    0.0090496   -8.9486954  
O    1.4261903    0.0104126   -9.9122021  
C    1.1492577    0.0079248   -7.5584929  
H    1.2054047    0.0045795   -4.5112551  
H   -0.2810977    0.0105426  -10.9883478  
H    2.2204487    0.0085759   -7.4075623  
C    1.1188642    0.0008216   -0.8003808  
C    0.0000000    0.0000000    0.0000000  
C   -1.1323861    0.0008904   -0.8673528  
C   -0.6382661    0.0019681   -2.1969280  
N    0.7324017    0.0038477   -2.1202241  
C   -1.4770913    0.0027323   -3.3154808  
C   -2.8395472    0.0020956   -3.0876858  
O   -3.7039201    0.0024441   -4.1440350  
C   -3.3517867    0.0013945   -1.7684332  
O   -4.7300494    0.0012387   -1.7073122  
C   -2.5248543    0.0009134   -0.6644817  
H    1.3576316   -0.0056175   -2.9057045  
H   -4.5940031    0.0021847   -3.7685129  
H   -4.9934602    0.0007284   -0.7819915  
H   -2.9462576    0.0005617    0.3339659  
H    2.1619896    0.0009343   -0.5342067  
C    0.0000000    0.0000000    1.4700000  
C    1.0541688    0.0001722    2.3260392  
C    0.5103138    0.0000454    3.6635956  
C   -0.9576371   -0.0002459    3.5155732  
N   -1.2018458    0.0001392    2.1615969  
C   -1.8348311   -0.0008317    4.5510609  
C   -1.2972847   -0.0009736    5.9014604  
O   -2.0050672   -0.0014265    6.9001319  
C    0.2542623   -0.0004184    6.0817573  
O    0.7184670   -0.0002256    7.2139121  
C    1.0974552   -0.0000873    4.8889129  
H    2.0940752    0.0005483    2.0517982  
H   -2.9081052   -0.0011668    4.4207061  
H    2.1707277    0.0000911    5.0223670  
H   -2.1128194   -0.0014912    1.7406791  
