66

C   -3.3003348   -0.0115608   -1.4738976  
C   -2.5232667   -0.0087851   -2.6090741  
C   -1.1623149   -0.0037539   -2.1820099  
C   -1.1711822   -0.0039737   -0.7636137  
N   -2.4852215   -0.0068163   -0.3662350  
C    0.0000000    0.0000000    0.0000000  
C    1.2020312    0.0039664   -0.6806485  
O    2.3759132    0.0075934    0.0157737  
C    1.2314556    0.0046279   -2.0955514  
O    2.5054213    0.0091793   -2.6250188  
C    0.0764476    0.0009826   -2.8495196  
H   -2.8919825   -0.0091063   -3.6205293  
H   -2.8035816   -0.0181906    0.5858671  
H    3.0835468    0.0102736   -0.6418832  
H    2.4359867    0.0092962   -3.5845929  
H    0.1304030    0.0017779   -3.9319085  
C   -5.6708211   -0.0191139   -2.3611549  
C   -4.7630227   -0.0163985   -1.3275387  
C   -5.5133219   -0.0174486   -0.1144229  
C   -6.8854821   -0.0211453   -0.4737102  
N   -6.9456323   -0.0201197   -1.8452050  
C   -7.9149589   -0.0233851    0.4723142  
C   -7.5526461   -0.0221726    1.8053203  
O   -8.5176837   -0.0246029    2.7705718  
C   -6.1889539   -0.0181188    2.1836650  
O   -5.9909145   -0.0169609    3.5489936  
C   -5.1728235   -0.0156340    1.2509277  
H   -8.9626801   -0.0260606    0.2049664  
H   -8.0554100   -0.0229080    3.6188439  
H   -5.0439692   -0.0142134    3.7189671  
H   -4.1373856   -0.0123599    1.5708279  
H   -5.5098267   -0.0189672   -3.4255981  
C   -8.3812003   -0.7662400   -3.7917235  
C   -8.1810835   -0.0385019   -2.6415855  
C   -9.3877283    0.6783756   -2.3872302  
C  -10.2962232    0.3453292   -3.4243615  
N   -9.6525531   -0.5322990   -4.2610663  
C  -11.5901161    0.8704898   -3.4939073  
C  -11.9739840    1.7476060   -2.4981712  
O  -13.2265226    2.2896284   -2.5174406  
C  -11.0816839    2.0924457   -1.4552407  
O  -11.6121400    2.9779950   -0.5399469  
C   -9.8049866    1.5749551   -1.3861484  
H  -10.0520085   -0.9508016   -5.0815981  
H  -12.2872735    0.6207565   -4.2818194  
H  -13.2867142    2.8655976   -1.7441992  
H  -10.9458210    3.1582957    0.1302130  
H   -9.1438443    1.8577301   -0.5753419  
H   -7.7171490   -1.4325570   -4.3151899  
C    0.0000000    0.0000000    1.4700000  
C    1.0521667    0.0011902    2.3562342  
C    0.4917218    0.0011957    3.6679131  
C   -0.9187428   -0.0003148    3.5178682  
N   -1.1833171    0.0009411    2.1707914  
C   -1.7951701   -0.0010350    4.6072090  
C   -1.2375837   -0.0005224    5.8710424  
O   -2.0474215   -0.0015360    6.9697579  
C    0.1673580    0.0013566    6.0411963  
O    0.5673524    0.0020687    7.3615553  
C    1.0325770    0.0023412    4.9669890  
H    2.0953057    0.0030649    2.0900562  
H   -2.0989778   -0.0102372    1.7591824  
H   -2.8710934   -0.0020419    4.4995513  
H   -1.4634884   -0.0006497    7.7393593  
H    1.5290710    0.0033153    7.3880045  
H    2.1042148    0.0039609    5.1284455  
