62

C    0.0000000    0.0000000    0.0000000  
C    1.0521671   -0.0011900   -0.8862338  
C    0.4917227   -0.0011956   -2.1979130  
C   -0.9187416    0.0003147   -2.0478688  
N   -1.1833166   -0.0009412   -0.7007918  
C   -1.7951691    0.0010348   -3.1372097  
C   -1.2375822    0.0005225   -4.4010429  
O   -2.0474193    0.0015357   -5.4997592  
C    0.1673600   -0.0013569   -4.5711965  
O    0.5673547   -0.0020690   -5.8915550  
C    1.0325783   -0.0023412   -3.4969888  
H    2.0953063   -0.0030647   -0.6200555  
H   -2.0989776    0.0102369   -0.2891834  
H   -2.8710921    0.0020417   -3.0295528  
H   -1.4634857    0.0006492   -6.2693603  
H    1.5290734   -0.0033155   -5.9180037  
C    4.1863646   -2.1477870   -1.3902869  
C    5.2964380   -1.7419933   -2.0495650  
C    4.8117036   -0.8307027   -3.0747877  
C    3.3454852   -0.8022262   -2.8851123  
N    2.9730544   -1.5722877   -1.8990645  
C    2.4861715   -0.0045380   -3.7159914  
C    3.0653213    0.7315528   -4.6917426  
O    2.3851023    1.5211674   -5.5401837  
C    4.5422563    0.7242591   -4.9080059  
O    5.0006616    1.4185849   -5.8151978  
C    5.4023468   -0.1022662   -4.0425438  
H    6.3180558   -2.0259185   -1.8631254  
H    3.0670354    1.9123003   -6.1156263  
H    6.4672357   -0.0798975   -4.2316006  
C    7.2664471   -4.3678065    0.8160547  
C    6.4784240   -5.0126652    1.7145265  
C    5.1173675   -4.6144631    1.4428716  
C    5.1774748   -3.6780639    0.3043049  
N    6.5082051   -3.5709233   -0.0282118  
C    4.0967359   -3.0774171   -0.2550976  
C    2.7869520   -3.3727562    0.3014779  
O    1.7528340   -2.8820858   -0.1322766  
C    2.6997568   -4.3614133    1.5076120  
O    1.6024853   -4.6174679    1.9847831  
C    3.9347889   -4.9462315    2.0238832  
H    6.8124910   -5.6898521    2.4803141  
H    3.8657738   -5.6299643    2.8590302  
H    8.3373335   -4.4075149    0.6997944  
H    6.8722796   -3.0030499   -0.7711901  
C    0.0000000    0.0000000    1.4700000  
C    1.0521667    0.0011902    2.3562342  
C    0.4917218    0.0011957    3.6679131  
C   -0.9187428   -0.0003148    3.5178682  
N   -1.1833171    0.0009411    2.1707914  
C   -1.7951701   -0.0010350    4.6072090  
C   -1.2375837   -0.0005224    5.8710424  
O   -2.0474215   -0.0015360    6.9697579  
C    0.1673580    0.0013566    6.0411963  
O    0.5673524    0.0020687    7.3615553  
C    1.0325770    0.0023412    4.9669890  
H    2.0953057    0.0030649    2.0900562  
H   -2.0989778   -0.0102372    1.7591824  
H   -2.8710934   -0.0020419    4.4995513  
H   -1.4634884   -0.0006497    7.7393593  
H    1.5290710    0.0033153    7.3880045  
H    2.1042148    0.0039609    5.1284455  
