62

C   -2.7135148    1.8786119   -1.4738977  
C   -2.0745838    1.4363340   -2.6090739  
C   -0.9554665    0.6618714   -2.1820099  
C   -0.9628650    0.6667644   -0.7636138  
N   -2.0422526    1.4161839   -0.3662350  
C    0.0000000    0.0000000    0.0000000  
C    0.9881625   -0.6844192   -0.6806482  
O    1.9530430   -1.3530118    0.0157739  
C    1.0126753   -0.7007104   -2.0955512  
O    2.0601717   -1.4258022   -2.6250186  
C    0.0632633   -0.0429294   -2.8495194  
H   -2.3098751    1.5889858    0.5858674  
H    2.5349703   -1.7556451   -0.6418822  
H    2.0032883   -1.3859836   -3.5845927  
H    0.1079718   -0.0731451   -3.9319087  
H   -3.5941241    2.4885275   -1.3667125  
C   -3.6522820    5.0738313   -4.5522449  
C   -3.1652080    4.1738900   -3.6595304  
C   -2.9538814    2.9397365   -4.3785862  
C   -3.3606539    3.1962877   -5.7734008  
N   -3.7743501    4.5078665   -5.8122142  
C   -3.3111267    2.2767771   -6.7702719  
C   -2.8249385    0.9455300   -6.4478778  
O   -2.7425728    0.0478363   -7.2759253  
C   -2.3890325    0.6515352   -4.9770424  
O   -1.9783124   -0.4657139   -4.6936260  
C   -2.4877705    1.7240018   -3.9901692  
H   -2.9757692    4.3539953   -2.6163196  
H   -3.6141734    2.4855125   -7.7868855  
H   -4.1109842    4.9816177   -6.6303122  
C   -4.0344704    6.4771204   -4.3386777  
C   -3.9922026    7.2116601   -3.1973012  
C   -4.4766209    8.5311460   -3.5276506  
C   -4.8069672    8.5049201   -4.9653485  
N   -4.5158985    7.2316583   -5.3977523  
C   -5.2969695    9.5620642   -5.6610835  
C   -5.5132330   10.8089691   -4.9462445  
O   -5.9510055   11.8177160   -5.4839120  
C   -5.1700433   10.8595223   -3.4232636  
O   -5.3476666   11.9039358   -2.8109646  
C   -4.6479036    9.6547562   -2.7831382  
H   -3.6594615    6.8683904   -2.2339409  
H   -5.5328586    9.5217296   -6.7154265  
H   -4.4129671    9.6980057   -1.7283118  
H   -4.6367021    6.9008414   -6.3374403  
C    2.5285572    2.1210227    2.9438989  
C    1.9331703    1.6216660    4.0790748  
C    0.8903039    0.7472258    3.6520102  
C    0.8972198    0.7527806    2.2336141  
N    1.9028376    1.5986179    1.8362361  
C    0.0000000    0.0000000    1.4700000  
C   -0.9207814   -0.7726952    2.1506477  
O   -1.8198395   -1.5274828    1.4542253  
C   -0.9436862   -0.7911793    3.5655508  
O   -1.9197945   -1.6098497    4.0950179  
C   -0.0590329   -0.0485852    4.3195194  
H    2.2150357    1.8593692    5.0905303  
H    2.1533708    1.7953814    0.8841339  
H   -2.3621246   -1.9821033    2.1118817  
H   -1.8668290   -1.5649508    5.0545920  
H   -0.1007624   -0.0827977    5.4019087  
H    3.3491200    2.8096064    2.8367138  
