64

C    0.2173885   -0.8923132   -9.5334439  
C    0.4690376   -0.4640756  -10.8163128  
C    0.2133044    0.9389210  -10.8446179  
C   -0.1945790    1.3140652   -9.5389294  
N   -0.1830258    0.1780072   -8.7683087  
C   -0.5285093    2.6285870   -9.1993538  
C   -0.4489470    3.5818215  -10.1959434  
O   -0.7634288    4.8807918   -9.9188342  
C   -0.0444223    3.2270059  -11.5048669  
O   -0.0157588    4.2891131  -12.3848963  
C    0.2848954    1.9303458  -11.8406481  
H    0.7955763   -1.0865548  -11.6317185  
H   -0.8402487    2.9209437   -8.2061021  
H   -0.6428381    5.3724234  -10.7416474  
H    0.2672977    3.9639121  -13.2449705  
H    0.5911252    1.6886339  -12.8517262  
H    0.2904650   -1.8768091   -9.1040415  
C    1.6071931   -2.0691457   -5.4061220  
C    0.7600336   -1.6164454   -4.4213122  
C   -0.1612455   -0.7224870   -5.0431507  
C    0.1755313   -0.6690405   -6.4199772  
N    1.2548209   -1.4967874   -6.6059504  
C   -0.5252820    0.1165513   -7.3400284  
C   -1.5855711    0.8615301   -6.8615194  
O   -2.3042728    1.6457775   -7.7167616  
C   -1.9367273    0.8217439   -5.4911462  
O   -3.0155713    1.6195947   -5.1704052  
C   -1.2456329    0.0471727   -4.5828766  
H    0.8017170   -1.8952901   -3.3823217  
H    1.7089811   -1.6697419   -7.4844757  
H   -2.9880780    2.0738672   -7.1853339  
H   -3.1866799    1.5350660   -4.2274413  
H    2.4357996   -2.7539194   -5.3473447  
C    1.1243410    0.0099923   -0.7919003  
C    0.7474076    0.0234544   -2.1148543  
C   -0.6787381    0.0234490   -2.1414700  
C   -1.1201745    0.0098592   -0.7935546  
N    0.0000000    0.0000000    0.0000000  
C   -2.4730816    0.0063709   -0.4408240  
C   -3.3971958    0.0170982   -1.4675058  
O   -4.7313517    0.0146259   -1.1793471  
C   -2.9763648    0.0303504   -2.8186324  
O   -4.0166480    0.0395118   -3.7247624  
C   -1.6418562    0.0335260   -3.1673481  
H    1.4178717    0.0310972   -2.9571209  
H   -2.8160166   -0.0041111    0.5845966  
H   -5.1938818    0.0230867   -2.0274384  
H   -3.6464675    0.0482293   -4.6127343  
H    2.1062467    0.0052819   -0.3505407  
C    0.8175213    0.6860729    2.3021913  
C    0.0000000    0.0000000    1.4700000  
C   -0.8887526   -0.7456559    2.3478473  
C   -0.4549825   -0.3816753    3.7138435  
N    0.5448156    0.4573574    3.6934124  
C   -1.0945674   -0.9182058    4.8835240  
C   -2.1210866   -1.7789155    4.6970523  
O   -2.8083856   -2.3554314    5.6976972  
C   -2.5824069   -2.1655116    3.3310774  
O   -3.5227682   -2.9541547    3.2362962  
C   -1.9100805   -1.6015804    2.1470656  
H   -0.7567140   -0.6349833    5.8697035  
H   -3.4728268   -2.9124471    5.2533954  
H   -2.2742832   -1.9066565    1.1752040  
H    1.6189533    1.3585343    2.0405121  
