64

C    9.0050234    0.0036227   -0.1812398  
C   10.1037473    0.0051511   -1.0090507  
C   11.2572396    0.0064868   -0.1699720  
C   10.7961580    0.0054019    1.1714185  
N    9.4240119    0.0056208    1.1286434  
C   11.6623946    0.0059474    2.2688813  
C   13.0187992    0.0073118    2.0074555  
O   13.9090358    0.0075457    3.0421013  
C   13.4982474    0.0087844    0.6759365  
O   14.8745758    0.0104578    0.5807433  
C   12.6442619    0.0085205   -0.4072230  
H   10.0771171    0.0063918   -2.0852862  
H    8.8184154   -0.0055473    1.9293365  
H   11.3173023    0.0052708    3.2936317  
H   14.7895574    0.0088549    2.6446784  
H   15.1150192    0.0113501   -0.3508090  
H   13.0408387    0.0098571   -1.4157879  
C    6.8064686    0.0000398   -4.0743113  
C    7.7887311    0.0006874   -3.1111768  
C    7.1308655    0.0013413   -1.8455493  
C    5.7357521    0.0007674   -2.1016434  
N    5.5736258    0.0019331   -3.4648494  
C    4.7795901    0.0008674   -1.0815733  
C    5.2401774    0.0012525    0.2207464  
O    4.3497073    0.0010154    1.2551915  
C    6.6282665    0.0022028    0.4964750  
O    6.9274445    0.0029068    1.8432620  
C    7.5721095    0.0023780   -0.5093509  
H    8.8489885    0.0017935   -3.2978477  
H    4.6916431   -0.0087004   -3.9444062  
H    4.8738765    0.0016565    2.0666784  
H    7.8844233    0.0034995    1.9422372  
H    6.8877383   -0.0001771   -5.1477883  
C    3.3321168    0.0004716   -1.3379341  
C    2.6974177    0.0000118   -2.5332316  
C    1.2800432   -0.0002116   -2.2052842  
C    1.2395033    0.0000644   -0.7271298  
N    2.4394059    0.0005460   -0.2131041  
C    0.0000000    0.0000000    0.0000000  
C   -1.1468704    0.0000635   -0.7169542  
O   -2.3742206    0.0000074   -0.1695488  
C   -1.1388774    0.0001608   -2.2096352  
O   -2.2206238    0.0000906   -2.7970409  
C    0.1454514    0.0001818   -2.9324241  
H    3.1367978   -0.0000649   -3.5160956  
H   -2.9844350    0.0001027   -0.9290164  
H    0.1083567    0.0003684   -4.0135594  
C    2.5311839    2.1237619    3.0120429  
C    1.9795631    1.6616747    1.8395852  
C    0.9223175    0.7739173    2.1983588  
C    0.8753926    0.7337535    3.6154372  
N    1.8668922    1.5631002    4.0777464  
C   -0.0496243   -0.0427881    4.3197917  
C   -0.9437528   -0.7922060    3.5801400  
O   -1.8685244   -1.5680278    4.2172520  
C   -0.9124520   -0.7656372    2.1655264  
O   -1.8671164   -1.5663939    1.5732860  
C    0.0000000    0.0000000    1.4700000  
H    2.3005065    1.9304404    0.8477417  
H    2.0679347    1.7444845    5.0445261  
H   -0.0904770   -0.0778569    5.3997470  
H   -2.3849669   -2.0011402    3.5251786  
H   -1.7775064   -1.4909735    0.6183591  
H    3.3468514    2.8078103    3.1724291  
