64

C    8.1074188    0.0312211   -1.0614715  
C    8.4308210    0.0306319    0.2756443  
C    9.8546901    0.0426619    0.3596292  
C   10.3499661    0.0505564   -0.9694927  
N    9.2626761    0.0413622   -1.8075458  
C   11.7159126    0.0634350   -1.2675071  
C   12.5979461    0.0687421   -0.2044139  
O   13.9425573    0.0816284   -0.4386559  
C   12.1231305    0.0606473    1.1287412  
O   13.1260862    0.0669758    2.0760451  
C   10.7757313    0.0476682    1.4234812  
H    7.7270566    0.0214234    1.0902751  
H    9.3029638    0.0545082   -2.8106335  
H   12.0998014    0.0693589   -2.2783464  
H   14.3705847    0.0829997    0.4274016  
H   12.7205076    0.0608508    2.9484398  
H   10.4419015    0.0415267    2.4544983  
C    5.5764485    0.0082717   -1.0736981  
C    6.7920324    0.0210387   -1.7176388  
C    6.5213451    0.0206190   -3.1181130  
C    5.1110777    0.0075046   -3.2694402  
N    4.5679461   -0.0016854   -2.0086701  
C    4.4845816    0.0037915   -4.5193514  
C    5.2965308    0.0138010   -5.6368558  
O    4.7370949    0.0110807   -6.8818609  
C    6.7056518    0.0265710   -5.5063510  
O    7.3755167    0.0350354   -6.7123995  
C    7.3243927    0.0299677   -4.2736002  
H    3.4102466   -0.0063309   -4.6414310  
H    5.4703979    0.0190335   -7.5107242  
H    8.3210797    0.0434622   -6.5350732  
H    8.4059103    0.0396466   -4.2050110  
H    5.3490389    0.0040348   -0.0214503  
C    3.1301149   -0.0010311   -1.7028252  
C    2.5367768   -0.0002767   -0.4864665  
C    1.1089904    0.0001028   -0.7656183  
C    1.0177872   -0.0004148   -2.2415132  
N    2.1993578   -0.0011611   -2.7963820  
C   -0.2459209   -0.0002877   -2.9257118  
C   -1.3675319   -0.0000605   -2.1698524  
O   -2.6129313    0.0000867   -2.6748490  
C   -1.3083584    0.0000910   -0.6783232  
O   -2.3693261    0.0004206   -0.0541692  
C    0.0000000    0.0000000    0.0000000  
H    3.0096017   -0.0001007    0.4807525  
H   -0.2829630   -0.0004687   -4.0053125  
H   -3.1967441    0.0002094   -1.8949034  
C    2.5285572    2.1210227    2.9438989  
C    1.9331703    1.6216660    4.0790748  
C    0.8903039    0.7472258    3.6520102  
C    0.8972198    0.7527806    2.2336141  
N    1.9028376    1.5986179    1.8362361  
C    0.0000000    0.0000000    1.4700000  
C   -0.9207814   -0.7726952    2.1506477  
O   -1.8198395   -1.5274828    1.4542253  
C   -0.9436862   -0.7911793    3.5655508  
O   -1.9197945   -1.6098497    4.0950179  
C   -0.0590329   -0.0485852    4.3195194  
H    2.2150357    1.8593692    5.0905303  
H    2.1533708    1.7953814    0.8841339  
H   -2.3621246   -1.9821033    2.1118817  
H   -1.8668290   -1.5649508    5.0545920  
H   -0.1007624   -0.0827977    5.4019087  
H    3.3491200    2.8096064    2.8367138  
