60

C    5.1976436   -4.3475571   -3.5346770  
C    4.2028345   -3.5144819   -3.9916323  
C    4.2474296   -3.5553845   -5.4167424  
C    5.2984184   -4.4379509   -5.7751072  
N    5.8556932   -4.8998287   -4.6086031  
C    5.6296038   -4.7194390   -7.1039671  
C    4.8860838   -4.0989082   -8.0890044  
O    5.1667931   -4.3384925   -9.4030876  
C    3.8338153   -3.2148424   -7.7514026  
O    3.1880023   -2.6761068   -8.8450359  
C    3.5067131   -2.9364728   -6.4406617  
H    3.5287365   -2.9462521   -3.3738145  
H    6.6169956   -5.5514749   -4.5473269  
H    6.4295550   -5.3910282   -7.3836932  
H    4.5392047   -3.8133252   -9.9165045  
H    2.4921853   -2.0912779   -8.5297288  
H    5.4907862   -4.5903906   -2.5276724  
C    2.4064707   -2.0119089   -6.1315522  
C    1.9558554   -1.6301628   -4.9138516  
C    0.8614677   -0.7121811   -5.1897589  
C    0.7870647   -0.6537478   -6.6654397  
N    1.6902162   -1.4136452   -7.2229896  
C   -0.1829361    0.1586444   -7.3467641  
C   -1.0399141    0.8795786   -6.5883597  
O   -1.9953657    1.6801932   -7.0905249  
C   -0.9902402    0.8414484   -5.0969715  
O   -1.8010677    1.5235041   -4.4704098  
C    0.0139741    0.0003876   -4.4216236  
H    2.3209548   -1.9340559   -3.9477113  
H   -0.2145021    0.1824686   -8.4262756  
H   -2.4403313    2.0553964   -6.3092559  
C    3.2798085    0.0005853   -1.4499648  
C    2.5571144    0.0005562   -2.5996554  
C    1.1637436    0.0001546   -2.2210360  
C    1.1336965   -0.0000201   -0.7459470  
N    2.4483513   -0.0001430   -0.3402717  
C    0.0000000    0.0000000    0.0000000  
C   -1.2757367   -0.0000188   -0.6964414  
O   -2.3524597   -0.0000640   -0.1142313  
C   -1.2676494   -0.0000875   -2.2584081  
O   -2.3355762   -0.0004102   -2.8557294  
C    0.0181562    0.0001757   -2.9516296  
H    2.9547357    0.0006072   -3.5989105  
H    4.3498550    0.0008609   -1.3200021  
H    2.7563627    0.0012824    0.6148063  
C    0.8175213    0.6860729    2.3021913  
C    0.0000000    0.0000000    1.4700000  
C   -0.8887526   -0.7456559    2.3478473  
C   -0.4549825   -0.3816753    3.7138435  
N    0.5448156    0.4573574    3.6934124  
C   -1.0945674   -0.9182058    4.8835240  
C   -2.1210866   -1.7789155    4.6970523  
O   -2.8083856   -2.3554314    5.6976972  
C   -2.5824069   -2.1655116    3.3310774  
O   -3.5227682   -2.9541547    3.2362962  
C   -1.9100805   -1.6015804    2.1470656  
H   -0.7567140   -0.6349833    5.8697035  
H   -3.4728268   -2.9124471    5.2533954  
H   -2.2742832   -1.9066565    1.1752040  
H    1.6189533    1.3585343    2.0405121  
