60

C    0.2532548   -2.9825010   -9.5531567  
C   -0.2001149   -1.9976087   -8.7064514  
C   -0.2593676   -0.7911375   -9.4650794  
C    0.1731120   -1.1041390  -10.7792016  
N    0.4785080   -2.4424247  -10.7977166  
C    0.2422646   -0.1510089  -11.7997644  
C   -0.1322755    1.1415782  -11.4881303  
O   -0.0842713    2.1116320  -12.4471430  
C   -0.5662053    1.4735170  -10.1826282  
O   -0.9044589    2.8023304  -10.0303707  
C   -0.6344189    0.5338004   -9.1752518  
H   -0.4555350   -2.1319470   -7.6692885  
H    0.8027435   -2.9526701  -11.5992778  
H    0.5711547   -0.3831428  -12.8033316  
H   -0.3825948    2.9278137  -12.0251068  
H   -1.1863235    2.9421821   -9.1211969  
H    0.4351280   -4.0271894   -9.3673940  
C    0.8291950   -0.6854812   -5.2562361  
C    0.0139741    0.0003876   -4.4216236  
C   -0.8773488    0.7460784   -5.2968311  
C   -0.4474293    0.3823395   -6.6641086  
N    0.5525090   -0.4565932   -6.6466432  
C   -1.0903942    0.9189728   -7.8318869  
C   -2.1164671    1.7795496   -7.6423720  
O   -2.8066693    2.3561391   -8.6409740  
C   -2.5739390    2.1659013   -6.2750339  
O   -3.5141075    2.9544337   -6.1774642  
C   -1.8981891    1.6018687   -5.0930214  
H   -3.4699006    2.9130223   -8.1947035  
H   -2.2596569    1.9067674   -4.1200833  
H    1.6314369   -1.3578977   -4.9969352  
C    3.2798085    0.0005853   -1.4499648  
C    2.5571144    0.0005562   -2.5996554  
C    1.1637436    0.0001546   -2.2210360  
C    1.1336965   -0.0000201   -0.7459470  
N    2.4483513   -0.0001430   -0.3402717  
C    0.0000000    0.0000000    0.0000000  
C   -1.2757367   -0.0000188   -0.6964414  
O   -2.3524597   -0.0000640   -0.1142313  
C   -1.2676494   -0.0000875   -2.2584081  
O   -2.3355762   -0.0004102   -2.8557294  
C    0.0181562    0.0001757   -2.9516296  
H    2.9547357    0.0006072   -3.5989105  
H    4.3498550    0.0008609   -1.3200021  
H    2.7563627    0.0012824    0.6148063  
C    0.0000000    0.0000000    1.4700000  
C    1.0541688    0.0001722    2.3260392  
C    0.5103138    0.0000454    3.6635956  
C   -0.9576371   -0.0002459    3.5155732  
N   -1.2018458    0.0001392    2.1615969  
C   -1.8348311   -0.0008317    4.5510609  
C   -1.2972847   -0.0009736    5.9014604  
O   -2.0050672   -0.0014265    6.9001319  
C    0.2542623   -0.0004184    6.0817573  
O    0.7184670   -0.0002256    7.2139121  
C    1.0974552   -0.0000873    4.8889129  
H    2.0940752    0.0005483    2.0517982  
H   -2.9081052   -0.0011668    4.4207061  
H    2.1707277    0.0000911    5.0223670  
H   -2.1128194   -0.0014912    1.7406791  
