60

C   -0.4271062    0.7041212   -9.2890375  
C    0.6607287   -0.1128611   -9.4930532  
C    0.9953258   -0.0228898  -10.8767258  
C    0.0691155    0.8716448  -11.4715937  
N   -0.7817130    1.2931481  -10.4801087  
C    0.0997043    1.1987840  -12.8305762  
C    1.0834015    0.6124449  -13.6030550  
O    1.1591148    0.8971889  -14.9357971  
C    2.0163660   -0.2828736  -13.0279039  
O    2.9339245   -0.7837115  -13.9282340  
C    1.9866177   -0.6062712  -11.6873614  
H    1.1519201   -0.7021294   -8.7377477  
H   -1.5378402    1.9424053  -10.6014246  
H   -0.6034264    1.8797233  -13.2900661  
H    1.9050974    0.3899288  -15.2814307  
H    3.5264355   -1.3791522  -13.4592082  
H    2.7143705   -1.2954504  -11.2751886  
C    0.0063622   -0.7183663   -5.1315061  
C    0.1635195   -0.4995852   -6.4624876  
C   -0.8683528    0.4283181   -6.8613248  
C   -1.6451040    0.7344083   -5.6448720  
N   -1.0641734    0.0073898   -4.6315339  
C   -2.7096537    1.5750845   -5.6036130  
C   -3.1177623    2.2214016   -6.8398396  
O   -4.0639258    2.9951480   -6.9061034  
C   -2.3096710    1.9116387   -8.1401633  
O   -2.6441214    2.4496444   -9.1870415  
C   -1.1807006    0.9882016   -8.0592839  
H    0.9162662   -0.9383080   -7.0929700  
H   -3.2656646    1.7860271   -4.7006926  
H    0.5824064   -1.3488930   -4.4738593  
C    1.1319248    0.0015675   -0.8009270  
C    0.7969916    0.0034959   -2.1169404  
C   -0.6453336    0.0035703   -2.1842672  
C   -1.1266831    0.0015415   -0.7896027  
N    0.0000000    0.0000000    0.0000000  
C   -2.4346129    0.0013924   -0.4276297  
C   -3.4350110    0.0031352   -1.4820184  
O   -4.6384610    0.0030897   -1.2583919  
C   -2.9478958    0.0050460   -2.9661075  
O   -3.7809377    0.0062160   -3.8623775  
C   -1.5113821    0.0053068   -3.2312125  
H    1.4821240    0.0045436   -2.9459192  
H   -2.7664565    0.0000185    0.6013447  
H    2.1104318    0.0009428   -0.3488058  
C    2.5528530    2.1414826    2.8079335  
C    2.0663498    1.7338582    4.0032312  
C    0.9804344    0.8229586    3.6752840  
C    0.9495562    0.7966882    2.1971295  
N    1.8690446    1.5676019    1.6831036  
C    0.0000000    0.0000000    1.4700000  
C   -0.8785127   -0.7372425    2.1869543  
O   -1.8187535   -1.5261249    1.6395491  
C   -0.8723269   -0.7321790    3.6796354  
O   -1.7010379   -1.4274584    4.2670412  
C    0.1115397    0.0933559    4.4024240  
H    2.4028853    2.0163452    4.9860947  
H   -2.2861435   -1.9184361    2.3990168  
H    0.0832434    0.0693689    5.4835595  
H    3.3664920    2.8238276    2.6198634  
