62

C    8.7705111    0.0014522   -2.9707477  
C    8.0260797    0.0014484   -4.1275924  
C    8.9480324    0.0020697   -5.2159874  
C   10.2517191    0.0021480   -4.6571267  
N   10.1077524    0.0037169   -3.2918842  
C   11.4101428    0.0024017   -5.4399711  
C   11.2495752    0.0022724   -6.8119758  
O   12.3471250    0.0021577   -7.6233936  
C    9.9570888    0.0025686   -7.3884256  
O    9.9637713    0.0028156   -8.7680265  
C    8.8138338    0.0025918   -6.6167422  
H    6.9508148    0.0021523   -4.1804959  
H   10.8615536   -0.0064264   -2.6288126  
H   12.4066169    0.0026067   -5.0201617  
H   12.0157959    0.0023781   -8.5308555  
H    9.0525129    0.0029797   -9.0765907  
H    7.8373016    0.0030038   -7.0867022  
C    4.7795901    0.0008674   -1.0815733  
C    5.8063529    0.0010475   -1.9702986  
C    7.0285665    0.0013957   -1.2015147  
C    6.6268097    0.0013744    0.2181265  
N    5.2509927    0.0014465    0.2224663  
C    7.4934510    0.0012527    1.2624622  
C    8.9169021    0.0013608    0.9686564  
O    9.7768360    0.0013263    1.8397559  
C    9.3650174    0.0016370   -0.5276718  
O   10.5607784    0.0020366   -0.7873207  
C    8.3375016    0.0014689   -1.5659693  
H    5.7176690    0.0011303   -3.0420957  
H    7.1779199    0.0011091    2.2965564  
H    4.6776564   -0.0001048    1.0460743  
C    3.3321168    0.0004716   -1.3379341  
C    2.6974177    0.0000118   -2.5332316  
C    1.2800432   -0.0002116   -2.2052842  
C    1.2395033    0.0000644   -0.7271298  
N    2.4394059    0.0005460   -0.2131041  
C    0.0000000    0.0000000    0.0000000  
C   -1.1468704    0.0000635   -0.7169542  
O   -2.3742206    0.0000074   -0.1695488  
C   -1.1388774    0.0001608   -2.2096352  
O   -2.2206238    0.0000906   -2.7970409  
C    0.1454514    0.0001818   -2.9324241  
H    3.1367978   -0.0000649   -3.5160956  
H   -2.9844350    0.0001027   -0.9290164  
H    0.1083567    0.0003684   -4.0135594  
C    2.5311839    2.1237619    3.0120429  
C    1.9795631    1.6616747    1.8395852  
C    0.9223175    0.7739173    2.1983588  
C    0.8753926    0.7337535    3.6154372  
N    1.8668922    1.5631002    4.0777464  
C   -0.0496243   -0.0427881    4.3197917  
C   -0.9437528   -0.7922060    3.5801400  
O   -1.8685244   -1.5680278    4.2172520  
C   -0.9124520   -0.7656372    2.1655264  
O   -1.8671164   -1.5663939    1.5732860  
C    0.0000000    0.0000000    1.4700000  
H    2.3005065    1.9304404    0.8477417  
H    2.0679347    1.7444845    5.0445261  
H   -0.0904770   -0.0778569    5.3997470  
H   -2.3849669   -2.0011402    3.5251786  
H   -1.7775064   -1.4909735    0.6183591  
H    3.3468514    2.8078103    3.1724291  
