62

C    4.3986925   -2.1219534   -1.2768490  
C    3.1671542   -1.6601561   -1.6799920  
C    3.3927791   -0.7733837   -2.7742173  
C    4.7932402   -0.7334947   -2.9956763  
N    5.3743139   -1.5620494   -2.0680625  
C    5.3781140    0.0421207   -4.0012263  
C    4.5338274    0.7908774   -4.7979200  
O    5.0520044    1.5657842   -5.7949293  
C    3.1338858    0.7645692   -4.5922822  
O    2.4284169    1.5645872   -5.4672842  
C    2.5562222   -0.0001542   -3.6002998  
H    2.2224780   -1.9284770   -1.2388763  
H    6.3585028   -1.7434167   -1.9876889  
H    6.4447778    0.0769756   -4.1750569  
H    4.3015179    1.9985585   -6.2224131  
H    1.4918408    1.4894028   -5.2604613  
H    4.6584630   -2.8053140   -0.4865975  
C    0.0000000    0.0000000    0.0000000  
C    1.0541691   -0.0001719   -0.8560389  
C    0.5103143   -0.0000448   -2.1935953  
C   -0.9576364    0.0002464   -2.0455731  
N   -1.2018458   -0.0001389   -0.6915972  
C   -1.8348303    0.0008322   -3.0810611  
C   -1.2972837    0.0009745   -4.4314603  
O   -2.0050658    0.0014276   -5.4301322  
C    0.2542633    0.0004194   -4.6117570  
O    0.7184681    0.0002269   -5.7439118  
C    1.0974560    0.0000881   -3.4189126  
H    2.0940754   -0.0005481   -0.5817976  
H   -2.1128195    0.0014913   -0.2706792  
C   -4.0214236    0.6873773   -1.9917553  
C   -3.2941065    0.0012879   -2.9038247  
C   -4.2729617   -0.7438334   -3.6804434  
C   -5.5765688   -0.3795575   -3.0850477  
N   -5.4354542    0.4591735   -2.0947920  
C   -6.8150142   -0.9155365   -3.5790769  
C   -6.7539654   -1.7760009   -4.6208104  
O   -7.8303751   -2.3520036   -5.1825960  
C   -5.4537085   -2.1628842   -5.2435582  
O   -5.4732681   -2.9512789   -6.1886890  
C   -4.1970791   -1.5995184   -4.7187476  
H   -7.7531675   -0.6321082   -3.1247130  
H   -7.4696169   -2.9089609   -5.8959014  
H   -3.2763235   -1.9047882   -5.1975477  
H   -3.6647948    1.3595209   -1.2275482  
C    3.3041272   -0.0001177    3.0120429  
C    2.5845372    0.0004780    1.8395852  
C    1.2040006    0.0000008    2.1983588  
C    1.1422373   -0.0006037    3.6154372  
N    2.4348639   -0.0026109    4.0777464  
C   -0.0655181   -0.0008797    4.3197917  
C   -1.2321768   -0.0002324    3.5801400  
O   -2.4392816   -0.0001146    4.2172520  
C   -1.1911209    0.0000007    2.1655264  
O   -2.4371527    0.0002320    1.5732860  
C    0.0000000    0.0000000    1.4700000  
H    3.0031534    0.0000661    0.8477417  
H    2.7054629    0.0071099    5.0445261  
H   -0.1193549   -0.0014844    5.3997470  
H   -3.1132988    0.0000648    3.5251786  
H   -2.3200282    0.0004071    0.6183591  
H    4.3686625   -0.0004071    3.1724291  
