62

C    9.1102922    0.0461631   -3.4939252  
C    9.8302593    0.0499303   -2.3217045  
C   11.2106143    0.0634265   -2.6809256  
C   11.2718804    0.0676846   -4.0980193  
N    9.9791659    0.0550083   -4.5599132  
C   12.4793364    0.0808140   -4.8027631  
C   13.6461993    0.0901156   -4.0634912  
O   14.8530254    0.1034294   -4.7009913  
C   13.6056432    0.0856871   -2.6488702  
O   14.8518262    0.0957594   -2.0570360  
C   12.4148185    0.0724628   -1.9529606  
H    9.4120155    0.0426105   -1.3297312  
H    9.7081469    0.0651266   -5.5265712  
H   12.5327964    0.0839784   -5.8827326  
H   15.5272563    0.1078081   -4.0091391  
H   14.7350422    0.0919528   -1.1020747  
H   12.4151999    0.0691850   -0.8692322  
C    5.6407192    0.0090256   -0.6742907  
C    6.9070544    0.0223577   -1.2115840  
C    6.7574901    0.0227123   -2.6301152  
C    5.3654026    0.0094663   -2.9018574  
N    4.7161325   -0.0005435   -1.6923264  
C    4.8484274    0.0063845   -4.2009017  
C    5.7532356    0.0171721   -5.2446364  
O    5.3026533    0.0150907   -6.5330403  
C    7.1459671    0.0300857   -4.9937383  
O    7.9168102    0.0393579   -6.1378797  
C    7.6566886    0.0328601   -3.7124572  
H    7.8256169    0.0296846   -0.6501721  
H    3.7885252   -0.0038343   -4.4146884  
H    6.0871919    0.0235245   -7.0966824  
H    8.8436755    0.0478287   -5.8800963  
H    5.3238920    0.0041396    0.3545706  
C    3.2573665   -0.0002920   -1.5109385  
C    2.5379463   -0.0001709   -0.3591964  
C    1.1435038    0.0000331   -0.7338500  
C    1.1092599   -0.0000083   -2.2088477  
N    2.4227553    0.0001909   -2.6182613  
C   -0.0265539   -0.0002524   -2.9515660  
C   -1.3003040   -0.0002640   -2.2514977  
O   -2.3786790   -0.0004133   -2.8306421  
C   -1.2877727    0.0000311   -0.6895603  
O   -2.3539959    0.0003306   -0.0892030  
C    0.0000000    0.0000000    0.0000000  
H    2.9384091   -0.0000367    0.6389234  
H   -0.0296303   -0.0004086   -4.0327229  
H    2.7280482   -0.0013407   -3.5742119  
C    0.0000000    0.0000000    1.4700000  
C    1.0662921    0.0000102    2.3034270  
C    0.4961870   -0.0000064    3.6418889  
C   -0.9663858    0.0000850    3.4240247  
N   -1.2632773    0.0000084    2.1528658  
C   -1.8985362    0.0000517    4.5177257  
C   -1.3925775   -0.0004564    5.7720543  
O   -2.1456383   -0.0005410    6.8851312  
C    0.0786232   -0.0009323    6.0245000  
O    0.4683759   -0.0012588    7.1921102  
C    1.0143166   -0.0008442    4.8859032  
H    2.1107198   -0.0000632    2.0421868  
H   -2.9622183    0.0003270    4.3293377  
H   -1.5042274   -0.0009692    7.6184419  
H    2.0724152   -0.0013148    5.1109744  
