62

C   -4.8484366    3.7087370    1.6048342  
C   -3.9665820    3.0748255    0.7604665  
C   -2.6560987    3.4955706    1.1349083  
C   -2.8023073    4.3934799    2.2231676  
N   -4.1461811    4.5020125    2.4817042  
C   -1.7129090    5.0063457    2.8495827  
C   -0.4529425    4.7070949    2.3688420  
O    0.6456672    5.2773966    2.9440168  
C   -0.2866741    3.8139463    1.2837350  
O    1.0300799    3.6186950    0.9212721  
C   -1.3609571    3.2091833    0.6651049  
H   -4.5540479    5.0625762    3.2079229  
H   -1.8176631    5.6917103    3.6793442  
H    1.4122805    4.9386225    2.4635998  
H    1.0540483    3.0031127    0.1822946  
H   -1.2025380    2.5295315   -0.1640241  
H   -5.9228802    3.6588862    1.6500433  
C   -4.3329675    2.1450165   -0.3175488  
C   -5.5711461    1.7385426   -0.6826123  
C   -5.3538023    0.8273989   -1.7957513  
C   -3.8860920    0.7997430   -1.9736453  
N   -3.2823486    1.5701202   -1.1099313  
C   -3.2578655    0.0024282   -2.9908505  
C   -4.0594178   -0.7340900   -3.7935896  
O   -3.6090876   -1.5234311   -4.7836320  
C   -5.5440605   -0.7276259   -3.6388183  
O   -6.2117105   -1.4223052   -4.4049024  
C   -6.1645245    0.0985292   -2.5879063  
H   -6.5153538    2.0219323   -0.2499015  
H   -4.4116850   -1.9150023   -5.1730707  
H   -7.2431276    0.0755590   -2.5084194  
C    0.0000000    0.0000000    0.0000000  
C    1.0521666   -0.0011982   -0.8862343  
C    0.4917215   -0.0011996   -2.1979132  
C   -0.9187429    0.0003215   -2.0478682  
N   -1.1833171   -0.0009323   -0.7007913  
C   -1.7951703    0.0010483   -3.1372089  
C   -1.2375841    0.0005313   -4.4010422  
O   -2.0474218    0.0015510   -5.4997578  
C    0.1673576   -0.0013585   -4.5711963  
O    0.5673520   -0.0020735   -5.8915554  
C    1.0325768   -0.0023493   -3.4969892  
H    2.0953056   -0.0030808   -0.6200564  
H   -2.0989778    0.0102529   -0.2891822  
H   -1.4634888    0.0006601   -6.2693595  
H    1.5290707   -0.0033271   -5.9180047  
H    2.1042146   -0.0039770   -3.6584456  
C    3.1301144    0.0010313    3.1728260  
C    2.5367765    0.0002768    1.9564670  
C    1.1089900   -0.0001027    2.2356185  
C    1.0177864    0.0004150    3.7115134  
N    2.1993570    0.0011613    4.2663826  
C   -0.2459220    0.0002880    4.3957118  
C   -1.3675327    0.0000606    3.6398520  
O   -2.6129319   -0.0000866    4.1448486  
C   -1.3083589   -0.0000910    2.1483229  
O   -2.3693264   -0.0004206    1.5241687  
C    0.0000000    0.0000000    1.4700000  
H    3.0096015    0.0001008    0.9892483  
H   -0.2829642    0.0004689    5.4753125  
H   -3.1967446   -0.0002093    3.3649027  
H    4.1849273    0.0015113    3.3971983  
