64

C    6.1522369   -0.7113748    2.8043633  
C    6.0643039   -0.4617481    4.1543341  
C    7.1149308    0.4467299    4.4790657  
C    7.8167513    0.7183486    3.2767353  
N    7.2074045   -0.0023166    2.2797621  
C    8.9182062    1.5777356    3.2216158  
C    9.3182833    2.1740203    4.4016847  
O   10.3876713    3.0222031    4.4046020  
C    8.6310815    1.9152658    5.6114851  
O    9.1510251    2.5844255    6.7001663  
C    7.5445555    1.0673605    5.6666533  
H    5.3335651   -0.8835167    4.8230085  
H    9.4574790    1.7887899    2.3084656  
H   10.4952541    3.3228142    5.3163726  
H    8.6299523    2.3547454    7.4756247  
H    7.0383119    0.8883476    6.6080092  
H    5.5466502   -1.3402204    2.1744614  
C    4.7630507    0.0004755   -1.3275395  
C    5.6985010    0.0014504   -2.3055538  
C    6.9735500    0.0008546   -1.6050193  
C    6.6111493   -0.0004097   -0.1714057  
N    5.3167472   -0.0007180   -0.0025509  
C    7.6066075   -0.0013509    0.8650055  
C    8.9050788   -0.0014318    0.4864462  
O    9.9376478   -0.0022578    1.3465868  
C    9.3027479   -0.0005450   -0.9523098  
O   10.5033617   -0.0005498   -1.2238744  
C    8.2629699    0.0004559   -1.9967163  
H    5.5425456    0.0023600   -3.3708013  
H   10.7311761   -0.0021138    0.7813742  
H    8.5922718    0.0009636   -3.0271486  
C    3.3003548    0.0005276   -1.4738982  
C    2.5232817    0.0003497   -2.6090743  
C    1.1623204   -0.0001319   -2.1820101  
C    1.1711886    0.0000583   -0.7636140  
N    2.4852302   -0.0014919   -0.3662356  
C    0.0000000    0.0000000    0.0000000  
C   -1.2020379    0.0000520   -0.6806479  
O   -2.3759249    0.0003495    0.0157742  
C   -1.2314652   -0.0005112   -2.0955511  
O   -2.5054384   -0.0008036   -2.6250184  
C   -0.0764510   -0.0007271   -2.8495195  
H    2.8919962   -0.0005619   -3.6205297  
H    2.8036267    0.0088181    0.5858667  
H   -3.0835636    0.0000348   -0.6418823  
H   -2.4360038   -0.0011526   -3.5845925  
H   -0.1304090   -0.0013420   -3.9319089  
C    2.5285572    2.1210227    2.9438989  
C    1.9331703    1.6216660    4.0790748  
C    0.8903039    0.7472258    3.6520102  
C    0.8972198    0.7527806    2.2336141  
N    1.9028376    1.5986179    1.8362361  
C    0.0000000    0.0000000    1.4700000  
C   -0.9207814   -0.7726952    2.1506477  
O   -1.8198395   -1.5274828    1.4542253  
C   -0.9436862   -0.7911793    3.5655508  
O   -1.9197945   -1.6098497    4.0950179  
C   -0.0590329   -0.0485852    4.3195194  
H    2.2150357    1.8593692    5.0905303  
H    2.1533708    1.7953814    0.8841339  
H   -2.3621246   -1.9821033    2.1118817  
H   -1.8668290   -1.5649508    5.0545920  
H   -0.1007624   -0.0827977    5.4019087  
H    3.3491200    2.8096064    2.8367138  
