62

C   -0.2017792   -2.6016897   -9.7361264  
C   -0.1205935   -2.0378395  -10.9883040  
C   -0.4115602   -0.6494012  -10.8393838  
C   -0.6642669   -0.4224849   -9.4622220  
N   -0.5304522   -1.6290129   -8.8211282  
C   -0.9853267    0.8381722   -8.9499195  
C   -1.0522062    1.8889564   -9.8440984  
O   -1.3612988    3.1411381   -9.3974252  
C   -0.8037199    1.6824544  -11.2219344  
O   -0.9093450    2.8279162  -11.9835794  
C   -0.4871982    0.4390068  -11.7280742  
H    0.1178118   -2.5628969  -11.8974081  
H   -0.6410788   -1.7772829   -7.8343361  
H   -1.3549392    3.7170116  -10.1730502  
H   -0.7267401    2.6013290  -12.9005938  
H   -0.3022301    0.3114451  -12.7882594  
H   -0.0526447   -3.6209988   -9.4235147  
C    0.9349909   -0.7146101   -5.2228691  
C    0.6097336   -0.4617410   -6.5353978  
C   -0.4828947    0.4551244   -6.5243816  
C   -0.7833239    0.7282808   -5.1653176  
N    0.0950446    0.0004351   -4.4015596  
C   -1.8091177    1.5953279   -4.7770335  
C   -2.5448391    2.1978320   -5.7789723  
O   -3.5578401    3.0536139   -5.4557390  
C   -2.2605101    1.9376654   -7.1406946  
O   -3.0820305    2.6136334   -8.0190537  
C   -1.2488636    1.0822060   -7.5244738  
H    1.0990012   -0.8867809   -7.3950206  
H   -2.0432063    1.8075943   -3.7429410  
H   -3.9355520    3.3576003   -6.2913170  
H   -2.8235063    2.3824765   -8.9164583  
H    1.6987462   -1.3495585   -4.8075647  
C    3.3321173    0.0004713   -1.3379338  
C    2.6974181    0.0000116   -2.5332314  
C    1.2800438   -0.0002119   -2.2052841  
C    1.2395034    0.0000643   -0.7271299  
N    2.4394062    0.0005460   -0.2131038  
C    0.0000000    0.0000000    0.0000000  
C   -1.1468702    0.0000634   -0.7169543  
O   -2.3742203    0.0000074   -0.1695487  
C   -1.1388770    0.0001607   -2.2096355  
O   -2.2206234    0.0000905   -2.7970411  
C    0.1454522    0.0001815   -2.9324241  
H    3.1367984   -0.0000653   -3.5160950  
H   -2.9844346    0.0001026   -0.9290167  
H    4.3940038    0.0007618   -1.1498640  
C    0.8175213    0.6860729    2.3021913  
C    0.0000000    0.0000000    1.4700000  
C   -0.8887526   -0.7456559    2.3478473  
C   -0.4549825   -0.3816753    3.7138435  
N    0.5448156    0.4573574    3.6934124  
C   -1.0945674   -0.9182058    4.8835240  
C   -2.1210866   -1.7789155    4.6970523  
O   -2.8083856   -2.3554314    5.6976972  
C   -2.5824069   -2.1655116    3.3310774  
O   -3.5227682   -2.9541547    3.2362962  
C   -1.9100805   -1.6015804    2.1470656  
H   -0.7567140   -0.6349833    5.8697035  
H   -3.4728268   -2.9124471    5.2533954  
H   -2.2742832   -1.9066565    1.1752040  
H    1.6189533    1.3585343    2.0405121  
