62

C    9.0072401    0.0035744   -0.6035992  
C   10.0593024    0.0056481   -1.4899559  
C   11.2567329    0.0066197   -0.7148712  
C   10.8693091    0.0047610    0.6496159  
N    9.4968670    0.0048892    0.6815514  
C   11.7939659    0.0047768    1.6983287  
C   13.1341397    0.0063974    1.3635000  
O   14.0793446    0.0061381    2.3481832  
C   13.5404409    0.0086400    0.0078709  
O   14.9095533    0.0104801   -0.1620548  
C   12.6287951    0.0088989   -1.0272261  
H    9.9741615    0.0074767   -2.5631479  
H    8.9357270   -0.0067683    1.5139979  
H   11.5051329    0.0035097    2.7403347  
H   14.9369416    0.0077384    1.9034477  
H   15.0989614    0.0119031   -1.1053078  
H   12.9699168    0.0108214   -2.0558710  
C    6.6001506    0.0019432   -4.3713014  
C    7.6333543    0.0021444   -3.4630303  
C    7.0453162    0.0020496   -2.1634877  
C    5.6383364    0.0015001   -2.3433062  
N    5.4022893    0.0033998   -3.6956728  
C    4.7390840    0.0009613   -1.2727298  
C    5.2698382    0.0006706    0.0026046  
O    4.4369620   -0.0002077    1.0839606  
C    6.6708713    0.0015852    0.2024108  
O    7.0428744    0.0015758    1.5309279  
C    7.5585984    0.0023904   -0.8532720  
H    8.6818863    0.0034410   -3.7071040  
H    4.4955245   -0.0070442   -4.1265437  
H    5.0045013    0.0000321    1.8657303  
H    8.0038194    0.0021937    1.5776953  
H    6.6229010    0.0023216   -5.4476104  
C    3.2798077    0.0005856   -1.4499661  
C    2.5571132    0.0005565   -2.5996564  
C    1.1637425    0.0001547   -2.2210366  
C    1.1336959   -0.0000200   -0.7459475  
N    2.4483509   -0.0001429   -0.3402730  
C    0.0000000    0.0000000    0.0000000  
C   -1.2757370   -0.0000187   -0.6964411  
O   -2.3524597   -0.0000640   -0.1142306  
C   -1.2676502   -0.0000874   -2.2584078  
O   -2.3355774   -0.0004102   -2.8557287  
C    0.0181551    0.0001758   -2.9516297  
H    2.9547342    0.0006074   -3.5989118  
H    0.0150776    0.0003317   -4.0331632  
H    2.7563626    0.0012823    0.6148051  
C    2.5128556    2.1077716    2.9199648  
C    1.9592212    1.6432552    4.0696553  
C    0.8915788    0.7479214    3.6910360  
C    0.8684491    0.7287414    2.2159470  
N    1.8754542    1.5738793    1.8102719  
C    0.0000000    0.0000000    1.4700000  
C   -0.9772830   -0.8200135    2.1664417  
O   -1.8021297   -1.5120829    1.5842315  
C   -0.9711318   -0.8147624    3.7284083  
O   -1.7894187   -1.5009653    4.3257297  
C    0.0140216    0.0115358    4.4216297  
H    2.2638494    1.8988021    5.0689105  
H    0.0117648    0.0094386    5.5031631  
H    3.3327358    2.7953732    2.7900019  
H    2.1123206    1.7707734    0.8551938  
