64

C    3.3003554    0.0005273   -1.4738973  
C    2.5232827    0.0003494   -2.6090737  
C    1.1623213   -0.0001321   -2.1820100  
C    1.1711892    0.0000583   -0.7636139  
N    2.4852305   -0.0014921   -0.3662348  
C    0.0000000    0.0000000    0.0000000  
C   -1.2020378    0.0000520   -0.6806488  
O   -2.3759246    0.0003493    0.0157732  
C   -1.2314646   -0.0005114   -2.0955514  
O   -2.5054373   -0.0008039   -2.6250195  
C   -0.0764502   -0.0007275   -2.8495198  
H    2.8036264    0.0088182    0.5858676  
H   -3.0835630    0.0000348   -0.6418832  
H   -2.4360027   -0.0011530   -3.5845934  
H   -0.1304074   -0.0013424   -3.9319089  
H    4.3715557    0.0004892   -1.3667119  
C    5.8913017   -2.0917718   -4.5522438  
C    4.9785007   -1.6292459   -3.6595293  
C    4.1021084   -0.7349694   -4.3785855  
C    4.5825821   -0.7142855   -5.7734001  
N    5.6694235   -1.5569948   -5.8122132  
C    4.0183459    0.0134434   -6.7702714  
C    2.8607109    0.8310489   -6.4478777  
O    2.2818996    1.5221458   -7.2759259  
C    2.3349682    0.8245604   -4.9770422  
O    1.3612145    1.5092060   -4.6936270  
C    3.0267455   -0.0008954   -3.9901689  
H    4.9253058   -1.8851662   -2.6163186  
H    6.7075464   -2.7781460   -4.3956404  
H    6.2158986   -1.7548036   -6.6303110  
C    5.5898054   -3.2367727   -9.4077458  
C    5.0712517   -2.5294715   -8.3478900  
C    4.9655918   -1.1699655   -8.7664343  
C    5.4382488   -1.1078259  -10.1023467  
N    5.8111341   -2.3796383  -10.4602111  
C    5.4785840    0.0818446  -10.8357259  
C    5.0333863    1.2296422  -10.2091980  
O    5.0505785    2.4185450  -10.8794428  
C    4.5584892    1.1879560   -8.8766994  
O    4.1507276    2.4140957   -8.3933198  
C    4.5186650    0.0147180   -8.1525087  
H    4.8032559   -2.9423786   -7.3904566  
H    6.1759142   -2.6469055  -11.3565844  
H    5.8378103    0.1358884  -11.8541745  
H    4.7034439    3.0814698  -10.2684665  
H    3.8449144    2.2979301   -7.4885610  
H    5.8206352   -4.2845967   -9.4957297  
C    2.5311839    2.1237619    3.0120429  
C    1.9795631    1.6616747    1.8395852  
C    0.9223175    0.7739173    2.1983588  
C    0.8753926    0.7337535    3.6154372  
N    1.8668922    1.5631002    4.0777464  
C   -0.0496243   -0.0427881    4.3197917  
C   -0.9437528   -0.7922060    3.5801400  
O   -1.8685244   -1.5680278    4.2172520  
C   -0.9124520   -0.7656372    2.1655264  
O   -1.8671164   -1.5663939    1.5732860  
C    0.0000000    0.0000000    1.4700000  
H    2.3005065    1.9304404    0.8477417  
H    2.0679347    1.7444845    5.0445261  
H   -0.0904770   -0.0778569    5.3997470  
H   -2.3849669   -2.0011402    3.5251786  
H   -1.7775064   -1.4909735    0.6183591  
H    3.3468514    2.8078103    3.1724291  
