62

C    4.0853212   -3.5689133   -5.6056721  
C    4.9898645   -4.3420155   -6.2960215  
C    4.7062144   -4.1753918   -7.6839622  
C    3.6091384   -3.2814709   -7.7801791  
N    3.2555523   -2.9340594   -6.4999842  
C    3.0589499   -2.8883974   -9.0039332  
C    3.6267880   -3.4069448  -10.1514725  
O    3.1288788   -3.0561058  -11.3729522  
C    4.7216349   -4.3004939  -10.0759902  
O    5.1748208   -4.7295005  -11.3064043  
C    5.2647479   -4.6889170   -8.8690597  
H    5.7587667   -4.9519852   -5.8536200  
H    2.2227495   -2.2075468   -9.0840150  
H    3.6616604   -3.5234385  -12.0294646  
H    5.9142751   -5.3287781  -11.1661266  
H    6.1032637   -5.3749711   -8.8426495  
H    3.9654794   -3.4212400   -4.5460547  
C    2.1709843   -2.0097061   -6.1391748  
C    1.7780130   -1.6284992   -4.9015021  
C    0.6718283   -0.7104846   -5.1253424  
C    0.5282247   -0.6514440   -6.5958784  
N    1.4042466   -1.4110426   -7.1955321  
C   -0.4727377    0.1611588   -7.2305732  
C   -1.2932051    0.8817142   -6.4324705  
O   -2.2712225    1.6824660   -6.8888906  
C   -1.1735669    0.8429683   -4.9450744  
O   -1.9541224    1.5247033   -4.2808521  
C   -0.1387079    0.0017019   -4.3179684  
H    2.1880843   -1.9327664   -3.9536948  
H   -0.5549505    0.1854289   -8.3074023  
H   -2.6790395    2.0573116   -6.0874366  
C    3.3041273    0.0001178   -1.5420428  
C    2.5845373   -0.0004780   -0.3695851  
C    1.2040007   -0.0000007   -0.7283589  
C    1.1422374    0.0006038   -2.1454372  
N    2.4348641    0.0026111   -2.6077464  
C   -0.0655179    0.0008799   -2.8497918  
C   -1.2321766    0.0002325   -2.1101402  
O   -2.4392814    0.0001148   -2.7472522  
C   -1.1911209   -0.0000007   -0.6955266  
O   -2.4371528   -0.0002320   -0.1032862  
C    0.0000000    0.0000000    0.0000000  
H    3.0031533   -0.0000660    0.6222584  
H    2.7054631   -0.0071097   -3.5745261  
H   -3.1132988   -0.0000648   -2.0551787  
H   -2.3200282   -0.0004072    0.8516409  
H    4.3686625    0.0004073   -1.7024290  
C    0.8681109    0.7263879    2.2709268  
C    0.6127770    0.5096195    3.5869401  
C   -0.4920590   -0.4175482    3.6542670  
C   -0.8620974   -0.7254003    2.2596025  
N    0.0000000    0.0000000    1.4700000  
C   -1.8641242   -1.5660088    1.8976294  
C   -2.6293522   -2.2103885    2.9520183  
O   -3.5512764   -2.9839180    2.7283916  
C   -2.2549728   -1.8987399    4.4361073  
O   -2.8923672   -2.4351063    5.3323774  
C   -1.1543735   -0.9755647    4.7012123  
H    1.1382914    0.9492124    4.4159191  
H   -2.1192137   -1.7782617    0.8686553  
H   -0.9013378   -0.7652422    5.7314848  
H    1.6172880    1.3558399    1.8188057  
