60

C    0.2053497   -1.1073813   -9.6468973  
C    0.0123499   -0.0076589   -8.8432614  
C   -0.1895598    1.1091500   -9.7073042  
C   -0.1084361    0.6256420  -11.0383062  
N    0.1340724   -0.7236252  -10.9656086  
C   -0.2602473    1.4539385  -12.1544014  
C   -0.4985909    2.7947047  -11.9226341  
O   -0.6549829    3.6479500  -12.9764499  
C   -0.5825711    3.2961387  -10.6019049  
O   -0.8240340    4.6528978  -10.5367655  
C   -0.4326380    2.4796311   -9.5003767  
H    0.2304835   -1.3391933  -11.7528572  
H   -0.1993855    1.0916258  -13.1713708  
H   -0.8094189    4.5234182  -12.5983375  
H   -0.8661490    4.9102114   -9.6106882  
H   -0.5019327    2.8923655   -8.5007140  
H    0.3896345   -2.1348838   -9.3837680  
C    2.5229105   -2.1069160   -5.8790356  
C    1.9659599   -1.6422908   -7.0270794  
C    0.8993073   -0.7471216   -6.6452951  
C    0.8803723   -0.7281568   -5.1701434  
N    1.8886140   -1.5732492   -4.7674571  
C    0.0139741    0.0003876   -4.4216236  
C   -0.9653705    0.8204009   -5.1151637  
O   -1.7886285    1.5123014   -4.5305090  
C   -0.9636626    0.8153757   -6.6771421  
O   -1.7837158    1.5015804   -7.2720336  
C    0.0195995   -0.0107212   -7.3732829  
H    2.2677703   -1.8976623   -8.0272341  
H    3.3432281   -2.7944520   -5.7515055  
H    2.1282171   -1.7702570   -3.8130851  
C    3.2798085    0.0005853   -1.4499648  
C    2.5571144    0.0005562   -2.5996554  
C    1.1637436    0.0001546   -2.2210360  
C    1.1336965   -0.0000201   -0.7459470  
N    2.4483513   -0.0001430   -0.3402717  
C    0.0000000    0.0000000    0.0000000  
C   -1.2757367   -0.0000188   -0.6964414  
O   -2.3524597   -0.0000640   -0.1142313  
C   -1.2676494   -0.0000875   -2.2584081  
O   -2.3355762   -0.0004102   -2.8557294  
C    0.0181562    0.0001757   -2.9516296  
H    2.9547357    0.0006072   -3.5989105  
H    4.3498550    0.0008609   -1.3200021  
H    2.7563627    0.0012824    0.6148063  
C    2.5128556    2.1077716    2.9199648  
C    1.9592212    1.6432552    4.0696553  
C    0.8915788    0.7479214    3.6910360  
C    0.8684491    0.7287414    2.2159470  
N    1.8754542    1.5738793    1.8102719  
C    0.0000000    0.0000000    1.4700000  
C   -0.9772830   -0.8200135    2.1664417  
O   -1.8021297   -1.5120829    1.5842315  
C   -0.9711318   -0.8147624    3.7284083  
O   -1.7894187   -1.5009653    4.3257297  
C    0.0140216    0.0115358    4.4216297  
H    2.2638494    1.8988021    5.0689105  
H    0.0117648    0.0094386    5.5031631  
H    3.3327358    2.7953732    2.7900019  
H    2.1123206    1.7707734    0.8551938  
