60

C    0.9407939   -0.7075072   -5.2230667  
C    0.6134854   -0.4569313   -6.5355259  
C   -0.4865820    0.4509916   -6.5242557  
C   -0.7892287    0.7213088   -5.1651160  
N    0.0950450    0.0004357   -4.4015596  
C   -1.8220586    1.5798549   -4.7765919  
C   -2.5626678    2.1766203   -5.7783637  
O   -3.5826128    3.0240229   -5.4548932  
C   -2.2762265    1.9191613   -7.1401584  
O   -3.1032315    2.5886548   -8.0183305  
C   -1.2576383    1.0720866   -7.5241744  
H    1.1062029   -0.8777272   -7.3952668  
H   -2.0578699    1.7899159   -3.7424409  
H   -3.9627903    3.3251533   -6.2903879  
H   -2.8428304    2.3598639   -8.9157990  
H   -1.0618897    0.8940609   -8.5751109  
H    1.7097005   -1.3363231   -4.8079380  
C    3.3321174    0.0004722   -1.3379336  
C    2.6974183    0.0000122   -2.5332313  
C    1.2800441   -0.0002113   -2.2052840  
C    1.2395036    0.0000646   -0.7271298  
N    2.4394063    0.0005463   -0.2131037  
C    0.0000000    0.0000000    0.0000000  
C   -1.1468699    0.0000637   -0.7169543  
O   -2.3742201    0.0000076   -0.1695489  
C   -1.1388769    0.0001611   -2.2096357  
O   -2.2206234    0.0000908   -2.7970412  
C    0.1454523    0.0001820   -2.9324241  
H    3.1367987   -0.0000643   -3.5160945  
H   -2.9844345    0.0001025   -0.9290168  
C    5.7851536    0.0009364   -1.9873448  
C    4.7795905    0.0008679   -1.0815729  
C    5.4416660    0.0014227    0.2138638  
C    6.8854806    0.0016742   -0.1054853  
N    7.0929844    0.0014718   -1.3942566  
C    7.8916467    0.0022763    0.9205338  
C    7.4744107    0.0030008    2.2070982  
O    8.3032750    0.0036101    3.2649373  
C    6.0244009    0.0031412    2.5615462  
O    5.7170393    0.0036916    3.7534978  
C    5.0115688    0.0024706    1.4909880  
H    8.9395974    0.0022419    0.6584118  
H    7.7145754    0.0040691    4.0412008  
H    3.9717458    0.0027123    1.7893140  
H    5.7099336    0.0006300   -3.0631305  
C    2.5128556    2.1077716    2.9199648  
C    1.9592212    1.6432552    4.0696553  
C    0.8915788    0.7479214    3.6910360  
C    0.8684491    0.7287414    2.2159470  
N    1.8754542    1.5738793    1.8102719  
C    0.0000000    0.0000000    1.4700000  
C   -0.9772830   -0.8200135    2.1664417  
O   -1.8021297   -1.5120829    1.5842315  
C   -0.9711318   -0.8147624    3.7284083  
O   -1.7894187   -1.5009653    4.3257297  
C    0.0140216    0.0115358    4.4216297  
H    2.2638494    1.8988021    5.0689105  
H    0.0117648    0.0094386    5.5031631  
H    3.3327358    2.7953732    2.7900019  
H    2.1123206    1.7707734    0.8551938  
