62

C   -0.0432822    0.0795050   -8.8377871  
C    0.9706875   -0.5890246   -9.4838516  
C    0.9073957   -0.2133881  -10.8584396  
C   -0.1742268    0.6943878  -10.9924612  
N   -0.7309214    0.8486814   -9.7471100  
C   -0.5300811    1.2715680  -12.2151715  
C    0.2198033    0.9262944  -13.3227087  
O   -0.0841482    1.4609220  -14.5412324  
C    1.3024955    0.0220188  -13.2092181  
O    1.9509092   -0.2212874  -14.4024101  
C    1.6539519   -0.5479759  -12.0033542  
H    1.6692582   -1.2652037   -9.0214951  
H   -1.5108540    1.4422740   -9.5295471  
H   -1.3534296    1.9639983  -12.3239827  
H    0.5527551    1.0928465  -15.1674425  
H    2.6679804   -0.8412677  -14.2379797  
H    2.4881469   -1.2375110  -11.9473350  
C    1.5647267   -2.0539609   -5.3222409  
C    1.3415395   -1.5772682   -6.5740504  
C    0.2114932   -0.6825507   -6.4885492  
C   -0.2083729   -0.6770016   -5.0741686  
N    0.6518899   -1.5286397   -4.4202948  
C   -1.2456329    0.0471727   -4.5828766  
C   -1.9989040    0.8763046   -5.5089745  
O   -2.9500475    1.5652087   -5.1639551  
C   -1.5719694    0.8855374   -7.0114550  
O   -2.1988659    1.5795068   -7.8005473  
C   -0.4365506    0.0629998   -7.4214647  
H    1.9041938   -1.8243657   -7.4566468  
H    2.3191293   -2.7449950   -4.9827726  
H    0.6225289   -1.7350433   -3.4386725  
C    1.1243410    0.0099923   -0.7919003  
C    0.7474076    0.0234544   -2.1148543  
C   -0.6787381    0.0234490   -2.1414700  
C   -1.1201745    0.0098592   -0.7935546  
N    0.0000000    0.0000000    0.0000000  
C   -2.4730816    0.0063709   -0.4408240  
C   -3.3971958    0.0170982   -1.4675058  
O   -4.7313517    0.0146259   -1.1793471  
C   -2.9763648    0.0303504   -2.8186324  
O   -4.0166480    0.0395118   -3.7247624  
C   -1.6418562    0.0335260   -3.1673481  
H    1.4178717    0.0310972   -2.9571209  
H   -2.8160166   -0.0041111    0.5845966  
H   -5.1938818    0.0230867   -2.0274384  
H   -3.6464675    0.0482293   -4.6127343  
H    2.1062467    0.0052819   -0.3505407  
C    0.8681109    0.7263879    2.2709268  
C    0.6127770    0.5096195    3.5869401  
C   -0.4920590   -0.4175482    3.6542670  
C   -0.8620974   -0.7254003    2.2596025  
N    0.0000000    0.0000000    1.4700000  
C   -1.8641242   -1.5660088    1.8976294  
C   -2.6293522   -2.2103885    2.9520183  
O   -3.5512764   -2.9839180    2.7283916  
C   -2.2549728   -1.8987399    4.4361073  
O   -2.8923672   -2.4351063    5.3323774  
C   -1.1543735   -0.9755647    4.7012123  
H    1.1382914    0.9492124    4.4159191  
H   -2.1192137   -1.7782617    0.8686553  
H   -0.9013378   -0.7652422    5.7314848  
H    1.6172880    1.3558399    1.8188057  
