64

C   -0.1830257    0.1780071   -8.7683087  
C    0.8119254   -0.4628886   -9.4695878  
C    0.6968639   -0.0474271  -10.8292758  
C   -0.3952831    0.8550447  -10.8977270  
N   -0.9081835    0.9680130   -9.6293461  
C   -0.7987152    1.4650902  -12.0893119  
C   -0.0864698    1.1587458  -13.2325690  
O   -0.4375815    1.7265593  -14.4230819  
C    1.0059878    0.2603870  -13.1845632  
O    1.6130435    0.0576585  -14.4067455  
C    1.4043716   -0.3420161  -12.0094347  
H    1.5313670   -1.1466770   -9.0526580  
H   -1.6840395    1.5485483   -9.3666519  
H   -1.6303288    2.1536822  -12.1481582  
H    0.1791276    1.3823138  -15.0821948  
H    2.3399229   -0.5610244  -14.2864067  
H    2.2449163   -1.0260696  -12.0036225  
C    1.6071931   -2.0691457   -5.4061220  
C    0.7600336   -1.6164453   -4.4213122  
C   -0.1612455   -0.7224870   -5.0431507  
C    0.1755314   -0.6690406   -6.4199772  
N    1.2548209   -1.4967874   -6.6059504  
C   -0.5252820    0.1165513   -7.3400284  
C   -1.5855711    0.8615301   -6.8615194  
O   -2.3042728    1.6457775   -7.7167616  
C   -1.9367273    0.8217439   -5.4911462  
O   -3.0155709    1.6195944   -5.1704051  
C   -1.2456329    0.0471727   -4.5828766  
H    0.8017170   -1.8952901   -3.3823217  
H    1.7089811   -1.6697419   -7.4844757  
H   -2.9880777    2.0738669   -7.1853338  
H   -3.1866799    1.5350661   -4.2274413  
H    2.4357999   -2.7539198   -5.3473447  
C    1.1243410    0.0099923   -0.7919003  
C    0.7474076    0.0234544   -2.1148543  
C   -0.6787381    0.0234490   -2.1414700  
C   -1.1201745    0.0098592   -0.7935546  
N    0.0000000    0.0000000    0.0000000  
C   -2.4730816    0.0063709   -0.4408240  
C   -3.3971958    0.0170982   -1.4675058  
O   -4.7313517    0.0146259   -1.1793471  
C   -2.9763648    0.0303504   -2.8186324  
O   -4.0166480    0.0395118   -3.7247624  
C   -1.6418562    0.0335260   -3.1673481  
H    1.4178717    0.0310972   -2.9571209  
H   -2.8160166   -0.0041111    0.5845966  
H   -5.1938818    0.0230867   -2.0274384  
H   -3.6464675    0.0482293   -4.6127343  
H    2.1062467    0.0052819   -0.3505407  
C    2.4951002    2.0940188    2.9809380  
C    1.9440701    1.6314916    1.8291961  
C    0.8759964    0.7350050    2.2038498  
C    0.8497377    0.7130254    3.6788474  
N    1.8560616    1.5571714    4.0882609  
C   -0.0205033   -0.0168748    4.4215661  
C   -0.9962600   -0.8356168    3.7214979  
O   -1.8224391   -1.5286685    4.3006425  
C   -0.9864710   -0.8277881    2.1595606  
O   -1.8030528   -1.5133726    1.5592035  
C    0.0000000    0.0000000    1.4700000  
H    2.2509283    1.8888011    0.8310761  
H   -0.0229599   -0.0187323    5.5027230  
H    3.3143982    2.7817323    3.1139444  
H    2.0889452    1.7545833    5.0442112  
