60

C   10.9120677    2.1254115   -2.7181724  
C   11.9418381    1.6262231   -1.9547246  
C   11.3591638    0.7510854   -0.9907614  
C    9.9588742    0.7560606   -1.2167887  
N    9.7212672    1.6022380   -2.2713718  
C    9.0661420    0.0025169   -0.4486803  
C    9.5966905   -0.7703593    0.5658928  
O    8.7700602   -1.5258830    1.3462005  
C   10.9910655   -0.7882731    0.8071718  
O   11.3637210   -1.6072140    1.8530235  
C   11.8723302   -0.0449263    0.0499836  
H   12.9845867    1.8644834   -2.0767927  
H    8.8192244    1.7987353   -2.6659468  
H    9.3362312   -1.9805046    1.9834081  
H   12.3199309   -1.5618943    1.9490052  
H   12.9352834   -0.0787146    0.2584679  
H   10.9326453    2.8143610   -3.5451443  
C    6.8068812    0.0035022   -4.1747019  
C    5.5278581    0.0022330   -3.7323476  
C    5.6328267    0.0014349   -2.2813200  
C    7.0869584    0.0022985   -2.0128347  
N    7.7802401    0.0035921   -3.1188854  
C    7.6138018    0.0019125   -0.6758521  
C    6.7282252    0.0011070    0.3464433  
O    7.0793813    0.0006615    1.6436439  
C    5.2547112    0.0005945    0.1078690  
O    4.5071908   -0.0002588    1.0858431  
C    4.7390840    0.0009613   -1.2727298  
H    4.6247032    0.0019722   -4.3183399  
H    6.2347357    0.0001390    2.1291604  
H    7.1567941    0.0044018   -5.1947674  
C    3.2798077    0.0005856   -1.4499661  
C    2.5571132    0.0005565   -2.5996564  
C    1.1637425    0.0001547   -2.2210366  
C    1.1336959   -0.0000200   -0.7459475  
N    2.4483509   -0.0001429   -0.3402730  
C    0.0000000    0.0000000    0.0000000  
C   -1.2757370   -0.0000187   -0.6964411  
O   -2.3524597   -0.0000640   -0.1142306  
C   -1.2676502   -0.0000874   -2.2584078  
O   -2.3355774   -0.0004102   -2.8557287  
C    0.0181551    0.0001758   -2.9516297  
H    2.9547342    0.0006074   -3.5989118  
H    0.0150776    0.0003317   -4.0331632  
H    2.7563626    0.0012823    0.6148051  
C    2.4951002    2.0940188    2.9809380  
C    1.9440701    1.6314916    1.8291961  
C    0.8759964    0.7350050    2.2038498  
C    0.8497377    0.7130254    3.6788474  
N    1.8560616    1.5571714    4.0882609  
C   -0.0205033   -0.0168748    4.4215661  
C   -0.9962600   -0.8356168    3.7214979  
O   -1.8224391   -1.5286685    4.3006425  
C   -0.9864710   -0.8277881    2.1595606  
O   -1.8030528   -1.5133726    1.5592035  
C    0.0000000    0.0000000    1.4700000  
H    2.2509283    1.8888011    0.8310761  
H   -0.0229599   -0.0187323    5.5027230  
H    3.3143982    2.7817323    3.1139444  
H    2.0889452    1.7545833    5.0442112  
