62

C    6.7584072   -2.0028679   -1.9571496  
C    7.3357225   -2.8424882   -1.0329139  
C    8.7416500   -2.8220377   -1.2728089  
C    8.9648405   -1.9446272   -2.3647169  
N    7.7395606   -1.4660164   -2.7574475  
C   10.2395138   -1.6822135   -2.8757314  
C   11.3083788   -2.3168711   -2.2733055  
O   12.5747500   -2.0961485   -2.7322135  
C   11.1059057   -3.1960786   -1.1829774  
O   12.2700755   -3.7505003   -0.6923970  
C    9.8486638   -3.4556339   -0.6785012  
H    6.8082875   -3.4018435   -0.2793045  
H    7.5836155   -0.8135011   -3.5043651  
H   10.4162844   -1.0146482   -3.7077838  
H   13.1619489   -2.6286757   -2.1800562  
H   12.0450028   -4.3307960    0.0412268  
H    9.7246296   -4.1339729    0.1575315  
C    4.2912324   -2.1143351   -1.4466314  
C    5.3462901   -1.6515578   -2.1654949  
C    4.8141498   -0.7557115   -3.1650558  
C    3.3521068   -0.7343357   -2.9681712  
N    3.0997464   -1.5788209   -1.9117392  
C    2.4861704   -0.0045255   -3.7159919  
C    3.0304435    0.8144036   -4.7863461  
O    2.3328584    1.5073002   -5.5154346  
C    4.5758857    0.8068263   -5.0129664  
O    5.0456364    1.4920998   -5.9112955  
C    5.4069285   -0.0204565   -4.1418624  
H    6.4760576   -0.0199704   -4.3052231  
H    4.2838598   -2.8017030   -0.6163546  
H    2.1903280   -1.7742809   -1.5351741  
C    0.0000000    0.0000000    0.0000000  
C    1.0521669   -0.0011848   -0.8862341  
C    0.4917221   -0.0011931   -2.1979130  
C   -0.9187427    0.0003100   -2.0478683  
N   -1.1833170   -0.0009472   -0.7007915  
C   -1.7951698    0.0010259   -3.1372090  
C   -1.2375835    0.0005161   -4.4010425  
O   -2.0474208    0.0015256   -5.4997580  
C    0.1673584   -0.0013557   -4.5711962  
O    0.5673529   -0.0020659   -5.8915551  
C    1.0325773   -0.0023359   -3.4969890  
H    2.0953059   -0.0030542   -0.6200560  
H   -2.0989777    0.0102265   -0.2891825  
H   -2.8710930    0.0020274   -3.0295514  
H   -1.4634881    0.0006427   -6.2693593  
H    1.5290715   -0.0033076   -5.9180042  
C    0.0000000    0.0000000    1.4700000  
C    1.0541688    0.0001722    2.3260392  
C    0.5103138    0.0000454    3.6635956  
C   -0.9576371   -0.0002459    3.5155732  
N   -1.2018458    0.0001392    2.1615969  
C   -1.8348311   -0.0008317    4.5510609  
C   -1.2972847   -0.0009736    5.9014604  
O   -2.0050672   -0.0014265    6.9001319  
C    0.2542623   -0.0004184    6.0817573  
O    0.7184670   -0.0002256    7.2139121  
C    1.0974552   -0.0000873    4.8889129  
H    2.0940752    0.0005483    2.0517982  
H   -2.9081052   -0.0011668    4.4207061  
H    2.1707277    0.0000911    5.0223670  
H   -2.1128194   -0.0014912    1.7406791  
