60

C    2.4521484    0.0014842   -3.7217481  
C    3.5379004    0.0014492   -2.8769939  
C    4.7042702    0.0016044   -3.6980792  
C    4.2640495    0.0020180   -5.0464607  
N    2.8914061   -0.0000175   -5.0249744  
C    5.1472048    0.0025712   -6.1303547  
C    6.4993920    0.0030164   -5.8479207  
O    7.4055692    0.0039157   -6.8686330  
C    6.9581309    0.0022390   -4.5091249  
O    8.3328180    0.0023940   -4.3925944  
C    6.0874477    0.0014198   -3.4393422  
H    3.4945812    0.0002216   -1.8013009  
H    2.2982886    0.0103119   -5.8349658  
H    4.8180484    0.0027443   -7.1603345  
H    8.2798218    0.0037914   -6.4575998  
H    8.5587830    0.0018623   -3.4574242  
H    6.4683334    0.0006542   -2.4247469  
C    0.0000000    0.0000000    0.0000000  
C    1.0662922   -0.0000101   -0.8334266  
C    0.4961875    0.0000066   -2.1718886  
C   -0.9663853   -0.0000848   -1.9540248  
N   -1.2632772   -0.0000083   -0.6828658  
C   -1.8985359   -0.0000514   -3.0477260  
C   -1.3925768    0.0004568   -4.3020543  
O   -2.1456378    0.0005413   -5.4151314  
C    0.0786238    0.0009327   -4.5544999  
O    0.4683768    0.0012594   -5.7221098  
C    1.0143171    0.0008446   -3.4159030  
H    2.1107199    0.0000634   -0.5721863  
H   -1.5042266    0.0009697   -6.1484425  
C   -4.3991017    2.0926373   -0.0704360  
C   -3.3610087    1.6305297   -0.8140049  
C   -3.9159989    0.7341917   -1.8006148  
C   -5.3729679    0.7118421   -1.5692446  
N   -5.6007879    1.5556538   -0.5067147  
C   -6.2559167   -0.0180486   -2.2968197  
C   -5.7365712   -0.8363892   -3.3799326  
O   -6.4507761   -1.5293998   -4.0926377  
C   -4.1968640   -0.8281646   -3.6426859  
O   -3.7479699   -1.5134094   -4.5516382  
C   -3.3460091   -0.0004261   -2.7913651  
H   -2.3247239    1.8880236   -0.6858470  
H   -7.3209340   -0.0201811   -2.1106907  
H   -4.3873331    2.7801298    0.7596877  
H   -6.5015168    1.7527689   -0.1106336  
C    1.0672568    0.0000697    2.3021913  
C    0.0000000    0.0000000    1.4700000  
C   -1.1601224    0.0000736    2.3478473  
C   -0.5938729    0.0000769    3.7138435  
N    0.7113367    0.0001554    3.6934124  
C   -1.4286986    0.0001879    4.8835240  
C   -2.7683114    0.0006799    4.6970523  
O   -3.6653903    0.0008304    5.6976972  
C   -3.3702025    0.0010610    3.3310774  
O   -4.5974910    0.0013779    3.2362962  
C   -2.4926826    0.0008943    2.1470656  
H   -0.9878360   -0.0000190    5.8697035  
H   -4.5324246    0.0012261    5.2533954  
H   -2.9677772    0.0012974    1.1752040  
H    2.1134392    0.0000545    2.0405121  
