62

C   -3.3002999   -0.0190264   -1.4738986  
C   -2.5232400   -0.0144931   -2.6090748  
C   -1.1623027   -0.0063832   -2.1820101  
C   -1.1711699   -0.0066231   -0.7636139  
N   -2.4851996   -0.0124381   -0.3662358  
C    0.0000000    0.0000000    0.0000000  
C    1.2020195    0.0066854   -0.6806484  
O    2.3758894    0.0129678    0.0157741  
C    1.2314432    0.0074135   -2.0955511  
O    2.5053945    0.0148466   -2.6250181  
C    0.0764461    0.0011555   -2.8495196  
H   -2.8035333   -0.0245325    0.5858668  
H    3.0835151    0.0172487   -0.6418816  
H    2.4359593    0.0148064   -3.5845924  
H    0.1303994    0.0020727   -3.9319085  
H   -4.3714837   -0.0249924   -1.3667135  
C   -3.0267013   -0.0160703   -3.9901700  
C   -4.3102815   -0.0231540   -4.4333932  
C   -4.2574287   -0.0214464   -5.8763202  
C   -2.8275876   -0.0127540   -6.2400100  
N   -2.1344312   -0.0094480   -5.0515604  
C   -2.3581035   -0.0091773   -7.5133034  
C   -3.3256279   -0.0139997   -8.5979274  
O   -3.0026977   -0.0112691   -9.7786087  
C   -4.8450626   -0.0229654   -8.2359285  
O   -5.6689374   -0.0267780   -9.1406256  
C   -5.2287079   -0.0264235   -6.8264406  
H   -5.1933526   -0.0287353   -3.8195791  
H   -6.2827572   -0.0328405   -6.5842376  
H   -1.1343995   -0.0051502   -4.9681014  
C    0.0546650   -0.7218588   -7.1831554  
C    1.2772467   -0.4976401   -7.7300511  
C    1.0869760    0.4291995   -8.8207398  
C   -0.3570220    0.7287400   -8.8647366  
N   -0.9264060   -0.0006700   -7.8465754  
C   -0.9415979    1.5666026   -9.7580235  
C   -0.0918968    2.2165872  -10.7419255  
O   -0.5231829    2.9882236  -11.5886080  
C    1.4402016    1.9137707  -10.7139771  
O    2.1655109    2.4549099  -11.5376004  
C    1.9532593    0.9928447   -9.7027801  
H    2.2063094   -0.9320941   -7.4064682  
H   -2.0028207    1.7727348   -9.7730392  
H    3.0152697    0.7886491   -9.6900581  
H   -0.2121866   -1.3534407   -6.3514199  
C    2.5311839    2.1237619    3.0120429  
C    1.9795631    1.6616747    1.8395852  
C    0.9223175    0.7739173    2.1983588  
C    0.8753926    0.7337535    3.6154372  
N    1.8668922    1.5631002    4.0777464  
C   -0.0496243   -0.0427881    4.3197917  
C   -0.9437528   -0.7922060    3.5801400  
O   -1.8685244   -1.5680278    4.2172520  
C   -0.9124520   -0.7656372    2.1655264  
O   -1.8671164   -1.5663939    1.5732860  
C    0.0000000    0.0000000    1.4700000  
H    2.3005065    1.9304404    0.8477417  
H    2.0679347    1.7444845    5.0445261  
H   -0.0904770   -0.0778569    5.3997470  
H   -2.3849669   -2.0011402    3.5251786  
H   -1.7775064   -1.4909735    0.6183591  
H    3.3468514    2.8078103    3.1724291  
