60

C    2.2211337    2.1226896   -8.0441629  
C    2.5239425    1.6240169   -9.2899960  
C    3.6392049    0.7495154   -9.1286353  
C    3.9759458    0.7543294   -7.7507719  
N    3.0964552    1.5998041   -7.1212591  
C    5.0313853    0.0012894   -7.2275447  
C    5.7599712   -0.7709082   -8.1113152  
O    6.8009246   -1.5259198   -7.6537265  
C    5.4395894   -0.7886508   -9.4896689  
O    6.2584636   -1.6068936  -10.2401792  
C    4.3986783   -0.0458004  -10.0065860  
H    2.0055451    1.8622044  -10.2029713  
H    3.0839152    1.7960322   -6.1367195  
H    7.1678368   -1.9801134   -8.4233673  
H    5.9747214   -1.5615026  -11.1583482  
H    4.1770769   -0.0794421  -11.0668869  
H    1.4509281    2.8110899   -7.7411012  
C    2.5562217   -0.0001551   -3.6003001  
C    3.5357958   -0.0006720   -2.6598164  
C    4.7960229   -0.0006609   -3.3645605  
C    4.4679970   -0.0000616   -4.8030278  
N    3.0942340   -0.0001761   -4.8782995  
C    5.3873315    0.0005227   -5.8012902  
C    6.7937409    0.0003382   -5.4344817  
O    7.6974453    0.0007629   -6.2600838  
C    7.1641096   -0.0005465   -3.9170389  
O    8.3448915   -0.0010156   -3.5960816  
C    6.0844249   -0.0008436   -2.9331010  
H    3.3919675   -0.0012036   -1.5940179  
H    6.3492934   -0.0012512   -1.8844982  
H    2.5641257    0.0016995   -5.7303728  
C    0.0000000    0.0000000    0.0000000  
C    1.0541688   -0.0001722   -0.8560390  
C    0.5103141   -0.0000453   -2.1935955  
C   -0.9576367    0.0002460   -2.0455731  
N   -1.2018459   -0.0001392   -0.6915969  
C   -1.8348307    0.0008318   -3.0810611  
C   -1.2972843    0.0009738   -4.4314606  
O   -2.0050665    0.0014267   -5.4301321  
C    0.2542628    0.0004186   -4.6117570  
O    0.7184676    0.0002258   -5.7439117  
C    1.0974555    0.0000874   -3.4189127  
H    2.0940752   -0.0005483   -0.5817978  
H   -2.9081051    0.0011670   -2.9507061  
H   -2.1128194    0.0014912   -0.2706792  
C    0.0000000    0.0000000    1.4700000  
C    1.0662921    0.0000102    2.3034270  
C    0.4961870   -0.0000064    3.6418889  
C   -0.9663858    0.0000850    3.4240247  
N   -1.2632773    0.0000084    2.1528658  
C   -1.8985362    0.0000517    4.5177257  
C   -1.3925775   -0.0004564    5.7720543  
O   -2.1456383   -0.0005410    6.8851312  
C    0.0786232   -0.0009323    6.0245000  
O    0.4683759   -0.0012588    7.1921102  
C    1.0143166   -0.0008442    4.8859032  
H    2.1107198   -0.0000632    2.0421868  
H   -2.9622183    0.0003270    4.3293377  
H   -1.5042274   -0.0009692    7.6184419  
H    2.0724152   -0.0013148    5.1109744  
