64

C    0.4472244   -0.6064683   -9.6524981  
C    1.1934113   -0.5333578  -10.8058968  
C    1.1424700    0.8213194  -11.2495797  
C    0.3440608    1.5343383  -10.3189494  
N   -0.0635682    0.6371974   -9.3631281  
C    0.0778522    2.9013692  -10.4420291  
C    0.6278988    3.5606845  -11.5241244  
O    0.4001258    4.8959184  -11.6922998  
C    1.4269030    2.8665513  -12.4635863  
O    1.9017014    3.6627228  -13.4853587  
C    1.6897182    1.5178858  -12.3429412  
H    1.7098973   -1.3555331  -11.2709371  
H   -0.5299815    3.4505518   -9.7362404  
H    0.8681020    5.1534776  -12.4972393  
H    2.4311579    3.1172361  -14.0750412  
H    2.3051789    1.0131332  -13.0784077  
H    0.2377723   -1.4476477   -9.0141369  
C    0.1064602   -0.7138164   -5.1554290  
C   -0.9736297    0.0040464   -4.6965763  
C   -1.4912368    0.7334041   -5.8077561  
C   -0.6795017    0.4177975   -6.9273114  
N    0.2821069   -0.4618991   -6.4959642  
C   -0.8998165    0.9585815   -8.1976665  
C   -1.9590511    1.8336792   -8.3405059  
O   -2.2193131    2.3905114   -9.5592009  
C   -2.7800678    2.1612308   -7.2353098  
O   -3.7933074    3.0470067   -7.5387754  
C   -2.5631427    1.6283213   -5.9817240  
H    0.9955161   -0.8703461   -7.0723321  
H   -2.9888538    2.9621237   -9.4394877  
H   -4.3001589    3.2151089   -6.7384962  
H   -3.2086828    1.8980377   -5.1540712  
H    0.7663125   -1.3844907   -4.6322180  
C    1.1188642    0.0008222   -0.8003808  
C    0.0000000    0.0000000    0.0000000  
C   -1.1323862    0.0008899   -0.8673528  
C   -0.6382663    0.0019679   -2.1969280  
N    0.7324016    0.0038481   -2.1202242  
C   -1.4770914    0.0027318   -3.3154808  
C   -2.8395473    0.0020945   -3.0876857  
O   -3.7039201    0.0024425   -4.1440349  
C   -3.3517868    0.0013931   -1.7684331  
O   -4.7300497    0.0012366   -1.7073121  
C   -2.5248543    0.0009123   -0.6644817  
H    1.3576314   -0.0056167   -2.9057046  
H   -4.5940032    0.0021826   -3.7685128  
H   -4.9934602    0.0007259   -0.7819913  
H   -2.9462577    0.0005603    0.3339659  
H    2.1619895    0.0009355   -0.5342068  
C    0.0000000    0.0000000    1.4700000  
C    1.0541688    0.0001722    2.3260392  
C    0.5103138    0.0000454    3.6635956  
C   -0.9576371   -0.0002459    3.5155732  
N   -1.2018458    0.0001392    2.1615969  
C   -1.8348311   -0.0008317    4.5510609  
C   -1.2972847   -0.0009736    5.9014604  
O   -2.0050672   -0.0014265    6.9001319  
C    0.2542623   -0.0004184    6.0817573  
O    0.7184670   -0.0002256    7.2139121  
C    1.0974552   -0.0000873    4.8889129  
H    2.0940752    0.0005483    2.0517982  
H   -2.9081052   -0.0011668    4.4207061  
H    2.1707277    0.0000911    5.0223670  
H   -2.1128194   -0.0014912    1.7406791  
