62

C   -3.3003048   -0.0180813   -1.4738990  
C   -2.5232434   -0.0137704   -2.6090748  
C   -1.1623041   -0.0060503   -2.1820101  
C   -1.1711715   -0.0062876   -0.7636139  
N   -2.4852029   -0.0117264   -0.3662359  
C    0.0000000    0.0000000    0.0000000  
C    1.2020219    0.0063413   -0.6806473  
O    2.3758929    0.0122874    0.0157751  
C    1.2314458    0.0070609   -2.0955504  
O    2.5053993    0.0141292   -2.6250173  
C    0.0764470    0.0011336   -2.8495193  
H   -2.8919567   -0.0148199   -3.6205303  
H   -2.8035400   -0.0237297    0.5858662  
H    3.0835203    0.0163658   -0.6418815  
H    2.4359652    0.0141089   -3.5845914  
H    0.1304016    0.0020356   -3.9319084  
C   -5.6726170   -0.0298386   -2.3740990  
C   -6.9487381   -0.0344181   -1.9098047  
C   -6.8721345   -0.0329309   -0.4679428  
C   -5.4364862   -0.0270381   -0.1278415  
N   -4.7629802   -0.0258089   -1.3275409  
C   -4.9461003   -0.0236820    1.1375498  
C   -5.8956468   -0.0262567    2.2379541  
O   -5.5533209   -0.0236523    3.4131595  
C   -7.4208477   -0.0327446    1.9010189  
O   -8.2297224   -0.0352658    2.8191569  
C   -7.8276502   -0.0356372    0.4980380  
H   -3.8892082   -0.0192401    1.3652972  
H   -8.8855550   -0.0399240    0.2732204  
H   -5.3201639   -0.0292852   -3.3927578  
C   -7.9649571   -2.1497150   -5.6214291  
C   -9.2299920   -1.6904591   -5.8026622  
C   -9.5140292   -0.7952539   -4.7059553  
C   -8.3020750   -0.7704167   -3.8649198  
N   -7.4007440   -1.6124900   -4.4743494  
C   -8.1694305   -0.0400901   -2.7288154  
C   -9.2955541    0.7757812   -2.3060450  
O   -9.2744361    1.4688690   -1.2973403  
C  -10.5891676    0.7645125   -3.1813981  
O  -11.5438569    1.4471924   -2.8353117  
C  -10.6126136   -0.0629938   -4.3849492  
H   -9.8890233   -1.9494079   -6.6121291  
H  -11.5119879   -0.0650730   -4.9856534  
H   -7.3974694   -2.8355945   -6.2292260  
H   -6.4748807   -1.8053464   -4.1387429  
C    2.5311839    2.1237619    3.0120429  
C    1.9795631    1.6616747    1.8395852  
C    0.9223175    0.7739173    2.1983588  
C    0.8753926    0.7337535    3.6154372  
N    1.8668922    1.5631002    4.0777464  
C   -0.0496243   -0.0427881    4.3197917  
C   -0.9437528   -0.7922060    3.5801400  
O   -1.8685244   -1.5680278    4.2172520  
C   -0.9124520   -0.7656372    2.1655264  
O   -1.8671164   -1.5663939    1.5732860  
C    0.0000000    0.0000000    1.4700000  
H    2.3005065    1.9304404    0.8477417  
H    2.0679347    1.7444845    5.0445261  
H   -0.0904770   -0.0778569    5.3997470  
H   -2.3849669   -2.0011402    3.5251786  
H   -1.7775064   -1.4909735    0.6183591  
H    3.3468514    2.8078103    3.1724291  
