64

C    3.3248309    1.0019794   -2.9707419  
C    4.3171847    1.8273395   -3.4466429  
C    3.7620853    2.5596925   -4.5375709  
C    2.4162880    2.1354709   -4.6817650  
N    2.1840425    1.1878619   -3.7159923  
C    1.5624041    2.6490165   -5.6625516  
C    2.0763695    3.6085065   -6.5130785  
O    1.2858803    4.1438477   -7.4885534  
C    3.4166974    4.0444021   -6.3852803  
O    3.7793073    5.0044027   -7.3073733  
C    4.2597240    3.5380182   -5.4181153  
H    5.3183677    1.8926410   -3.0563057  
H    0.5357515    2.3297783   -5.7777591  
H    1.8325269    4.7843146   -7.9620979  
H    4.6981326    5.2436398   -7.1520342  
H    3.3409473    0.2943667   -2.1595802  
C    0.0000000    0.0000000    0.0000000  
C    0.9239538    0.5033534   -0.8862337  
C    0.4321091    0.2346765   -2.1979126  
C   -0.8064419   -0.4401612   -2.0478675  
N   -1.0380301   -0.5680971   -0.7007906  
C   -1.5759412   -0.8596801   -3.1372081  
C   -1.0863568   -0.5928286   -4.4010418  
O   -1.7975576   -0.9801676   -5.4997571  
C    0.1475237    0.0790377   -4.5711959  
O    0.4989009    0.2701658   -5.8915548  
C    0.9073132    0.4929513   -3.4969889  
H    1.8403134    1.0017791   -0.6200562  
H   -1.8469743   -0.9972457   -0.2891814  
H   -2.5206556   -1.3745833   -3.0295503  
H   -1.2846727   -0.7010140   -6.2693586  
H    1.3435042    0.7301105   -5.9180046  
C    6.7462522    3.2343936   -5.0555203  
C    5.6458973    4.0170626   -5.3184183  
C    6.1137837    5.3560902   -5.4690419  
C    7.5200845    5.3286472   -5.2860379  
N    7.8710440    4.0254459   -5.0348198  
C    8.3155694    6.4756967   -5.3652246  
C    7.6798577    7.6721998   -5.6343511  
O    8.4088440    8.8227436   -5.7229087  
C    6.2776459    7.7199661   -5.8196512  
O    5.7941608    8.9856027   -6.0799375  
C    5.4922204    6.5888113   -5.7414052  
H    8.8060938    3.6967742   -4.8747000  
H    9.3878482    6.4614775   -5.2265940  
H    7.7797418    9.5305569   -5.9139494  
H    4.8402785    8.9296770   -6.1921181  
H    4.4205435    6.6564479   -5.8877345  
H    6.8175579    2.1746914   -4.8797194  
C    1.0965515   -0.0001358    2.2710304  
C    0.0000000    0.0000000    1.4700000  
C   -1.1546562   -0.0001469    2.3369512  
C   -0.6372014   -0.0003519    3.7186280  
N    0.7342871   -0.0007337    3.6095011  
C   -1.4147739   -0.0001353    4.8308716  
C   -2.8576048    0.0001048    4.6554461  
O   -3.6427778    0.0002493    5.5944904  
C   -3.4275839    0.0000726    3.2011665  
O   -4.6406829   -0.0000333    3.0410059  
C   -2.4891866    0.0001091    2.0816745  
H   -1.0150448   -0.0001615    5.8354244  
H   -2.8919121    0.0002919    1.0779135  
H    2.1388271   -0.0000662    1.9961646  
H    1.3735872    0.0006099    4.3830260  
