60

C    7.0941059   -2.9361411   -4.5384154  
C    7.5539872   -3.6348668   -3.4462806  
C    8.6874142   -4.3849924   -3.8790111  
C    8.8732007   -4.1011928   -5.2562792  
N    7.8876432   -3.2196434   -5.6252807  
C    9.9026037   -4.6687525   -6.0132437  
C   10.7602582   -5.5384163   -5.3680392  
O   11.7828786   -6.1205356   -6.0597042  
C   10.5909732   -5.8344074   -3.9945230  
O   11.5258168   -6.7187379   -3.4971599  
C    9.5755017   -5.2750730   -3.2472024  
H    7.1246104   -3.6081441   -2.4594094  
H    7.7714808   -2.8299877   -6.5432426  
H   10.0494931   -4.4566534   -7.0633102  
H   12.2526667   -6.6831739   -5.4304176  
H   11.3403747   -6.8647036   -2.5644706  
H    9.4707439   -5.5209034   -2.1969306  
C    5.9578470   -2.0116383   -4.6613364  
C    5.0861939   -1.6298118   -3.6990431  
C    4.1732077   -0.7119468   -4.3627297  
C    4.6536430   -0.6536620   -5.7600017  
N    5.6994882   -1.4135389   -5.9410642  
C    4.0070656    0.1585847   -6.7536207  
C    2.9292841    0.8795215   -6.3689497  
O    2.2294977    1.6800090   -7.1908744  
C    2.4200484    0.8415393   -4.9663106  
O    1.4341935    1.5235886   -4.6868117  
C    3.1006054    0.0006263   -3.9654951  
H    5.0652943   -1.9335816   -2.6663948  
H    4.3797396    0.1823022   -7.7672580  
H    1.5255996    2.0552509   -6.6315231  
C    3.2798083    0.0005857   -1.4499652  
C    2.5571142    0.0005565   -2.5996556  
C    1.1637432    0.0001548   -2.2210361  
C    1.1336964   -0.0000200   -0.7459473  
N    2.4483512   -0.0001428   -0.3402723  
C    0.0000000    0.0000000    0.0000000  
C   -1.2757368   -0.0000186   -0.6964415  
O   -2.3524598   -0.0000639   -0.1142311  
C   -1.2676497   -0.0000872   -2.2584083  
O   -2.3355766   -0.0004101   -2.8557295  
C    0.0181558    0.0001758   -2.9516296  
H    0.0150788    0.0003319   -4.0331631  
H    4.3498547    0.0008612   -1.3200026  
H    2.7563626    0.0012823    0.6148059  
C    2.5528530    2.1414826    2.8079335  
C    2.0663498    1.7338582    4.0032312  
C    0.9804344    0.8229586    3.6752840  
C    0.9495562    0.7966882    2.1971295  
N    1.8690446    1.5676019    1.6831036  
C    0.0000000    0.0000000    1.4700000  
C   -0.8785127   -0.7372425    2.1869543  
O   -1.8187535   -1.5261249    1.6395491  
C   -0.8723269   -0.7321790    3.6796354  
O   -1.7010379   -1.4274584    4.2670412  
C    0.1115397    0.0933559    4.4024240  
H    2.4028853    2.0163452    4.9860947  
H   -2.2861435   -1.9184361    2.3990168  
H    0.0832434    0.0693689    5.4835595  
H    3.3664920    2.8238276    2.6198634  
