64

C    7.1885347   -5.6466216   -0.9707569  
C    6.2864301   -4.6601730   -1.2957101  
C    7.0304776   -3.4551754   -1.4659304  
C    8.3931670   -3.7706383   -1.2303746  
N    8.4536771   -5.1089073   -0.9303881  
C    9.4146498   -2.8194647   -1.3118117  
C    9.0539694   -1.5263408   -1.6372612  
O   10.0115004   -0.5581287   -1.7306142  
C    7.6996301   -1.1919576   -1.8755216  
O    7.5019908    0.1370920   -2.1884266  
C    6.6913557   -2.1297426   -1.7950927  
H    5.2227969   -4.7925546   -1.3964661  
H    9.2931104   -5.6206437   -0.7267778  
H   10.4551169   -3.0534787   -1.1332963  
H    9.5518701    0.2588162   -1.9642936  
H    6.5616108    0.2786490   -2.3342025  
H    7.0294369   -6.6909206   -0.7631831  
C    4.1863608   -2.1478772   -1.3903806  
C    5.2964345   -1.7420569   -2.0496413  
C    4.8117016   -0.8307213   -3.0748248  
C    3.3454828   -0.8022507   -2.8851476  
N    2.9730514   -1.5723544   -1.8991330  
C    2.4861704   -0.0045255   -3.7159919  
C    3.0653208    0.7316068   -4.6917118  
O    2.3851028    1.5212588   -5.5401180  
C    4.5422559    0.7243200   -4.9079754  
O    5.0006617    1.4186843   -5.8151378  
C    5.4023453   -0.1022439   -4.0425491  
H    3.0670362    1.9124160   -6.1155441  
H    6.4672339   -0.0798685   -4.2316053  
H    4.1206068   -2.8299028   -0.5576195  
C    0.0000000    0.0000000    0.0000000  
C    1.0521669   -0.0011848   -0.8862341  
C    0.4917221   -0.0011931   -2.1979130  
C   -0.9187427    0.0003100   -2.0478683  
N   -1.1833170   -0.0009472   -0.7007915  
C   -1.7951698    0.0010259   -3.1372090  
C   -1.2375835    0.0005161   -4.4010425  
O   -2.0474208    0.0015256   -5.4997580  
C    0.1673584   -0.0013557   -4.5711962  
O    0.5673529   -0.0020659   -5.8915551  
C    1.0325773   -0.0023359   -3.4969890  
H    2.0953059   -0.0030542   -0.6200560  
H   -2.0989777    0.0102265   -0.2891825  
H   -2.8710930    0.0020274   -3.0295514  
H   -1.4634881    0.0006427   -6.2693593  
H    1.5290715   -0.0033076   -5.9180042  
C    3.3003543   -0.0005276    2.9438989  
C    2.5232812   -0.0003497    4.0790748  
C    1.1623199    0.0001319    3.6520102  
C    1.1711883   -0.0000583    2.2336141  
N    2.4852299    0.0014920    1.8362361  
C    0.0000000    0.0000000    1.4700000  
C   -1.2020384   -0.0000520    2.1506477  
O   -2.3759250   -0.0003494    1.4542253  
C   -1.2314658    0.0005113    3.5655508  
O   -2.5054393    0.0008037    4.0950179  
C   -0.0764518    0.0007272    4.3195194  
H    2.8919952    0.0005619    5.0905303  
H    2.8036267   -0.0088181    0.8841339  
H   -3.0835639   -0.0000348    2.1118817  
H   -2.4360050    0.0011527    5.0545920  
H   -0.1304098    0.0013421    5.4019087  
H    4.3715549   -0.0004895    2.8367138  
