62

C   -3.8466128    0.7096510   -8.0004940  
C   -5.0539650    0.4592761   -8.6104792  
C   -4.7995067   -0.4493585   -9.6801678  
C   -3.4072144   -0.7202974   -9.6738228  
N   -2.8583697    0.0009056   -8.6426812  
C   -2.7997741   -1.5796306  -10.5943398  
C   -3.6126993   -2.1765581  -11.5382715  
O   -3.0715452   -3.0247196  -12.4606536  
C   -5.0039938   -1.9184875  -11.5609999  
O   -5.6772748   -2.5882376  -12.5617363  
C   -5.6038864   -1.0706361  -10.6533640  
H   -6.0013545    0.8806594   -8.3208548  
H   -1.7391721   -1.7901677  -10.5949037  
H   -3.8021016   -3.3258322  -13.0164250  
H   -6.6100378   -2.3589974  -12.5069041  
H   -6.6719880   -0.8921547  -10.6955696  
H   -3.6119915    1.3388317   -7.1590408  
C   -0.8712823    0.0001712   -4.7267111  
C    0.4246872    0.0002195   -5.1323438  
C    0.4138924    0.0002758   -6.5761999  
C   -1.0047702    0.0002857   -6.9813996  
N   -1.7322698   -0.0001786   -5.8136522  
C   -1.4369659    0.0007305   -8.2678326  
C   -0.4382364    0.0010073   -9.3238038  
O   -0.7266369    0.0013504  -10.5133939  
C    1.0700316    0.0007501   -8.9176841  
O    1.9199265    0.0006730   -9.7979910  
C    1.4124573    0.0005497   -7.4976147  
H    1.2895156    0.0000338   -4.4930590  
H    2.4590211    0.0005778   -7.2248003  
H   -2.7343169    0.0012690   -5.7593665  
C    1.0965515    0.0001358   -0.8010304  
C    0.0000000    0.0000000    0.0000000  
C   -1.1546562    0.0001470   -0.8669514  
C   -0.6372012    0.0003520   -2.2486282  
N    0.7342873    0.0007338   -2.1395014  
C   -1.4147737    0.0001354   -3.3608717  
C   -2.8576047   -0.0001047   -3.1854463  
O   -3.6427778   -0.0002491   -4.1244908  
C   -3.4275837   -0.0000725   -1.7311667  
O   -4.6406828    0.0000333   -1.5710061  
C   -2.4891866   -0.0001090   -0.6116745  
H   -2.8919121   -0.0002919    0.3920865  
H    2.1388272    0.0000662   -0.5261647  
H    1.3735873   -0.0006098   -2.9130261  
C    0.8576279    0.7185626    2.2703808  
C    0.0000000    0.0000000    1.4700000  
C   -0.8668858   -0.7285659    2.3373528  
C   -0.4876752   -0.4117774    3.6669281  
N    0.5635254    0.4678311    3.5902241  
C   -1.1297612   -0.9515493    4.7854808  
C   -2.1738724   -1.8268314    4.5576857  
O   -2.8357962   -2.3827064    5.6140350  
C   -2.5667212   -2.1555554    3.2384331  
O   -3.6226318   -3.0413663    3.1773122  
C   -1.9335634   -1.6236449    2.1344818  
H    1.0363952    0.8769718    4.3757045  
H   -0.8454472   -0.7142436    5.8013813  
H   -3.5178062   -2.9546422    5.2385129  
H   -3.8247440   -3.2102924    2.2519915  
H   -2.2566033   -1.8942483    1.1360343  
H    1.6567807    1.3889844    2.0042067  
