60

C    1.2937694   -1.1437881   -9.4951906  
C    0.8239920   -0.0604686   -8.7893617  
C    0.9291606    1.0734719   -9.6482669  
C    1.4742348    0.6168377  -10.8755833  
N    1.6855964   -0.7335955  -10.7480131  
C    1.7165683    1.4673978  -11.9584546  
C    1.4026557    2.8032090  -11.7995666  
O    1.6187320    3.6774604  -12.8252414  
C    0.8583711    3.2779719  -10.5825331  
O    0.5997149    4.6331237  -10.5804985  
C    0.6192909    2.4394910   -9.5137414  
H    2.0557083   -1.3331974  -11.4631876  
H    2.1319373    1.1256169  -12.8964603  
H    1.3355420    4.5451326  -12.5086777  
H    0.2344525    4.8717568   -9.7230360  
H    0.2017166    2.8320308   -8.5939469  
H    1.3816753   -2.1763569   -9.2035864  
C    1.9957414   -2.1407950   -5.0258942  
C    1.9855628   -1.7332340   -6.3163859  
C    0.8551751   -0.8225482   -6.4132068  
C    0.2799738   -0.7963197   -5.0512087  
N    0.9444052   -1.5670716   -4.2336130  
C   -0.8712826    0.0001710   -4.7267111  
C   -1.4226083    0.7372644   -5.7177045  
O   -2.4987599    1.5259552   -5.5567518  
C   -0.8649829    0.7322382   -7.1023305  
O   -1.4179254    1.4273749   -7.9545398  
C    0.3165529   -0.0930927   -7.4101075  
H    2.6616911   -2.0156333   -7.1051684  
H   -2.6523123    1.9181962   -6.4352288  
H    2.6823202   -2.8229904   -4.5502975  
C    1.0965514    0.0001359   -0.8010305  
C    0.0000000    0.0000000    0.0000000  
C   -1.1546563    0.0001470   -0.8669513  
C   -0.6372014    0.0003519   -2.2486282  
N    0.7342871    0.0007337   -2.1395014  
C   -1.4147739    0.0001352   -3.3608717  
C   -2.8576049   -0.0001048   -3.1854462  
O   -3.6427779   -0.0002494   -4.1244907  
C   -3.4275840   -0.0000725   -1.7311666  
O   -4.6406831    0.0000333   -1.5710060  
C   -2.4891867   -0.0001091   -0.6116744  
H   -2.8919122   -0.0002918    0.3920866  
H    2.1388272    0.0000663   -0.5261648  
H    1.3735872   -0.0006099   -2.9130262  
C    2.4951002    2.0940188    2.9809380  
C    1.9440701    1.6314916    1.8291961  
C    0.8759964    0.7350050    2.2038498  
C    0.8497377    0.7130254    3.6788474  
N    1.8560616    1.5571714    4.0882609  
C   -0.0205033   -0.0168748    4.4215661  
C   -0.9962600   -0.8356168    3.7214979  
O   -1.8224391   -1.5286685    4.3006425  
C   -0.9864710   -0.8277881    2.1595606  
O   -1.8030528   -1.5133726    1.5592035  
C    0.0000000    0.0000000    1.4700000  
H    2.2509283    1.8888011    0.8310761  
H   -0.0229599   -0.0187323    5.5027230  
H    3.3143982    2.7817323    3.1139444  
H    2.0889452    1.7545833    5.0442112  
