62

C    2.7237194   -3.2455726   -8.8073034  
C    3.0547254   -3.1998263  -10.1417732  
C    2.8615057   -1.8539055  -10.5727751  
C    2.4082144   -1.1177790   -9.4482429  
N    2.3337833   -1.9933445   -8.3935105  
C    2.1155364    0.2481428   -9.5064362  
C    2.2838040    0.8825706  -10.7219048  
O    2.0128508    2.2155765  -10.8345644  
C    2.7347769    0.1651474  -11.8553710  
O    2.8513797    0.9380518  -12.9921934  
C    3.0234420   -1.1824408  -11.7987587  
H    3.3926965   -4.0341638  -10.7322391  
H    1.7695597    0.8148631   -8.6530132  
H    2.1938007    2.4543147  -11.7530012  
H    3.1609425    0.3778005  -13.7104501  
H    3.3669615   -1.7053733  -12.6836391  
H    2.7335579   -4.0726723   -8.1182691  
C    2.4782020   -2.1081877   -5.8783644  
C    1.9212515   -1.6438940   -7.0265418  
C    0.8545983   -0.7486149   -6.6450159  
C    0.8356633   -0.7292244   -5.1698703  
N    1.8439055   -1.5742005   -4.7669395  
C   -0.0307352   -0.0004646   -4.4215603  
C   -1.0100801    0.8193483   -5.1153371  
O   -1.8333382    1.5114172   -4.5308821  
C   -1.0083720    0.8138723   -6.6773144  
O   -1.8284254    1.4999049   -7.2724040  
C   -0.0251097   -0.0124250   -7.3732162  
H   -0.0304434   -0.0104840   -8.4547392  
H    3.2985195   -2.7956863   -5.7506359  
H    2.0835082   -1.7709325   -3.8125110  
C    3.2573670   -0.0002920   -1.5109380  
C    2.5379468   -0.0001709   -0.3591961  
C    1.1435043    0.0000332   -0.7338500  
C    1.1092609   -0.0000082   -2.2088477  
N    2.4227562    0.0001909   -2.6182613  
C   -0.0265532   -0.0002522   -2.9515663  
C   -1.3003035   -0.0002639   -2.2514981  
O   -2.3786784   -0.0004131   -2.8306429  
C   -1.2877725    0.0000312   -0.6895608  
O   -2.3539958    0.0003307   -0.0892036  
C    0.0000000    0.0000000    0.0000000  
H    2.9384091   -0.0000369    0.6389239  
H    4.3270394   -0.0004765   -1.6439446  
H    2.7280494   -0.0013406   -3.5742113  
C    0.8676693    0.7151171    2.2619005  
C    0.5875920    0.4624972    3.5848544  
C   -0.5048400   -0.4542819    3.6114698  
C   -0.8517165   -0.7276451    2.2635546  
N    0.0000000    0.0000000    1.4700000  
C   -1.8902865   -1.5946756    1.9108239  
C   -2.5912627   -2.1969500    2.9375057  
O   -3.6148162   -3.0527051    2.6493466  
C   -2.2603868   -1.9365747    4.2886322  
O   -3.0513550   -2.6123276    5.1947621  
C   -1.2361111   -1.0811317    4.6373480  
H    1.1060808    0.8876438    4.4271209  
H   -2.1597133   -1.8070987    0.8854031  
H   -3.9636755   -3.3565188    3.4974381  
H   -2.7621927   -2.3810384    6.0827341  
H   -1.0058879   -0.9010589    5.6809233  
H    1.6167816    1.3499334    1.8205408  
