62

C    1.1243403    0.0100071   -0.7919005  
C    0.7474063    0.0234641   -2.1148547  
C   -0.6787396    0.0234399   -2.1414694  
C   -1.1201751    0.0098444   -0.7935542  
N    0.0000000    0.0000000    0.0000000  
C   -2.4730821    0.0063381   -0.4408232  
C   -3.3971966    0.0170530   -1.4675050  
O   -4.7313526    0.0145634   -1.1793451  
C   -2.9763665    0.0303112   -2.8186312  
O   -4.0166498    0.0394585   -3.7247610  
C   -1.6418581    0.0335043   -3.1673475  
H   -2.8160161   -0.0041484    0.5845973  
H   -5.1938834    0.0230181   -2.0274363  
H   -3.6464700    0.0481814   -4.6127333  
H   -1.3497493    0.0435688   -4.2109226  
H    2.1062462    0.0053096   -0.3505414  
C    4.4933197   -2.1126525   -2.7414616  
C    4.8571183   -1.6937521   -3.9758651  
C    3.8033290   -0.7789764   -4.3872210  
C    2.8586066   -0.7630355   -3.2497547  
N    3.2578298   -1.5428581   -2.2820322  
C    1.6628931    0.0339120   -3.2649305  
C    1.4221061    0.7812715   -4.3662068  
O    0.3456096    1.5716373   -4.5162629  
C    2.3565579    0.7867817   -5.5302219  
O    2.0740526    1.4909726   -6.4995136  
C    3.5764102   -0.0392394   -5.4905466  
H    5.7325101   -1.9711769   -4.5378265  
H    0.4529351    1.9720177   -5.3979256  
H    5.0127321   -2.8009846   -2.0938636  
C    5.1242059   -1.0230820   -7.2442587  
C    4.4612771    0.0040176   -6.6635941  
C    4.8134934    1.1729148   -7.4548727  
C    5.7217285    0.6551808   -8.5006476  
N    5.9075432   -0.6314667   -8.3823241  
C    6.2989759    1.5121420   -9.4993916  
C    5.9829455    2.8265029   -9.4556398  
O    6.4489587    3.7398218  -10.3243863  
C    5.0690101    3.3792908   -8.4128985  
O    4.8253643    4.5857054   -8.4334264  
C    4.4896615    2.4798504   -7.3993460  
H    6.9597069    1.1068113  -10.2517553  
H    6.0495560    4.5809767  -10.0378752  
H    3.8321984    2.9192983   -6.6612023  
H    5.1255457   -2.0615914   -6.9536210  
C    2.5311839    2.1237619    3.0120429  
C    1.9795631    1.6616747    1.8395852  
C    0.9223175    0.7739173    2.1983588  
C    0.8753926    0.7337535    3.6154372  
N    1.8668922    1.5631002    4.0777464  
C   -0.0496243   -0.0427881    4.3197917  
C   -0.9437528   -0.7922060    3.5801400  
O   -1.8685244   -1.5680278    4.2172520  
C   -0.9124520   -0.7656372    2.1655264  
O   -1.8671164   -1.5663939    1.5732860  
C    0.0000000    0.0000000    1.4700000  
H    2.3005065    1.9304404    0.8477417  
H    2.0679347    1.7444845    5.0445261  
H   -0.0904770   -0.0778569    5.3997470  
H   -2.3849669   -2.0011402    3.5251786  
H   -1.7775064   -1.4909735    0.6183591  
H    3.3468514    2.8078103    3.1724291  
