60

C    3.2622112   -5.3134404   -8.2066444  
C    2.6141533   -4.3923324   -7.4166756  
C    2.7045998   -3.1347757   -8.0837358  
C    3.4248566   -3.3523094   -9.2861650  
N    3.7500495   -4.6853746   -9.3286504  
C    3.7033398   -2.3285107  -10.1966994  
C    3.2461409   -1.0621006   -9.8879070  
O    3.4899798   -0.0258569  -10.7421650  
C    2.5260632   -0.8250637   -8.6928679  
O    2.1391646    0.4889362   -8.5283775  
C    2.2512038   -1.8345385   -7.7940135  
H    2.1360995   -4.6009103   -6.4748936  
H    4.2538703   -5.1364775  -10.0707073  
H    4.2519136   -2.4877578  -11.1148007  
H    3.0907594    0.7575877  -10.3420350  
H    1.6591040    0.5629613   -7.6979173  
H    3.4162895   -6.3684618   -8.0578220  
C    1.7720687   -2.0859334   -5.3149826  
C    0.8968265   -1.6247192   -4.3847637  
C   -0.0065337   -0.7270828   -5.0652227  
C    0.4171838   -0.7029980   -6.4782598  
N    1.5002591   -1.5471467   -6.5634087  
C   -0.1857669    0.0284587   -7.4494066  
C   -1.3281510    0.8467741   -7.0781197  
O   -1.9388960    1.5411248   -7.8800975  
C   -1.7940048    0.8367264   -5.5872531  
O   -2.7544406    1.5219332   -5.2627294  
C   -1.0641734    0.0073898   -4.6315339  
H    0.8854567   -1.8836208   -3.3409941  
H    0.1408064    0.0318495   -8.4800607  
H    2.5929127   -2.7739333   -5.1934849  
C    1.1319248    0.0015675   -0.8009270  
C    0.7969916    0.0034959   -2.1169404  
C   -0.6453336    0.0035703   -2.1842672  
C   -1.1266831    0.0015415   -0.7896027  
N    0.0000000    0.0000000    0.0000000  
C   -2.4346129    0.0013924   -0.4276297  
C   -3.4350110    0.0031352   -1.4820184  
O   -4.6384610    0.0030897   -1.2583919  
C   -2.9478958    0.0050460   -2.9661075  
O   -3.7809377    0.0062160   -3.8623775  
C   -1.5113821    0.0053068   -3.2312125  
H    1.4821240    0.0045436   -2.9459192  
H   -2.7664565    0.0000185    0.6013447  
H    2.1104318    0.0009428   -0.3488058  
C    0.8681109    0.7263879    2.2709268  
C    0.6127770    0.5096195    3.5869401  
C   -0.4920590   -0.4175482    3.6542670  
C   -0.8620974   -0.7254003    2.2596025  
N    0.0000000    0.0000000    1.4700000  
C   -1.8641242   -1.5660088    1.8976294  
C   -2.6293522   -2.2103885    2.9520183  
O   -3.5512764   -2.9839180    2.7283916  
C   -2.2549728   -1.8987399    4.4361073  
O   -2.8923672   -2.4351063    5.3323774  
C   -1.1543735   -0.9755647    4.7012123  
H    1.1382914    0.9492124    4.4159191  
H   -2.1192137   -1.7782617    0.8686553  
H   -0.9013378   -0.7652422    5.7314848  
H    1.6172880    1.3558399    1.8188057  
