60

C    8.3841389    0.7138654   -3.6981521  
C    9.6505049    0.4655837   -4.1747441  
C   10.2671327   -0.4432834   -3.2646176  
C    9.3207740   -0.7165145   -2.2439925  
N    8.1892491    0.0036057   -2.5367315  
C    9.5886709   -1.5766866   -1.1748228  
C   10.8345002   -2.1721126   -1.1354102  
O   11.1486058   -3.0210033   -0.1137768  
C   11.7922650   -1.9117484   -2.1442291  
O   12.9855293   -2.5802161   -1.9636359  
C   11.5287595   -1.0630680   -3.1991382  
H   10.0777201    0.8884753   -5.0678536  
H    8.8717449   -1.7889693   -0.3936979  
H   12.0525156   -3.3208174   -0.2760179  
H   13.5759753   -2.3494505   -2.6873241  
H   12.2822921   -0.8828216   -3.9568836  
H    7.6050084    1.3425135   -4.0940270  
C    5.6664810    0.0014066   -2.2647026  
C    4.7390840    0.0009613   -1.2727298  
C    5.4604950    0.0006395   -0.0219694  
C    6.8944812    0.0009655   -0.3690621  
N    6.9515096    0.0010264   -1.7437030  
C    7.9048599    0.0011995    0.5369400  
C    7.5567537    0.0008993    1.9480947  
O    8.3942799    0.0010144    2.8407592  
C    6.0443616    0.0002997    2.3385747  
O    5.7391072   -0.0002635    3.5235134  
C    5.0461778    0.0003722    1.2720471  
H    8.9502793    0.0015672    0.2612451  
H    4.0011828    0.0001604    1.5508123  
H    5.5192864    0.0017637   -3.3325147  
C    3.2798077    0.0005856   -1.4499661  
C    2.5571132    0.0005565   -2.5996564  
C    1.1637425    0.0001547   -2.2210366  
C    1.1336959   -0.0000200   -0.7459475  
N    2.4483509   -0.0001429   -0.3402730  
C    0.0000000    0.0000000    0.0000000  
C   -1.2757370   -0.0000187   -0.6964411  
O   -2.3524597   -0.0000640   -0.1142306  
C   -1.2676502   -0.0000874   -2.2584078  
O   -2.3355774   -0.0004102   -2.8557287  
C    0.0181551    0.0001758   -2.9516297  
H    2.9547342    0.0006074   -3.5989118  
H    0.0150776    0.0003317   -4.0331632  
H    2.7563626    0.0012823    0.6148051  
C    2.5128556    2.1077716    2.9199648  
C    1.9592212    1.6432552    4.0696553  
C    0.8915788    0.7479214    3.6910360  
C    0.8684491    0.7287414    2.2159470  
N    1.8754542    1.5738793    1.8102719  
C    0.0000000    0.0000000    1.4700000  
C   -0.9772830   -0.8200135    2.1664417  
O   -1.8021297   -1.5120829    1.5842315  
C   -0.9711318   -0.8147624    3.7284083  
O   -1.7894187   -1.5009653    4.3257297  
C    0.0140216    0.0115358    4.4216297  
H    2.2638494    1.8988021    5.0689105  
H    0.0117648    0.0094386    5.5031631  
H    3.3327358    2.7953732    2.7900019  
H    2.1123206    1.7707734    0.8551938  
