62

C    8.7600214   -0.0052203   -3.0533668  
C    9.8864852   -0.0067736   -2.2637185  
C   11.0105253   -0.0084215   -3.1418574  
C   10.5037187   -0.0074927   -4.4666487  
N    9.1338453   -0.0075002   -4.3768467  
C   11.3318120   -0.0083509   -5.5931696  
C   12.6963832   -0.0098734   -5.3784092  
O   13.5506174   -0.0104131   -6.4429735  
C   13.2212080   -0.0111943   -4.0641138  
O   14.5999919   -0.0130566   -4.0161719  
C   12.4048681   -0.0106219   -2.9523077  
H    9.8967744   -0.0078301   -1.1872025  
H    8.5011502    0.0036240   -5.1563044  
H   10.9517832   -0.0077946   -6.6054840  
H   14.4442489   -0.0117868   -6.0759778  
H   14.8722364   -0.0138287   -3.0934119  
H   12.8357958   -0.0118486   -1.9579346  
C    6.6962559   -0.0006582    0.9128043  
C    7.6449136   -0.0016132   -0.0834457  
C    6.9440364   -0.0023812   -1.3257702  
C    5.5585247   -0.0015568   -1.0219874  
N    5.4432390   -0.0024701    0.3459766  
C    4.5679461   -0.0016854   -2.0086701  
C    4.9836054   -0.0023571   -3.3260176  
O    4.0581867   -0.0021607   -4.3293196  
C    6.3614227   -0.0035602   -3.6491825  
O    6.6142428   -0.0045343   -5.0054365  
C    7.3392016   -0.0037074   -2.6763133  
H    8.7109485   -0.0028459    0.0667588  
H    4.5782209    0.0083750    0.8554935  
H    4.5542211   -0.0030158   -5.1583030  
H    7.5672638   -0.0052860   -5.1371686  
H    6.8142882   -0.0002735    1.9828635  
C    3.1301149   -0.0010311   -1.7028252  
C    2.5367768   -0.0002767   -0.4864665  
C    1.1089904    0.0001028   -0.7656183  
C    1.0177872   -0.0004148   -2.2415132  
N    2.1993578   -0.0011611   -2.7963820  
C   -0.2459209   -0.0002877   -2.9257118  
C   -1.3675319   -0.0000605   -2.1698524  
O   -2.6129313    0.0000867   -2.6748490  
C   -1.3083584    0.0000910   -0.6783232  
O   -2.3693261    0.0004206   -0.0541692  
C    0.0000000    0.0000000    0.0000000  
H    3.0096017   -0.0001007    0.4807525  
H   -0.2829630   -0.0004687   -4.0053125  
H   -3.1967441    0.0002094   -1.8949034  
C    2.3971438    2.0127888    3.1728260  
C    1.9431056    1.6308205    1.9564670  
C    0.8496017    0.7127664    2.2356185  
C    0.7794028    0.6545384    3.7115134  
N    1.6840587    1.4146091    4.2663826  
C   -0.1885723   -0.1578550    4.3957118  
C   -1.0476298   -0.8789867    3.6398520  
O   -2.0015663   -1.6796266    4.1448486  
C   -1.0022026   -0.8410666    2.1483229  
O   -1.8147390   -1.5232959    1.5241687  
C    0.0000000    0.0000000    1.4700000  
H    2.3054237    1.9346118    0.9892483  
H   -0.2170646   -0.1815267    5.4753125  
H   -2.4487139   -2.0549881    3.3649027  
H    3.2048689    2.6911772    3.3971983  
