60

C   -6.3873564    2.3768342   -0.7905508  
C   -7.5010604    2.5886245   -0.0112725  
C   -8.2240279    1.3595455    0.0245400  
C   -7.4968321    0.4259823   -0.7574903  
N   -6.3882432    1.0768170   -1.2392193  
C   -7.9174675   -0.8942256   -0.9443211  
C   -9.0934704   -1.2791023   -0.3302663  
O   -9.5499401   -2.5567708   -0.4793015  
C   -9.8332806   -0.3620438    0.4536364  
O  -10.9822895   -0.8969970    0.9985642  
C   -9.4190513    0.9406042    0.6381601  
H   -7.7610431    3.5153300    0.4710347  
H   -7.3678414   -1.6105760   -1.5392627  
H  -10.3730424   -2.6130175    0.0232943  
H  -11.4222759   -0.2129111    1.5124144  
H  -10.0068090    1.6203326    1.2439560  
H   -5.5931864    3.0506487   -1.0629988  
C   -3.9877630    0.7060338   -1.9730979  
C   -3.2941076    0.0012878   -2.9038237  
C   -4.2616232   -0.7404938   -3.6774573  
C   -5.5852975   -0.4077259   -3.1171523  
N   -5.3499622    0.4732135   -2.0868840  
C   -6.7614333   -0.9068530   -3.5746254  
C   -6.7208864   -1.8338309   -4.6933759  
O   -7.7257842   -2.3379512   -5.1774670  
C   -5.3299836   -2.2005534   -5.3022346  
O   -5.2832941   -2.9801748   -6.2441853  
C   -4.1317821   -1.5978946   -4.7234702  
H   -7.7216480   -0.6497113   -3.1494485  
H   -3.1726430   -1.8568415   -5.1509312  
H   -3.6184115    1.3757280   -1.2135067  
C    0.0000000    0.0000000    0.0000000  
C    1.0541688   -0.0001723   -0.8560392  
C    0.5103136   -0.0000455   -2.1935956  
C   -0.9576373    0.0002461   -2.0455730  
N   -1.2018460   -0.0001389   -0.6915968  
C   -1.8348314    0.0008319   -3.0810607  
C   -1.2972851    0.0009739   -4.4314603  
O   -2.0050676    0.0014268   -5.4301316  
C    0.2542619    0.0004184   -4.6117572  
O    0.7184666    0.0002257   -5.7439122  
C    1.0974551    0.0000873   -3.4189129  
H    2.0940752   -0.0005484   -0.5817983  
H    2.1707276   -0.0000912   -3.5523673  
H   -2.1128194    0.0014915   -0.2706789  
C    3.1301144    0.0010313    3.1728260  
C    2.5367765    0.0002768    1.9564670  
C    1.1089900   -0.0001027    2.2356185  
C    1.0177864    0.0004150    3.7115134  
N    2.1993570    0.0011613    4.2663826  
C   -0.2459220    0.0002880    4.3957118  
C   -1.3675327    0.0000606    3.6398520  
O   -2.6129319   -0.0000866    4.1448486  
C   -1.3083589   -0.0000910    2.1483229  
O   -2.3693264   -0.0004206    1.5241687  
C    0.0000000    0.0000000    1.4700000  
H    3.0096015    0.0001008    0.9892483  
H   -0.2829642    0.0004689    5.4753125  
H   -3.1967446   -0.0002093    3.3649027  
H    4.1849273    0.0015113    3.3971983  
