62

C    8.4731382   -3.2723105   -4.0258326  
C    7.2947247   -2.5644368   -3.9736453  
C    7.6123893   -1.2049220   -4.2658934  
C    9.0116408   -1.1433672   -4.4900185  
N    9.5036476   -2.4155226   -4.3345614  
C    9.6755293    0.0461483   -4.8048080  
C    8.9129467    1.1943894   -4.8952866  
O    9.5103238    2.3831652   -5.2001906  
C    7.5156312    1.1532891   -4.6747500  
O    6.8966978    2.3798194   -4.8008026  
C    6.8600629   -0.0197958   -4.3638982  
H    6.3255609   -2.9769783   -3.7511053  
H   10.4651556   -2.6832178   -4.4432973  
H   10.7417392    0.0997471   -4.9766433  
H    8.8080677    3.0464570   -5.2122840  
H    5.9558459    2.2640391   -4.6365000  
H    8.6603079   -4.3203246   -3.8658519  
C    4.2912319   -2.1143350   -1.4466315  
C    5.3462901   -1.6515578   -2.1654949  
C    4.8141498   -0.7557117   -3.1650556  
C    3.3521069   -0.7343358   -2.9681712  
N    3.0997459   -1.5788207   -1.9117393  
C    2.4861704   -0.0045255   -3.7159919  
C    3.0304433    0.8144035   -4.7863458  
O    2.3328586    1.5073002   -5.5154346  
C    4.5758853    0.8068262   -5.0129662  
O    5.0456355    1.4921000   -5.9112952  
C    5.4069285   -0.0204567   -4.1418622  
H    6.3794019   -1.9085783   -2.0130682  
H    4.2838594   -2.8017033   -0.6163541  
H    2.1903280   -1.7742810   -1.5351739  
C    0.0000000    0.0000000    0.0000000  
C    1.0521669   -0.0011848   -0.8862341  
C    0.4917221   -0.0011931   -2.1979130  
C   -0.9187427    0.0003100   -2.0478683  
N   -1.1833170   -0.0009472   -0.7007915  
C   -1.7951698    0.0010259   -3.1372090  
C   -1.2375835    0.0005161   -4.4010425  
O   -2.0474208    0.0015256   -5.4997580  
C    0.1673584   -0.0013557   -4.5711962  
O    0.5673529   -0.0020659   -5.8915551  
C    1.0325773   -0.0023359   -3.4969890  
H    2.0953059   -0.0030542   -0.6200560  
H   -2.0989777    0.0102265   -0.2891825  
H   -2.8710930    0.0020274   -3.0295514  
H   -1.4634881    0.0006427   -6.2693593  
H    1.5290715   -0.0033076   -5.9180042  
C    1.0965515   -0.0001358    2.2710304  
C    0.0000000    0.0000000    1.4700000  
C   -1.1546562   -0.0001469    2.3369512  
C   -0.6372014   -0.0003519    3.7186280  
N    0.7342871   -0.0007337    3.6095011  
C   -1.4147739   -0.0001353    4.8308716  
C   -2.8576048    0.0001048    4.6554461  
O   -3.6427778    0.0002493    5.5944904  
C   -3.4275839    0.0000726    3.2011665  
O   -4.6406829   -0.0000333    3.0410059  
C   -2.4891866    0.0001091    2.0816745  
H   -1.0150448   -0.0001615    5.8354244  
H   -2.8919121    0.0002919    1.0779135  
H    2.1388271   -0.0000662    1.9961646  
H    1.3735872    0.0006099    4.3830260  
