62

C    4.6542816   -0.5315216   -7.4806804  
C    5.7155924   -0.4231037   -8.3492022  
C    5.7804687    0.9415999   -8.7590497  
C    4.7246367    1.6240651   -8.1022491  
N    4.0593867    0.6998853   -7.3354705  
C    4.4864965    2.9912254   -8.2724008  
C    5.3297567    3.6820866   -9.1208113  
O    5.1424941    5.0189267   -9.3228098  
C    6.3885430    3.0187237   -9.7854447  
O    7.1395199    3.8442137  -10.5965815  
C    6.6238970    1.6699517   -9.6182679  
H    6.3626682   -1.2287740   -8.6511667  
H    3.6834071    3.5172126   -7.7748187  
H    5.8295572    5.3005709   -9.9407795  
H    7.8324852    3.3183352  -11.0075010  
H    7.4425833    1.1891825  -10.1408507  
H    4.2737039   -1.3901005   -6.9544087  
C    2.9127954   -0.7214785   -3.3153353  
C    3.5543791   -0.5031931   -4.4921092  
C    2.7457297    0.4250570   -5.2466115  
C    1.5720416    0.7318908   -4.4069097  
N    1.7334695    0.0049281   -3.2500363  
C    0.5691413    1.5730687   -4.7651217  
C    0.6510588    2.2191799   -6.0644929  
O   -0.2019679    2.9933399   -6.4784044  
C    1.8850621    1.9086324   -6.9703641  
O    1.9647747    2.4464583   -8.0665616  
C    2.9022249    0.9847028   -6.4747981  
H    4.4875230   -0.9424619   -4.7969015  
H   -0.2829847    1.7845541   -4.1341978  
H    3.2021876   -1.3520602   -2.4904058  
C    1.1319246    0.0015678   -0.8009268  
C    0.7969914    0.0034958   -2.1169401  
C   -0.6453340    0.0035696   -2.1842669  
C   -1.1266832    0.0015410   -0.7896025  
N    0.0000000    0.0000000    0.0000000  
C   -2.4346129    0.0013913   -0.4276292  
C   -3.4350111    0.0031335   -1.4820181  
O   -4.6384614    0.0030875   -1.2583914  
C   -2.9478961    0.0050442   -2.9661074  
O   -3.7809382    0.0062135   -3.8623773  
C   -1.5113825    0.0053055   -3.2312122  
H   -2.7664565    0.0000174    0.6013448  
H   -1.1823533    0.0068381   -4.2614848  
H    2.1104316    0.0009435   -0.3488059  
C    2.5285572    2.1210227    2.9438989  
C    1.9331703    1.6216660    4.0790748  
C    0.8903039    0.7472258    3.6520102  
C    0.8972198    0.7527806    2.2336141  
N    1.9028376    1.5986179    1.8362361  
C    0.0000000    0.0000000    1.4700000  
C   -0.9207814   -0.7726952    2.1506477  
O   -1.8198395   -1.5274828    1.4542253  
C   -0.9436862   -0.7911793    3.5655508  
O   -1.9197945   -1.6098497    4.0950179  
C   -0.0590329   -0.0485852    4.3195194  
H    2.2150357    1.8593692    5.0905303  
H    2.1533708    1.7953814    0.8841339  
H   -2.3621246   -1.9821033    2.1118817  
H   -1.8668290   -1.5649508    5.0545920  
H   -0.1007624   -0.0827977    5.4019087  
H    3.3491200    2.8096064    2.8367138  
