62

C    4.0742415   -3.6456975   -6.8159613  
C    3.4139983   -3.0472242   -5.7679268  
C    4.0292189   -3.5125527   -4.5681046  
C    5.0678372   -4.3998841   -4.9499964  
N    5.0665025   -4.4595091   -6.3215138  
C    5.8880588   -5.0482491   -4.0217465  
C    5.6557630   -4.7960326   -2.6836122  
O    6.4275241   -5.4024145   -1.7350870  
C    4.6240337   -3.9141572   -2.2828049  
O    4.5183919   -3.7673661   -0.9150934  
C    3.8143034   -3.2743917   -3.1979895  
H    5.7008277   -5.0020264   -6.8794461  
H    6.6812453   -5.7257869   -4.3063540  
H    6.1020578   -5.0931896   -0.8796835  
H    3.7988505   -3.1562976   -0.7294604  
H    3.0319047   -2.6044653   -2.8610494  
H    3.9149395   -3.5575467   -7.8770038  
C    2.2882811   -2.1097764   -5.8897976  
C    1.6780079   -1.6459954   -7.0107565  
C    0.6303811   -0.7506080   -6.5799507  
C    0.6807202   -0.7305947   -5.1055499  
N    1.7068256   -1.5753508   -4.7500440  
C   -0.1496415   -0.0015615   -4.3176961  
C   -1.1605343    0.8179097   -4.9650739  
O   -1.9554939    1.5101850   -4.3429042  
C   -1.2321591    0.8117736   -6.5254061  
O   -2.0792941    1.4975145   -7.0816282  
C   -0.2825949   -0.0147693   -7.2663561  
H    1.9325518   -1.9020632   -8.0237969  
H   -0.3386982   -0.0132857   -8.3464368  
H    1.9909862   -1.7716675   -3.8078338  
C    3.3003543    0.0005276   -1.4738987  
C    2.5232814    0.0003497   -2.6090747  
C    1.1623200   -0.0001320   -2.1820103  
C    1.1711883    0.0000582   -0.7636140  
N    2.4852300   -0.0014919   -0.3662360  
C    0.0000000    0.0000000    0.0000000  
C   -1.2020384    0.0000519   -0.6806477  
O   -2.3759249    0.0003493    0.0157743  
C   -1.2314656   -0.0005115   -2.0955510  
O   -2.5054392   -0.0008039   -2.6250180  
C   -0.0764516   -0.0007274   -2.8495195  
H    2.8919955   -0.0005620   -3.6205304  
H    2.8036267    0.0088183    0.5858662  
H   -3.0835638    0.0000347   -0.6418818  
H   -2.4360047   -0.0011529   -3.5845921  
H    4.3715549    0.0004895   -1.3667136  
C    2.5128556    2.1077716    2.9199648  
C    1.9592212    1.6432552    4.0696553  
C    0.8915788    0.7479214    3.6910360  
C    0.8684491    0.7287414    2.2159470  
N    1.8754542    1.5738793    1.8102719  
C    0.0000000    0.0000000    1.4700000  
C   -0.9772830   -0.8200135    2.1664417  
O   -1.8021297   -1.5120829    1.5842315  
C   -0.9711318   -0.8147624    3.7284083  
O   -1.7894187   -1.5009653    4.3257297  
C    0.0140216    0.0115358    4.4216297  
H    2.2638494    1.8988021    5.0689105  
H    0.0117648    0.0094386    5.5031631  
H    3.3327358    2.7953732    2.7900019  
H    2.1123206    1.7707734    0.8551938  
