62

C    8.0715480   -0.7194840    0.7799622  
C    8.6213016   -0.0025467   -0.2574580  
C    9.7254347    0.7245901    0.2780423  
C    9.8015590    0.4086448    1.6587341  
N    8.7816759   -0.4691063    1.9307788  
C   10.7751382    0.9474194    2.5052886  
C   11.6886950    1.8208176    1.9478243  
O   12.6606959    2.3756521    2.7290969  
C   11.6288548    2.1486758    0.5724171  
O   12.6081083    3.0326032    0.1685872  
C   10.6685021    1.6177486   -0.2632658  
H    8.5911387   -0.8773068    2.8280242  
H   10.8384449    0.7107480    3.5584654  
H   13.1832528    2.9463286    2.1507137  
H   12.4966464    3.2010522   -0.7720535  
H   10.6475552    1.8876508   -1.3126430  
H    7.2281971   -1.3885201    0.7903564  
C    4.5679461   -0.0016854   -2.0086701  
C    5.6245801   -0.0018691   -1.1556757  
C    6.8197127   -0.0025277   -1.9659180  
C    6.3695112   -0.0026848   -3.3709478  
N    4.9943549   -0.0025530   -3.3281074  
C    7.1998322   -0.0028670   -4.4443873  
C    8.6325205   -0.0031374   -4.1995651  
O    9.4620789   -0.0033768   -5.0996406  
C    9.1316833   -0.0032294   -2.7194836  
O   10.3356445   -0.0037633   -2.5009908  
C    8.1403754   -0.0027345   -1.6465622  
H    5.5727011   -0.0017590   -0.0814681  
H    6.8490268   -0.0028498   -5.4670534  
H    4.3931139   -0.0010546   -4.1315712  
C    3.1301149   -0.0010311   -1.7028252  
C    2.5367768   -0.0002767   -0.4864665  
C    1.1089904    0.0001028   -0.7656183  
C    1.0177872   -0.0004148   -2.2415132  
N    2.1993578   -0.0011611   -2.7963820  
C   -0.2459209   -0.0002877   -2.9257118  
C   -1.3675319   -0.0000605   -2.1698524  
O   -2.6129313    0.0000867   -2.6748490  
C   -1.3083584    0.0000910   -0.6783232  
O   -2.3693261    0.0004206   -0.0541692  
C    0.0000000    0.0000000    0.0000000  
H    3.0096017   -0.0001007    0.4807525  
H   -0.2829630   -0.0004687   -4.0053125  
H   -3.1967441    0.0002094   -1.8949034  
C    0.0000000    0.0000000    1.4700000  
C    1.0521667    0.0011902    2.3562342  
C    0.4917218    0.0011957    3.6679131  
C   -0.9187428   -0.0003148    3.5178682  
N   -1.1833171    0.0009411    2.1707914  
C   -1.7951701   -0.0010350    4.6072090  
C   -1.2375837   -0.0005224    5.8710424  
O   -2.0474215   -0.0015360    6.9697579  
C    0.1673580    0.0013566    6.0411963  
O    0.5673524    0.0020687    7.3615553  
C    1.0325770    0.0023412    4.9669890  
H    2.0953057    0.0030649    2.0900562  
H   -2.0989778   -0.0102372    1.7591824  
H   -2.8710934   -0.0020419    4.4995513  
H   -1.4634884   -0.0006497    7.7393593  
H    1.5290710    0.0033153    7.3880045  
H    2.1042148    0.0039609    5.1284455  
