62

C   -0.6293911   -0.3803596   -9.5491252  
C   -0.9677439    0.8355932   -9.0019102  
C   -0.9567310    1.7876749  -10.0639931  
C   -0.6019027    1.0885229  -11.2460281  
N   -0.4082817   -0.2251443  -10.8975938  
C   -0.4938041    1.7146564  -12.4914444  
C   -0.7488398    3.0712355  -12.5446240  
O   -0.6580632    3.7323614  -13.7352902  
C   -1.1038877    3.7862804  -11.3760919  
O   -1.3259004    5.1305388  -11.5929424  
C   -1.2104541    3.1692854  -10.1470740  
H   -0.1578608   -0.9627278  -11.5310300  
H   -0.2236426    1.1874567  -13.3960311  
H   -0.8720701    4.6563267  -13.5515704  
H   -1.5604066    5.5392638  -10.7541618  
H   -1.4841069    3.7431318   -9.2694103  
H   -0.5268921   -1.3458038   -9.0839692  
C    0.8348000   -0.7155476   -5.2158233  
C    0.5509172   -0.4631666   -6.5380112  
C   -0.5417432    0.4534220   -6.5616508  
C   -0.8848304    0.7269205   -5.2127931  
N   -0.0307352   -0.0004646   -4.4215603  
C   -1.9225412    1.5938243   -4.8572340  
C   -2.6265387    2.1958309   -5.8820042  
O   -3.6494143    3.0514525   -5.5910578  
C   -2.2994634    1.9353173   -7.2340292  
O   -3.0931217    2.6108037   -8.1380024  
C   -1.2760373    1.0799989   -7.5855344  
H    1.0670805   -0.8883460   -7.3816882  
H   -2.1890860    1.8063496   -3.8310816  
H   -4.0007374    3.3550845   -6.4381967  
H   -2.8064473    2.3794365   -9.0267601  
H    1.5852737   -1.3501720   -4.7765053  
C    3.2573670   -0.0002920   -1.5109380  
C    2.5379468   -0.0001709   -0.3591961  
C    1.1435043    0.0000332   -0.7338500  
C    1.1092609   -0.0000082   -2.2088477  
N    2.4227562    0.0001909   -2.6182613  
C   -0.0265532   -0.0002522   -2.9515663  
C   -1.3003035   -0.0002639   -2.2514981  
O   -2.3786784   -0.0004131   -2.8306429  
C   -1.2877725    0.0000312   -0.6895608  
O   -2.3539958    0.0003307   -0.0892036  
C    0.0000000    0.0000000    0.0000000  
H    2.9384091   -0.0000369    0.6389239  
H    4.3270394   -0.0004765   -1.6439446  
H    2.7280494   -0.0013406   -3.5742113  
C    0.0000000    0.0000000    1.4700000  
C    1.0541688    0.0001722    2.3260392  
C    0.5103138    0.0000454    3.6635956  
C   -0.9576371   -0.0002459    3.5155732  
N   -1.2018458    0.0001392    2.1615969  
C   -1.8348311   -0.0008317    4.5510609  
C   -1.2972847   -0.0009736    5.9014604  
O   -2.0050672   -0.0014265    6.9001319  
C    0.2542623   -0.0004184    6.0817573  
O    0.7184670   -0.0002256    7.2139121  
C    1.0974552   -0.0000873    4.8889129  
H    2.0940752    0.0005483    2.0517982  
H   -2.9081052   -0.0011668    4.4207061  
H    2.1707277    0.0000911    5.0223670  
H   -2.1128194   -0.0014912    1.7406791  
