64

C    3.0101949    1.7471393   -2.9866277  
C    1.8467206    1.6645382   -3.7159920  
C    1.9001411    2.6929357   -4.7029798  
C    3.1303994    3.3763190   -4.5258410  
N    3.7790207    2.7778959   -3.4742721  
C    3.5194902    4.4534591   -5.3278179  
C    2.6509540    4.8477186   -6.3270088  
O    2.9813985    5.8936286   -7.1393464  
C    1.4187797    4.1786652   -6.5191800  
O    0.6642805    4.6899431   -7.5548779  
C    1.0341614    3.1161368   -5.7282134  
H    4.6819244    3.0417652   -3.1233889  
H    2.2474516    6.0011536   -7.7582365  
H   -0.1505894    4.1822710   -7.6170077  
H    0.0841719    2.6233954   -5.8991048  
H    3.3518139    1.1532637   -2.1562262  
C    0.0000000    0.0000000    0.0000000  
C    0.7810571    0.7049876   -0.8862340  
C    0.3654495    0.3289968   -2.1979133  
C   -0.6815263   -0.6161246   -2.0478686  
N   -0.8768845   -0.7945523   -0.7007912  
C   -1.3319444   -1.2035615   -3.1372092  
C   -0.9181097   -0.8298721   -4.4010425  
O   -1.5193435   -1.3724177   -5.4997579  
C    0.1250177    0.1112708   -4.5711966  
O    0.4221203    0.3790884   -5.8915552  
C    0.7673015    0.6909921   -3.4969890  
H    1.5558779    1.4034102   -0.6200564  
H   -1.5634131   -1.4005541   -0.2891825  
H   -2.1304953   -1.9246216   -3.0295516  
H   -1.0857196   -0.9813305   -6.2693595  
H    1.1361411    1.0233546   -5.9180048  
C    6.0029167    4.5841683   -4.8566540  
C    4.7922854    5.1673723   -5.1511233  
C    5.0190728    6.5724327   -5.2458441  
C    6.3987422    6.7889951   -4.9977720  
N    6.9662791    5.5611835   -4.7632563  
C    6.9789070    8.0610144   -5.0106132  
C    6.1512839    9.1339312   -5.2790667  
O    6.6658465   10.3978945   -5.3042993  
C    4.7720953    8.9381599   -5.5287280  
O    4.0813807   10.1058012   -5.7794665  
C    4.1990164    7.6835909   -5.5159535  
H    7.9375241    5.3985794   -4.5677455  
H    8.0297176    8.2327641   -4.8221992  
H    5.9288439   10.9887388   -5.5067756  
H    3.1583924    9.8851979   -5.9376765  
H    3.1395660    7.5647422   -5.7106821  
H    6.2551595    3.5487142   -4.7044443  
C    3.2573670    0.0002920    2.9809380  
C    2.5379467    0.0001709    1.8291961  
C    1.1435042   -0.0000331    2.2038498  
C    1.1092607    0.0000083    3.6788474  
N    2.4227561   -0.0001909    4.0882609  
C   -0.0265533    0.0002524    4.4215661  
C   -1.3003036    0.0002640    3.7214979  
O   -2.3786784    0.0004133    4.3006425  
C   -1.2877726   -0.0000311    2.1595606  
O   -2.3539958   -0.0003306    1.5592035  
C    0.0000000    0.0000000    1.4700000  
H    2.9384090    0.0000368    0.8310761  
H   -0.0296291    0.0004086    5.5027230  
H    4.3270393    0.0004765    3.1139444  
H    2.7280493    0.0013407    5.0442112  
