60

C    0.2226767   -1.1097915   -9.6385069  
C    0.1608628   -0.7339374  -10.9603924  
C   -0.0985493    0.6684900  -10.9828069  
C   -0.1855184    1.0972891   -9.6335504  
N    0.0123499   -0.0076589   -8.8432614  
C   -0.4331694    2.4262754   -9.2768236  
C   -0.5956899    3.3390746  -10.3008176  
O   -0.8392510    4.6499409  -10.0087225  
C   -0.5128142    2.9304829  -11.6532239  
O   -0.6973998    3.9569786  -12.5563182  
C   -0.2687960    1.6195232  -12.0058789  
H    0.2861155   -1.3900812  -11.8046549  
H   -0.5007656    2.7594518   -8.2503616  
H   -0.9192028    5.1080666  -10.8554764  
H   -0.6259075    3.5964036  -13.4454064  
H   -0.2109439    1.3362866  -13.0503447  
H    0.3987334   -2.0771052   -9.2000242  
C    2.5229105   -2.1069160   -5.8790356  
C    1.9659599   -1.6422908   -7.0270794  
C    0.8993073   -0.7471216   -6.6452951  
C    0.8803723   -0.7281568   -5.1701434  
N    1.8886140   -1.5732492   -4.7674571  
C    0.0139741    0.0003876   -4.4216236  
C   -0.9653705    0.8204009   -5.1151637  
O   -1.7886285    1.5123014   -4.5305090  
C   -0.9636626    0.8153757   -6.6771421  
O   -1.7837158    1.5015804   -7.2720336  
C    0.0195995   -0.0107212   -7.3732829  
H    2.2677703   -1.8976623   -8.0272341  
H    3.3432281   -2.7944520   -5.7515055  
H    2.1282171   -1.7702570   -3.8130851  
C    3.2798085    0.0005853   -1.4499648  
C    2.5571144    0.0005562   -2.5996554  
C    1.1637436    0.0001546   -2.2210360  
C    1.1336965   -0.0000201   -0.7459470  
N    2.4483513   -0.0001430   -0.3402717  
C    0.0000000    0.0000000    0.0000000  
C   -1.2757367   -0.0000188   -0.6964414  
O   -2.3524597   -0.0000640   -0.1142313  
C   -1.2676494   -0.0000875   -2.2584081  
O   -2.3355762   -0.0004102   -2.8557294  
C    0.0181562    0.0001757   -2.9516296  
H    2.9547357    0.0006072   -3.5989105  
H    4.3498550    0.0008609   -1.3200021  
H    2.7563627    0.0012824    0.6148063  
C    0.8175213    0.6860729    2.3021913  
C    0.0000000    0.0000000    1.4700000  
C   -0.8887526   -0.7456559    2.3478473  
C   -0.4549825   -0.3816753    3.7138435  
N    0.5448156    0.4573574    3.6934124  
C   -1.0945674   -0.9182058    4.8835240  
C   -2.1210866   -1.7789155    4.6970523  
O   -2.8083856   -2.3554314    5.6976972  
C   -2.5824069   -2.1655116    3.3310774  
O   -3.5227682   -2.9541547    3.2362962  
C   -1.9100805   -1.6015804    2.1470656  
H   -0.7567140   -0.6349833    5.8697035  
H   -3.4728268   -2.9124471    5.2533954  
H   -2.2742832   -1.9066565    1.1752040  
H    1.6189533    1.3585343    2.0405121  
