62

C    0.6784435   -0.7158674   -5.1604806  
C   -0.1387074    0.0017015   -4.3179686  
C   -1.0481455    0.7301998   -5.1406544  
C   -0.7354107    0.4143962   -6.4876478  
N    0.3188400   -0.4645854   -6.4638959  
C   -1.4327204    0.9543845   -7.5725265  
C   -2.4647268    1.8288738   -7.2925120  
O   -3.1787621    2.3849177   -8.3142675  
C   -2.7916047    2.1566101   -5.9551429  
O   -3.8437008    3.0417139   -5.8410033  
C   -2.1039437    1.6244857   -4.8843985  
H    0.7522634   -0.8729856   -7.2721870  
H   -1.1991951    0.7178275   -8.6014617  
H   -3.8415771    2.9562089   -7.9049176  
H   -3.9995943    3.2099938   -4.9066674  
H   -2.3770359    1.8943253   -3.8709463  
H    1.4902653   -1.3859286   -4.9348208  
C    3.3041276    0.0001179   -1.5420426  
C    2.5845373   -0.0004778   -0.3695850  
C    1.2040008   -0.0000007   -0.7283588  
C    1.1422377    0.0006038   -2.1454370  
N    2.4348643    0.0026110   -2.6077459  
C   -0.0655176    0.0008796   -2.8497919  
C   -1.2321760    0.0002323   -2.1101404  
O   -2.4392811    0.0001143   -2.7472523  
C   -1.1911205   -0.0000006   -0.6955268  
O   -2.4371526   -0.0002322   -0.1032865  
C    0.0000000    0.0000000    0.0000000  
H    3.0031533   -0.0000657    0.6222587  
H    2.7054636   -0.0071097   -3.5745259  
H   -3.1132988   -0.0000651   -2.0551790  
H   -2.3200280   -0.0004074    0.8516406  
C    5.7396281   -0.0009103   -0.8296818  
C    4.7577225    0.0005133   -1.7610455  
C    5.4529353    0.0023909   -3.0390027  
C    6.8880479    0.0019179   -2.6825815  
N    7.0622974   -0.0000956   -1.3888959  
C    7.9203009    0.0033558   -3.6823508  
C    7.5363330    0.0047940   -4.9792319  
O    8.3921621    0.0062389   -6.0153760  
C    6.0959312    0.0049353   -5.3709007  
O    5.8193640    0.0064073   -6.5703708  
C    5.0558674    0.0034862   -4.3267786  
H    8.9611550    0.0031762   -3.3933309  
H    7.8236465    0.0070055   -6.8065412  
H    4.0240717    0.0035241   -4.6517814  
H    5.6367314   -0.0025122    0.2438093  
C    2.5528530    2.1414826    2.8079335  
C    2.0663498    1.7338582    4.0032312  
C    0.9804344    0.8229586    3.6752840  
C    0.9495562    0.7966882    2.1971295  
N    1.8690446    1.5676019    1.6831036  
C    0.0000000    0.0000000    1.4700000  
C   -0.8785127   -0.7372425    2.1869543  
O   -1.8187535   -1.5261249    1.6395491  
C   -0.8723269   -0.7321790    3.6796354  
O   -1.7010379   -1.4274584    4.2670412  
C    0.1115397    0.0933559    4.4024240  
H    2.4028853    2.0163452    4.9860947  
H   -2.2861435   -1.9184361    2.3990168  
H    0.0832434    0.0693689    5.4835595  
H    3.3664920    2.8238276    2.6198634  
