62

C    2.2746100   -1.9454470   -8.4691972  
C    3.2467427   -2.7769133   -8.9752502  
C    3.1377345   -2.7281391  -10.3966361  
C    2.0726330   -1.8426510  -10.7022419  
N    1.5692701   -1.3866782   -9.5092073  
C    1.6819664   -1.5535608  -12.0131942  
C    2.3794124   -2.1693527  -13.0342454  
O    2.0397897   -1.9222932  -14.3329491  
C    3.4448513   -3.0562278  -12.7494471  
O    4.0398702   -3.5895389  -13.8741141  
C    3.8306219   -3.3420958  -11.4563937  
H    3.9474514   -3.3491491   -8.3916861  
H    0.8122820   -0.7346778   -9.4099815  
H    0.8709570   -0.8797085  -12.2527560  
H    2.6428823   -2.4452083  -14.8771045  
H    4.7485625   -4.1767310  -13.5938211  
H    4.6504454   -4.0257031  -11.2691801  
C    2.5712580   -2.1206951   -5.9616534  
C    1.9373695   -1.6210575   -7.0756615  
C    0.9098909   -0.7465418   -6.6129415  
C    0.9654398   -0.7523422   -5.1956172  
N    1.9839669   -1.5983920   -4.8330982  
C    0.0950446    0.0004351   -4.4015596  
C   -0.8484202    0.7733795   -5.0501034  
O   -1.7229563    1.5281754   -4.3231345  
C   -0.9198267    0.7921108   -6.4633859  
O   -1.9133951    1.6110121   -6.9589329  
C   -0.0616586    0.0495202   -7.2473711  
H    2.2669718   -1.7953555   -3.8901799  
H   -2.2874063    1.9829868   -4.9617328  
H   -1.8933719    1.5662709   -7.9197665  
H   -0.1404743    0.0839253   -8.3276867  
H    3.3949113   -2.8094149   -5.8827842  
C    3.3321173    0.0004713   -1.3379338  
C    2.6974181    0.0000116   -2.5332314  
C    1.2800438   -0.0002119   -2.2052841  
C    1.2395034    0.0000643   -0.7271299  
N    2.4394062    0.0005460   -0.2131038  
C    0.0000000    0.0000000    0.0000000  
C   -1.1468702    0.0000634   -0.7169543  
O   -2.3742203    0.0000074   -0.1695487  
C   -1.1388770    0.0001607   -2.2096355  
O   -2.2206234    0.0000905   -2.7970411  
C    0.1454522    0.0001815   -2.9324241  
H    3.1367984   -0.0000653   -3.5160950  
H   -2.9844346    0.0001026   -0.9290167  
H    4.3940038    0.0007618   -1.1498640  
C    0.8400945    0.7047457    2.2710304  
C    0.0000000    0.0000000    1.4700000  
C   -0.8844236   -0.7423113    2.3369512  
C   -0.4878984   -0.4098547    3.7186280  
N    0.5629682    0.4714286    3.6095011  
C   -1.0836927   -0.9095027    4.8308716  
C   -2.1891196   -1.8367527    4.6554461  
O   -2.7906899   -2.3413415    5.5944904  
C   -2.6257283   -2.2031529    3.2011665  
O   -3.5549479   -2.9829990    3.0410059  
C   -1.9068976   -1.5999348    2.0816745  
H   -0.7774656   -0.6525820    5.8354244  
H   -2.2155208   -1.8586617    1.0779135  
H    1.6384792    1.3747609    1.9961646  
H    1.0518368    0.8833920    4.3830260  
