62

C   -3.2624650    3.6288298    1.5892794  
C   -4.3830536    3.0302051    1.0616457  
C   -5.4986791    3.4928787    1.8205357  
C   -4.9930606    4.3792610    2.8057271  
N   -3.6317246    4.4376474    2.6384740  
C   -5.8142608    5.0255377    3.7345676  
C   -7.1706226    4.7726408    3.6674503  
O   -8.0179330    5.3775356    4.5501614  
C   -7.6940895    3.8911163    2.6918926  
O   -9.0642831    3.7429017    2.7547004  
C   -6.8845154    3.2529916    1.7754248  
H   -3.0029503    4.9954844    3.1875108  
H   -5.4350790    5.7021218    4.4879978  
H   -8.9064913    5.0676078    4.3318232  
H   -9.3361806    3.1322232    2.0627847  
H   -7.3141821    2.5830162    1.0398999  
H   -2.2288582    3.5417383    1.3011287  
C   -4.3991024    2.0926371   -0.0704360  
C   -3.3610094    1.6305294   -0.8140048  
C   -3.9159995    0.7341912   -1.8006147  
C   -5.3729687    0.7118414   -1.5692446  
N   -5.6007886    1.5556530   -0.5067146  
C   -6.2559171   -0.0180491   -2.2968195  
C   -5.7365712   -0.8363897   -3.3799324  
O   -6.4507762   -1.5294000   -4.0926375  
C   -4.1968640   -0.8281647   -3.6426858  
O   -3.7479703   -1.5134097   -4.5516380  
C   -3.3460097   -0.0004262   -2.7913647  
H   -2.3247247    1.8880235   -0.6858467  
H   -7.3209340   -0.0201819   -2.1106906  
H   -6.5015175    1.7527679   -0.1106336  
C    0.0000000    0.0000000    0.0000000  
C    1.0662919   -0.0000103   -0.8334272  
C    0.4961868    0.0000066   -2.1718889  
C   -0.9663860   -0.0000849   -1.9540248  
N   -1.2632775   -0.0000084   -0.6828659  
C   -1.8985364   -0.0000515   -3.0477258  
C   -1.3925778    0.0004567   -4.3020543  
O   -2.1456385    0.0005412   -5.4151314  
C    0.0786229    0.0009326   -4.5544999  
O    0.4683756    0.0012594   -5.7221104  
C    1.0143162    0.0008443   -3.4159034  
H    2.1107195    0.0000631   -0.5721869  
H   -1.5042277    0.0009692   -6.1484420  
H    2.0724151    0.0013151   -3.6409746  
C    3.3041272   -0.0001177    3.0120429  
C    2.5845372    0.0004780    1.8395852  
C    1.2040006    0.0000008    2.1983588  
C    1.1422373   -0.0006037    3.6154372  
N    2.4348639   -0.0026109    4.0777464  
C   -0.0655181   -0.0008797    4.3197917  
C   -1.2321768   -0.0002324    3.5801400  
O   -2.4392816   -0.0001146    4.2172520  
C   -1.1911209    0.0000007    2.1655264  
O   -2.4371527    0.0002320    1.5732860  
C    0.0000000    0.0000000    1.4700000  
H    3.0031534    0.0000661    0.8477417  
H    2.7054629    0.0071099    5.0445261  
H   -0.1193549   -0.0014844    5.3997470  
H   -3.1132988    0.0000648    3.5251786  
H   -2.3200282    0.0004071    0.6183591  
H    4.3686625   -0.0004071    3.1724291  
