66

C    7.5964854   -0.9966886   -4.4256414  
C    6.7404106    0.0795013   -4.4633029  
C    7.5215620    1.2209018   -4.8120263  
C    8.8583211    0.7759560   -4.9764188  
N    8.8689973   -0.5749938   -4.7326200  
C    9.9044826    1.6362074   -5.3232616  
C    9.5955138    2.9698712   -5.5078057  
O   10.5789196    3.8532665   -5.8477150  
C    8.2678272    3.4330336   -5.3479806  
O    8.1216334    4.7874940   -5.5657129  
C    7.2353103    2.5849875   -5.0055569  
H    9.6777547   -1.1676459   -4.7841501  
H   10.9254471    1.3033562   -5.4499297  
H   10.1544690    4.7175524   -5.9259203  
H    7.1963857    5.0180015   -5.4377034  
H    6.2284031    2.9687441   -4.8900264  
H    7.4003104   -2.0314679   -4.2026933  
C    4.3849896   -2.1304616   -1.4422212  
C    3.1441137   -1.6666549   -1.8131355  
C    3.3426742   -0.7794830   -2.9122715  
C    4.7370042   -0.7414321   -3.1698020  
N    5.3406529   -1.5714195   -2.2580201  
C    5.2968246    0.0340156   -4.1896401  
C    4.4333179    0.7844918   -4.9637971  
O    4.9266826    1.5593202   -5.9733750  
C    3.0391176    0.7600316   -4.7220874  
O    2.3124334    1.5616245   -5.5780803  
C    2.4861704   -0.0045255   -3.7159919  
H    2.2107611   -1.9339277   -1.3479353  
H    6.3263281   -1.7542341   -2.2032048  
H    4.1660274    1.9934381   -6.3810641  
H    1.3814040    1.4876307   -5.3471836  
H    4.6641025   -2.8147094   -0.6593675  
C    0.0000000    0.0000000    0.0000000  
C    1.0521669   -0.0011848   -0.8862341  
C    0.4917221   -0.0011931   -2.1979130  
C   -0.9187427    0.0003100   -2.0478683  
N   -1.1833170   -0.0009472   -0.7007915  
C   -1.7951698    0.0010259   -3.1372090  
C   -1.2375835    0.0005161   -4.4010425  
O   -2.0474208    0.0015256   -5.4997580  
C    0.1673584   -0.0013557   -4.5711962  
O    0.5673529   -0.0020659   -5.8915551  
C    1.0325773   -0.0023359   -3.4969890  
H    2.0953059   -0.0030542   -0.6200560  
H   -2.0989777    0.0102265   -0.2891825  
H   -2.8710930    0.0020274   -3.0295514  
H   -1.4634881    0.0006427   -6.2693593  
H    1.5290715   -0.0033076   -5.9180042  
C    1.1188642   -0.0008217    2.2703808  
C    0.0000000    0.0000000    1.4700000  
C   -1.1323862   -0.0008904    2.3373528  
C   -0.6382662   -0.0019682    3.6669281  
N    0.7324016   -0.0038477    3.5902241  
C   -1.4770914   -0.0027325    4.7854808  
C   -2.8395474   -0.0020958    4.5576857  
O   -3.7039201   -0.0024443    5.6140350  
C   -3.3517868   -0.0013946    3.2384331  
O   -4.7300496   -0.0012389    3.1773122  
C   -2.5248543   -0.0009135    2.1344818  
H    1.3576314    0.0056174    4.3757045  
H   -1.1067570   -0.0036993    5.8013813  
H   -4.5940033   -0.0021850    5.2385129  
H   -4.9934601   -0.0007286    2.2519915  
H   -2.9462578   -0.0005617    1.1360343  
H    2.1619896   -0.0009344    2.0042067  
