64

C    3.6272477    0.7158379   -8.0182717  
C    3.4930533    0.4670326   -9.3645831  
C    4.5318492   -0.4413174   -9.7256977  
C    5.2744625   -0.7137080   -8.5483041  
N    4.6997227    0.0063942   -7.5305879  
C    6.3770863   -1.5732001   -8.5315038  
C    6.7364110   -2.1687976   -9.7249556  
O    7.8049971   -3.0170481   -9.7650520  
C    6.0081512   -1.9092673  -10.9103242  
O    6.4903990   -2.5778031  -12.0165976  
C    4.9204447   -1.0612582  -10.9276917  
H    2.7398513    0.8892529  -10.0075527  
H    6.9473363   -1.7848411   -7.6375096  
H    7.8812252   -3.3171153  -10.6801558  
H    5.9430615   -2.3476205  -12.7735931  
H    4.3822345   -0.8816436  -11.8510265  
H    3.0436710    1.3443424   -7.3675960  
C    2.4521485    0.0014838   -3.7217479  
C    3.5379007    0.0002898   -2.8769948  
C    4.7042703    0.0010622   -3.6980805  
C    4.2640505    0.0030293   -5.0464602  
N    2.8914059    0.0012854   -5.0249751  
C    5.1472042    0.0045478   -6.1303534  
C    6.4993904    0.0043785   -5.8479202  
O    7.4055689    0.0061698   -6.8686314  
C    6.9581314    0.0020534   -4.5091262  
O    8.3328187    0.0017679   -4.3925964  
C    6.0874476    0.0002816   -3.4393444  
H    3.4945820   -0.0020868   -1.8013039  
H    2.2982898    0.0126234   -5.8349546  
H    8.2798213    0.0054020   -6.4575991  
H    8.5587827    0.0001771   -3.4574271  
H    6.4683343   -0.0016643   -2.4247508  
C    0.0000000    0.0000000    0.0000000  
C    1.0662924   -0.0000102   -0.8334267  
C    0.4961874    0.0000064   -2.1718888  
C   -0.9663853   -0.0000849   -1.9540250  
N   -1.2632772   -0.0000084   -0.6828660  
C   -1.8985357   -0.0000515   -3.0477261  
C   -1.3925767    0.0004566   -4.3020548  
O   -2.1456375    0.0005411   -5.4151316  
C    0.0786242    0.0009324   -4.5545000  
O    0.4683770    0.0012590   -5.7221099  
C    1.0143173    0.0008443   -3.4159029  
H    2.1107200    0.0000632   -0.5721862  
H   -2.9622180   -0.0003269   -2.8593382  
H   -1.5042262    0.0009694   -6.1484423  
C    3.3003543   -0.0005276    2.9438989  
C    2.5232812   -0.0003497    4.0790748  
C    1.1623199    0.0001319    3.6520102  
C    1.1711883   -0.0000583    2.2336141  
N    2.4852299    0.0014920    1.8362361  
C    0.0000000    0.0000000    1.4700000  
C   -1.2020384   -0.0000520    2.1506477  
O   -2.3759250   -0.0003494    1.4542253  
C   -1.2314658    0.0005113    3.5655508  
O   -2.5054393    0.0008037    4.0950179  
C   -0.0764518    0.0007272    4.3195194  
H    2.8919952    0.0005619    5.0905303  
H    2.8036267   -0.0088181    0.8841339  
H   -3.0835639   -0.0000348    2.1118817  
H   -2.4360050    0.0011527    5.0545920  
H   -0.1304098    0.0013421    5.4019087  
H    4.3715549   -0.0004895    2.8367138  
