60

C    2.0031174   -2.4093447   -7.1400388  
C    3.0420752   -2.6182039   -8.0172000  
C    3.2596754   -1.3879028   -8.7053928  
C    2.3157653   -0.4566487   -8.2016804  
N    1.5672979   -1.1099752   -7.2542745  
C    2.2405378    0.8639698   -8.6545566  
C    3.1346660    1.2516390   -9.6335478  
O    3.1052288    2.5298310  -10.1114293  
C    4.0835868    0.3369129  -10.1489530  
O    4.9037084    0.8745154  -11.1193801  
C    4.1581944   -0.9661387   -9.7028407  
H    3.5765637   -3.5437903   -8.1460641  
H    1.5233548    1.5785694   -8.2748219  
H    3.8018084    2.5881375  -10.7782456  
H    5.5143610    0.1918855  -11.4138690  
H    4.8955713   -1.6440388  -10.1166101  
H    1.5375348   -3.0848391   -6.4429749  
C    0.2315723   -0.7260311   -5.1498917  
C    0.4808492   -0.5092797   -6.4670686  
C   -0.5209820    0.4176779   -6.9381514  
C   -1.3804962    0.7254254   -5.7791354  
N   -0.8712826    0.0001710   -4.7267111  
C   -2.4455082    1.5658328   -5.8133230  
C   -2.7668039    2.2100917   -7.0759529  
O   -3.7062272    2.9834392   -7.2090649  
C   -1.8701936    1.8985508   -8.3164521  
O   -2.1311534    2.4348170   -9.3848989  
C   -0.7493924    0.9755930   -8.1558118  
H   -3.0629970    1.7780122   -4.9515819  
H   -0.1333322    0.7653440   -9.0195191  
H    0.7606230   -1.3553504   -4.4527891  
C    1.0965514    0.0001359   -0.8010305  
C    0.0000000    0.0000000    0.0000000  
C   -1.1546563    0.0001470   -0.8669513  
C   -0.6372014    0.0003519   -2.2486282  
N    0.7342871    0.0007337   -2.1395014  
C   -1.4147739    0.0001352   -3.3608717  
C   -2.8576049   -0.0001048   -3.1854462  
O   -3.6427779   -0.0002494   -4.1244907  
C   -3.4275840   -0.0000725   -1.7311666  
O   -4.6406831    0.0000333   -1.5710060  
C   -2.4891867   -0.0001091   -0.6116744  
H   -2.8919122   -0.0002918    0.3920866  
H    2.1388272    0.0000663   -0.5261648  
H    1.3735872   -0.0006099   -2.9130262  
C    2.3971438    2.0127888    3.1728260  
C    1.9431056    1.6308205    1.9564670  
C    0.8496017    0.7127664    2.2356185  
C    0.7794028    0.6545384    3.7115134  
N    1.6840587    1.4146091    4.2663826  
C   -0.1885723   -0.1578550    4.3957118  
C   -1.0476298   -0.8789867    3.6398520  
O   -2.0015663   -1.6796266    4.1448486  
C   -1.0022026   -0.8410666    2.1483229  
O   -1.8147390   -1.5232959    1.5241687  
C    0.0000000    0.0000000    1.4700000  
H    2.3054237    1.9346118    0.9892483  
H   -0.2170646   -0.1815267    5.4753125  
H   -2.4487139   -2.0549881    3.3649027  
H    3.2048689    2.6911772    3.3971983  
