62

C    5.3904082   -1.1137444   -6.5867696  
C    6.3846155   -1.9979506   -6.2372007  
C    7.1444395   -2.2574759   -7.4161471  
C    6.5621617   -1.4970382   -8.4623850  
N    5.4983197   -0.8157885   -7.9250255  
C    7.0553113   -1.5086708   -9.7706115  
C    8.1565094   -2.3021850  -10.0272769  
O    8.6790250   -2.3503761  -11.2873045  
C    8.7512460   -3.0684020   -8.9967355  
O    9.8401571   -3.8072287   -9.4111614  
C    8.2651078   -3.0576203   -7.7059684  
H    6.5420882   -2.4065778   -5.2537280  
H    4.8992702   -0.1857118   -8.4271445  
H    6.6159697   -0.9314914  -10.5725131  
H    9.4314960   -2.9549425  -11.2479156  
H   10.1821991   -4.2948501   -8.6556245  
H    8.7415380   -3.6551665   -6.9375734  
C    4.1166482   -0.7277113   -4.4446873  
C    4.3274840   -0.5121310   -5.7687524  
C    3.3125442    0.4146616   -6.2112327  
C    2.4872315    0.7235882   -5.0279273  
N    3.0267438   -0.0008951   -3.9901699  
C    1.4218503    1.5642147   -5.0317828  
C    1.0640341    2.2074813   -6.2850630  
O    0.1212920    2.9809346   -6.3914032  
C    1.9240528    1.8946834   -7.5508949  
O    1.6321823    2.4301076   -8.6117410  
C    3.0488667    0.9716008   -7.4221954  
H    0.8297780    1.7772656   -4.1525961  
H    3.6394541    0.7604786   -8.3033072  
H    4.6656558   -1.3565646   -3.7627613  
C    3.3003547    0.0005277   -1.4738986  
C    2.5232816    0.0003497   -2.6090746  
C    1.1623203   -0.0001319   -2.1820102  
C    1.1711884    0.0000584   -0.7636141  
N    2.4852301   -0.0014919   -0.3662359  
C    0.0000000    0.0000000    0.0000000  
C   -1.2020383    0.0000520   -0.6806479  
O   -2.3759248    0.0003493    0.0157745  
C   -1.2314655   -0.0005115   -2.0955511  
O   -2.5054388   -0.0008040   -2.6250184  
C   -0.0764513   -0.0007274   -2.8495195  
H    2.8036266    0.0088183    0.5858662  
H   -3.0835639    0.0000346   -0.6418822  
H   -2.4360043   -0.0011529   -3.5845924  
H   -0.1304091   -0.0013423   -3.9319089  
H    4.3715553    0.0004897   -1.3667133  
C    2.4951002    2.0940188    2.9809380  
C    1.9440701    1.6314916    1.8291961  
C    0.8759964    0.7350050    2.2038498  
C    0.8497377    0.7130254    3.6788474  
N    1.8560616    1.5571714    4.0882609  
C   -0.0205033   -0.0168748    4.4215661  
C   -0.9962600   -0.8356168    3.7214979  
O   -1.8224391   -1.5286685    4.3006425  
C   -0.9864710   -0.8277881    2.1595606  
O   -1.8030528   -1.5133726    1.5592035  
C    0.0000000    0.0000000    1.4700000  
H    2.2509283    1.8888011    0.8310761  
H   -0.0229599   -0.0187323    5.5027230  
H    3.3143982    2.7817323    3.1139444  
H    2.0889452    1.7545833    5.0442112  
