60

C    7.2533930   -3.2464617   -1.4112887  
C    6.7841712   -1.9938171   -1.7325052  
C    7.9142661   -1.1246105   -1.7768113  
C    9.0554863   -1.9098068   -1.4718357  
N    8.6185073   -3.1927533   -1.2533998  
C   10.3481616   -1.3791297   -1.4253392  
C   10.4914268   -0.0313096   -1.6918620  
O   11.7313981    0.5383355   -1.6603953  
C    9.3648447    0.7687145   -1.9977863  
O    9.6717430    2.0920027   -2.2387522  
C    8.0892619    0.2459158   -2.0435678  
H    9.2055451   -3.9752047   -1.0272653  
H   11.2220376   -1.9722036   -1.1933816  
H   11.6080300    1.4728046   -1.8720842  
H    8.8561473    2.5620944   -2.4373011  
H    7.2455518    0.8834592   -2.2805699  
H    6.7221382   -4.1736771   -1.2809095  
C    4.3047792   -2.1086498   -1.2859245  
C    5.3774559   -1.6442158   -1.9771117  
C    4.8701585   -0.7486134   -2.9897229  
C    3.4034921   -0.7291860   -2.8306571  
N    3.1250161   -1.5744517   -1.7814350  
C    2.5562217   -0.0001543   -3.6003001  
C    3.1269051    0.8199333   -4.6559103  
O    2.4474934    1.5122579   -5.4024940  
C    4.6776933    0.8144237   -4.8425422  
O    5.1696074    1.5006860   -5.7281634  
C    5.4870227   -0.0121788   -3.9505977  
H    6.5600128   -0.0102594   -4.0862903  
H    4.2768484   -2.7963880   -0.4563914  
H    2.2064275   -1.7712342   -1.4285628  
C    0.0000000    0.0000000    0.0000000  
C    1.0541688   -0.0001719   -0.8560391  
C    0.5103141   -0.0000449   -2.1935955  
C   -0.9576367    0.0002461   -2.0455733  
N   -1.2018459   -0.0001392   -0.6915970  
C   -1.8348306    0.0008319   -3.0810611  
C   -1.2972842    0.0009739   -4.4314605  
O   -2.0050664    0.0014267   -5.4301321  
C    0.2542628    0.0004190   -4.6117571  
O    0.7184677    0.0002263   -5.7439119  
C    1.0974556    0.0000880   -3.4189127  
H    2.0940752   -0.0005479   -0.5817978  
H   -2.9081050    0.0011669   -2.9507065  
H   -2.1128195    0.0014911   -0.2706793  
C    1.1319247   -0.0015655    2.2709268  
C    0.7969915   -0.0034943    3.5869401  
C   -0.6453339   -0.0035710    3.6542670  
C   -1.1266833   -0.0015433    2.2596025  
N    0.0000000    0.0000000    1.4700000  
C   -2.4346130   -0.0013964    1.8976294  
C   -3.4350110   -0.0031408    2.9520183  
O   -4.6384611   -0.0030974    2.7283916  
C   -2.9478959   -0.0050506    4.4361073  
O   -3.7809380   -0.0062218    5.3323774  
C   -1.5113823   -0.0053090    4.7012123  
H    1.4821238   -0.0045407    4.4159191  
H   -2.7664565   -0.0000232    0.8686553  
H   -1.1823530   -0.0068408    5.7314848  
H    2.1104316   -0.0009391    1.8188057  
