60

C    5.0683257    0.0004069    4.7309641  
C    6.2401498   -0.0006595    5.4515849  
C    7.3094647   -0.0022257    4.5075699  
C    6.7240633   -0.0017511    3.2155825  
N    5.3620486   -0.0020960    3.3874359  
C    7.4830558   -0.0026655    2.0413944  
C    8.8580561   -0.0037780    2.1738736  
O    9.6468623   -0.0043521    1.0599617  
C    9.4608143   -0.0046427    3.4543028  
O   10.8399901   -0.0061318    3.4194114  
C    8.7126698   -0.0040145    4.6130974  
H    6.3150287   -0.0014521    6.5255433  
H    4.6837119    0.0086732    2.6473514  
H   10.5609080   -0.0054024    1.3726649  
H   11.1671218   -0.0066086    4.3241701  
H    9.2024981   -0.0048870    5.5798166  
H    4.0462411    0.0013091    5.0690469  
C    6.8847521   -0.0023785    0.6986611  
C    5.5715633   -0.0012904    0.3713800  
C    5.5475443   -0.0015350   -1.0832412  
C    6.9721656   -0.0027414   -1.4795197  
N    7.7607267   -0.0033210   -0.4392506  
C    7.3784669   -0.0033612   -2.8579262  
C    6.4057885   -0.0031903   -3.7977300  
O    6.6406190   -0.0037039   -5.1209443  
C    4.9592110   -0.0023543   -3.4295275  
O    4.1279730   -0.0021183   -4.3374175  
C    4.5679461   -0.0016854   -2.0086701  
H    4.7238856   -0.0005185    1.0350950  
H    8.4267357   -0.0040357   -3.1187771  
H    5.7562743   -0.0034384   -5.5297073  
C    3.1301149   -0.0010311   -1.7028252  
C    2.5367768   -0.0002767   -0.4864665  
C    1.1089904    0.0001028   -0.7656183  
C    1.0177872   -0.0004148   -2.2415132  
N    2.1993578   -0.0011611   -2.7963820  
C   -0.2459209   -0.0002877   -2.9257118  
C   -1.3675319   -0.0000605   -2.1698524  
O   -2.6129313    0.0000867   -2.6748490  
C   -1.3083584    0.0000910   -0.6783232  
O   -2.3693261    0.0004206   -0.0541692  
C    0.0000000    0.0000000    0.0000000  
H    3.0096017   -0.0001007    0.4807525  
H   -0.2829630   -0.0004687   -4.0053125  
H   -3.1967441    0.0002094   -1.8949034  
C    0.8175213    0.6860729    2.3021913  
C    0.0000000    0.0000000    1.4700000  
C   -0.8887526   -0.7456559    2.3478473  
C   -0.4549825   -0.3816753    3.7138435  
N    0.5448156    0.4573574    3.6934124  
C   -1.0945674   -0.9182058    4.8835240  
C   -2.1210866   -1.7789155    4.6970523  
O   -2.8083856   -2.3554314    5.6976972  
C   -2.5824069   -2.1655116    3.3310774  
O   -3.5227682   -2.9541547    3.2362962  
C   -1.9100805   -1.6015804    2.1470656  
H   -0.7567140   -0.6349833    5.8697035  
H   -3.4728268   -2.9124471    5.2533954  
H   -2.2742832   -1.9066565    1.1752040  
H    1.6189533    1.3585343    2.0405121  
