60

C    5.8639415   -0.7151484    3.1572939  
C    6.9446511    0.0027517    2.6999616  
C    7.4612844    0.7313447    3.8120953  
C    6.6483439    0.4152548    4.9306397  
N    5.6869856   -0.4639812    4.4977980  
C    6.8674839    0.9552450    6.2015356  
C    7.9267606    1.8300306    6.3459662  
O    8.1859030    2.3860905    7.5652519  
C    8.7489706    2.1580552    5.2417979  
O    9.7620905    3.0434342    5.5468139  
C    8.5332052    1.6259289    3.9876790  
H    4.9729041   -0.8726134    5.0732000  
H    6.2514374    0.7184707    7.0580560  
H    8.9556869    2.9576077    7.4466578  
H   10.2697909    3.2118980    4.7471490  
H    9.1796448    1.8959930    3.1608416  
H    5.2044776   -1.3853731    2.6330184  
C    4.7795901    0.0008674   -1.0815733  
C    5.7862015    0.0008770   -1.9861793  
C    7.0047289    0.0013409   -1.1913895  
C    6.5351378    0.0016825    0.2107760  
N    5.2316823    0.0013264    0.2814340  
C    7.4495164    0.0021404    1.3193780  
C    8.7728604    0.0018632    1.0399218  
O    9.7375503    0.0022374    1.9755576  
C    9.2780074    0.0011447   -0.3647085  
O   10.4956959    0.0010500   -0.5448630  
C    8.3200394    0.0007288   -1.4846285  
H    5.7111080    0.0005128   -3.0601606  
H   10.5714816    0.0018715    1.4718618  
H    8.7261888    0.0000952   -2.4872616  
C    3.3321168    0.0004716   -1.3379341  
C    2.6974177    0.0000118   -2.5332316  
C    1.2800432   -0.0002116   -2.2052842  
C    1.2395033    0.0000644   -0.7271298  
N    2.4394059    0.0005460   -0.2131041  
C    0.0000000    0.0000000    0.0000000  
C   -1.1468704    0.0000635   -0.7169542  
O   -2.3742206    0.0000074   -0.1695488  
C   -1.1388774    0.0001608   -2.2096352  
O   -2.2206238    0.0000906   -2.7970409  
C    0.1454514    0.0001818   -2.9324241  
H    3.1367978   -0.0000649   -3.5160956  
H   -2.9844350    0.0001027   -0.9290164  
H    0.1083567    0.0003684   -4.0135594  
C    0.8400945    0.7047457    2.2710304  
C    0.0000000    0.0000000    1.4700000  
C   -0.8844236   -0.7423113    2.3369512  
C   -0.4878984   -0.4098547    3.7186280  
N    0.5629682    0.4714286    3.6095011  
C   -1.0836927   -0.9095027    4.8308716  
C   -2.1891196   -1.8367527    4.6554461  
O   -2.7906899   -2.3413415    5.5944904  
C   -2.6257283   -2.2031529    3.2011665  
O   -3.5549479   -2.9829990    3.0410059  
C   -1.9068976   -1.5999348    2.0816745  
H   -0.7774656   -0.6525820    5.8354244  
H   -2.2155208   -1.8586617    1.0779135  
H    1.6384792    1.3747609    1.9961646  
H    1.0518368    0.8833920    4.3830260  
