64

C    9.8694545    0.7157395   -0.7569282  
C    9.2840101   -0.0022190    0.2600569  
C   10.3249670   -0.7310734    0.9079602  
C   11.5340993   -0.4150755    0.2370867  
N   11.2214880    0.4643599   -0.7696331  
C   12.7688409   -0.9553169    0.6090328  
C   12.7832757   -1.8302640    1.6778814  
O   13.9619231   -2.3865704    2.0832559  
C   11.5872849   -2.1581994    2.3597010  
O   11.7667255   -3.0437624    3.4022574  
C   10.3687865   -1.6258263    1.9931435  
H   11.8795029    0.8729824   -1.4084016  
H   13.6939410   -0.7186139    0.1017251  
H   13.7505299   -2.9581655    2.8328266  
H   10.9112408   -3.2121509    3.8089455  
H    9.4694465   -1.8958278    2.5342218  
H    9.4293492    1.3861409   -1.4751405  
C    5.6685262    0.0007277   -2.2869310  
C    4.7390840    0.0009613   -1.2727298  
C    5.4635794   -0.0000956   -0.0440289  
C    6.8430309   -0.0006642   -0.3742391  
N    6.9321467   -0.0020935   -1.7441565  
C    7.8522877   -0.0014302    0.5933291  
C    7.4618845   -0.0013188    1.9183810  
O    8.4063109   -0.0016935    2.9038108  
C    6.0904957   -0.0011304    2.2678231  
O    5.8636451   -0.0014626    3.6286619  
C    5.0942998   -0.0006479    1.3138209  
H    7.7872775    0.0077866   -2.2701178  
H    7.9262124   -0.0018351    3.7421244  
H    4.9133155   -0.0012788    3.7785862  
H    4.0523279   -0.0006957    1.6117685  
H    5.5300625    0.0009044   -3.3545388  
C    3.2798077    0.0005856   -1.4499661  
C    2.5571132    0.0005565   -2.5996564  
C    1.1637425    0.0001547   -2.2210366  
C    1.1336959   -0.0000200   -0.7459475  
N    2.4483509   -0.0001429   -0.3402730  
C    0.0000000    0.0000000    0.0000000  
C   -1.2757370   -0.0000187   -0.6964411  
O   -2.3524597   -0.0000640   -0.1142306  
C   -1.2676502   -0.0000874   -2.2584078  
O   -2.3355774   -0.0004102   -2.8557287  
C    0.0181551    0.0001758   -2.9516297  
H    2.9547342    0.0006074   -3.5989118  
H    0.0150776    0.0003317   -4.0331632  
H    2.7563626    0.0012823    0.6148051  
C    2.5311839    2.1237619    3.0120429  
C    1.9795631    1.6616747    1.8395852  
C    0.9223175    0.7739173    2.1983588  
C    0.8753926    0.7337535    3.6154372  
N    1.8668922    1.5631002    4.0777464  
C   -0.0496243   -0.0427881    4.3197917  
C   -0.9437528   -0.7922060    3.5801400  
O   -1.8685244   -1.5680278    4.2172520  
C   -0.9124520   -0.7656372    2.1655264  
O   -1.8671164   -1.5663939    1.5732860  
C    0.0000000    0.0000000    1.4700000  
H    2.3005065    1.9304404    0.8477417  
H    2.0679347    1.7444845    5.0445261  
H   -0.0904770   -0.0778569    5.3997470  
H   -2.3849669   -2.0011402    3.5251786  
H   -1.7775064   -1.4909735    0.6183591  
H    3.3468514    2.8078103    3.1724291  
