62

C    9.1640960   -0.0000556   -0.9012117  
C   10.1534070    0.0007671   -1.8571035  
C   11.4008057    0.0006433   -1.1652960  
C   11.1071256   -0.0005637    0.2223915  
N    9.7400393    0.0009894    0.3476425  
C   12.1010002   -0.0013107    1.2057541  
C   13.4152850   -0.0011376    0.7805073  
O   14.4253027   -0.0021927    1.6985905  
C   13.7284008    0.0004353   -0.5996276  
O   15.0827776    0.0008285   -0.8623229  
C   12.7484343    0.0014463   -1.5702914  
H    9.9954403    0.0024859   -2.9220148  
H    9.2368341   -0.0099345    1.2163460  
H   11.8837405   -0.0020874    2.2649992  
H   15.2506502   -0.0015610    1.1965289  
H   15.2075632    0.0018821   -1.8162784  
H   13.0187711    0.0028267   -2.6197646  
C    6.5323605    0.0028964   -4.4466868  
C    7.6043844    0.0022111   -3.6131162  
C    7.0889174    0.0013271   -2.2643659  
C    5.6181661    0.0015261   -2.3813332  
N    5.3453984    0.0028889   -3.7298459  
C    4.7630507    0.0004755   -1.3275395  
C    5.3290148   -0.0007198    0.0111979  
O    4.6424951   -0.0016577    1.0246036  
C    6.8840258   -0.0006989    0.1586660  
O    7.3720521   -0.0013929    1.2807576  
C    7.7018220    0.0002121   -1.0517307  
H    8.6382631    0.0024955   -3.9092719  
H    6.5095812    0.0036231   -5.5243558  
H    4.4257329    0.0017847   -4.1314188  
C    3.3003548    0.0005276   -1.4738982  
C    2.5232817    0.0003497   -2.6090743  
C    1.1623204   -0.0001319   -2.1820101  
C    1.1711886    0.0000583   -0.7636140  
N    2.4852302   -0.0014919   -0.3662356  
C    0.0000000    0.0000000    0.0000000  
C   -1.2020379    0.0000520   -0.6806479  
O   -2.3759249    0.0003495    0.0157742  
C   -1.2314652   -0.0005112   -2.0955511  
O   -2.5054384   -0.0008036   -2.6250184  
C   -0.0764510   -0.0007271   -2.8495195  
H    2.8919962   -0.0005619   -3.6205297  
H    2.8036267    0.0088181    0.5858667  
H   -3.0835636    0.0000348   -0.6418823  
H   -2.4360038   -0.0011526   -3.5845925  
H   -0.1304090   -0.0013420   -3.9319089  
C    2.3971438    2.0127888    3.1728260  
C    1.9431056    1.6308205    1.9564670  
C    0.8496017    0.7127664    2.2356185  
C    0.7794028    0.6545384    3.7115134  
N    1.6840587    1.4146091    4.2663826  
C   -0.1885723   -0.1578550    4.3957118  
C   -1.0476298   -0.8789867    3.6398520  
O   -2.0015663   -1.6796266    4.1448486  
C   -1.0022026   -0.8410666    2.1483229  
O   -1.8147390   -1.5232959    1.5241687  
C    0.0000000    0.0000000    1.4700000  
H    2.3054237    1.9346118    0.9892483  
H   -0.2170646   -0.1815267    5.4753125  
H   -2.4487139   -2.0549881    3.3649027  
H    3.2048689    2.6911772    3.3971983  
