62

C   -0.2963294   -0.0005338   -4.3948469  
C    0.7248287   -0.0020289   -5.3166396  
C    0.1197348   -0.0021706   -6.6083287  
C   -1.2847550   -0.0004250   -6.4100066  
N   -1.5029813   -0.0014160   -5.0546494  
C   -2.1980210    0.0002432   -7.4686539  
C   -1.6841003   -0.0005639   -8.7508632  
O   -2.5311372    0.0003862   -9.8211639  
C   -0.2858198   -0.0026806   -8.9690928  
O    0.0686631   -0.0036733  -10.3023925  
C    0.6157255   -0.0036142   -7.9251870  
H    1.7764815   -0.0040143   -5.0863876  
H   -2.4039876    0.0099675   -4.6118856  
H   -3.2696198    0.0014283   -7.3241654  
H   -1.9739380   -0.0007158  -10.6103357  
H    1.0289089   -0.0050674  -10.3618041  
H    1.6811962   -0.0054203   -8.1232956  
C    3.1301144   -0.0010311   -1.7028257  
C    2.5367765   -0.0002766   -0.4864669  
C    1.1089900    0.0001028   -0.7656184  
C    1.0177865   -0.0004148   -2.2415134  
N    2.1993573   -0.0011611   -2.7963824  
C   -0.2459219   -0.0002876   -2.9257117  
C   -1.3675328   -0.0000605   -2.1698521  
O   -2.6129318    0.0000868   -2.6748487  
C   -1.3083586    0.0000910   -0.6783230  
O   -2.3693261    0.0004206   -0.0541687  
C    0.0000000    0.0000000    0.0000000  
H    3.0096014   -0.0001008    0.4807517  
H   -3.1967444    0.0002095   -1.8949028  
C    6.6962561   -0.0006583    0.9128033  
C    7.6449136   -0.0016134   -0.0834471  
C    6.9440353   -0.0023814   -1.3257711  
C    5.5585241   -0.0015569   -1.0219883  
N    5.4432386   -0.0024703    0.3459757  
C    4.5679458   -0.0016854   -2.0086709  
C    4.9836043   -0.0023571   -3.3260185  
O    4.0581859   -0.0021607   -4.3293204  
C    6.3614215   -0.0035604   -3.6491836  
O    6.6142413   -0.0045344   -5.0054377  
C    7.3392006   -0.0037075   -2.6763144  
H    8.7109485   -0.0028461    0.0667573  
H    4.5782206    0.0083750    0.8554928  
H    4.5542201   -0.0030158   -5.1583039  
H    7.5672628   -0.0052862   -5.1371699  
H    8.3866768   -0.0048230   -2.9542911  
H    6.8142882   -0.0002737    1.9828627  
C    0.0000000    0.0000000    1.4700000  
C    1.0662921    0.0000102    2.3034270  
C    0.4961870   -0.0000064    3.6418889  
C   -0.9663858    0.0000850    3.4240247  
N   -1.2632773    0.0000084    2.1528658  
C   -1.8985362    0.0000517    4.5177257  
C   -1.3925775   -0.0004564    5.7720543  
O   -2.1456383   -0.0005410    6.8851312  
C    0.0786232   -0.0009323    6.0245000  
O    0.4683759   -0.0012588    7.1921102  
C    1.0143166   -0.0008442    4.8859032  
H    2.1107198   -0.0000632    2.0421868  
H   -2.9622183    0.0003270    4.3293377  
H   -1.5042274   -0.0009692    7.6184419  
H    2.0724152   -0.0013148    5.1109744  
