60

C   -6.2907909    2.4082580   -0.4635766  
C   -7.3598009    2.6168157    0.3767735  
C   -8.0774926    1.3863507    0.4507632  
C   -7.3932737    0.4553119   -0.3719993  
N   -6.3143415    1.1089186   -0.9135900  
C   -7.8213232   -0.8653881   -0.5372689  
C   -8.9606750   -1.2533615    0.1406196  
O   -9.4224750   -2.5316453    0.0151483  
C   -9.6573542   -0.3388536    0.9659260  
O  -10.7733338   -0.8767496    1.5730520  
C   -9.2357991    0.9642781    1.1292205  
H   -7.5941883    3.5423115    0.8742818  
H   -7.3043775   -1.5798245   -1.1630073  
H  -10.2162516   -2.5901698    0.5626520  
H  -11.1852642   -0.1942528    2.1116755  
H   -9.7901502    1.6420060    1.7678582  
H   -5.5141914    3.0839483   -0.7786872  
C   -3.9834216    0.7255574   -1.7966820  
C   -5.3237513    0.5085124   -1.8186556  
C   -5.5825289   -0.4184178   -2.8950708  
C   -4.2737049   -0.7258290   -3.5027450  
N   -3.3460097   -0.0004262   -2.7913647  
C   -4.0918502   -1.5661140   -4.5527708  
C   -5.2633979   -2.2105865   -5.1225671  
O   -5.2038139   -2.9838462   -6.0695727  
C   -6.6595203   -1.8994021   -4.4950220  
O   -7.6531010   -2.4358507   -4.9664893  
C   -6.7288173   -0.9765485   -3.3648051  
H   -3.1230862   -1.7780461   -4.9834574  
H   -7.6992176   -0.7665470   -2.9359152  
H   -3.4077087    1.3549517   -1.1376624  
C    0.0000000    0.0000000    0.0000000  
C    1.0662919   -0.0000103   -0.8334272  
C    0.4961868    0.0000066   -2.1718889  
C   -0.9663860   -0.0000849   -1.9540248  
N   -1.2632775   -0.0000084   -0.6828659  
C   -1.8985364   -0.0000515   -3.0477258  
C   -1.3925778    0.0004567   -4.3020543  
O   -2.1456385    0.0005412   -5.4151314  
C    0.0786229    0.0009326   -4.5544999  
O    0.4683756    0.0012594   -5.7221104  
C    1.0143162    0.0008443   -3.4159034  
H    2.1107195    0.0000631   -0.5721869  
H   -1.5042277    0.0009692   -6.1484420  
H    2.0724151    0.0013151   -3.6409746  
C    1.1319247   -0.0015655    2.2709268  
C    0.7969915   -0.0034943    3.5869401  
C   -0.6453339   -0.0035710    3.6542670  
C   -1.1266833   -0.0015433    2.2596025  
N    0.0000000    0.0000000    1.4700000  
C   -2.4346130   -0.0013964    1.8976294  
C   -3.4350110   -0.0031408    2.9520183  
O   -4.6384611   -0.0030974    2.7283916  
C   -2.9478959   -0.0050506    4.4361073  
O   -3.7809380   -0.0062218    5.3323774  
C   -1.5113823   -0.0053090    4.7012123  
H    1.4821238   -0.0045407    4.4159191  
H   -2.7664565   -0.0000232    0.8686553  
H   -1.1823530   -0.0068408    5.7314848  
H    2.1104316   -0.0009391    1.8188057  
