64

C    5.4344911   -3.6311459   -1.0745419  
C    6.5284145   -4.4425008   -0.8808867  
C    7.3177614   -4.3671994   -2.0665765  
C    6.6498707   -3.4869983   -2.9560112  
N    5.5090647   -3.0595672   -2.3231753  
C    7.1445887   -3.1765025   -4.2263010  
C    8.3353837   -3.7650536   -4.6055033  
O    8.8635794   -3.4962889   -5.8350505  
C    9.0163928   -4.6462326   -3.7322522  
O   10.1887656   -5.1513659   -4.2554426  
C    8.5287895   -4.9532097   -2.4790430  
H    6.7318197   -5.0187069    0.0054583  
H    6.6402693   -2.5065429   -4.9089557  
H    9.6842716   -4.0022448   -5.8961929  
H   10.5856912   -5.7365384   -3.6030418  
H    9.0725104   -5.6318122   -1.8322471  
H    4.6062258   -3.4160589   -0.4213405  
C    4.5278027   -2.1194571   -2.8837265  
C    3.3823329   -1.6458105   -2.3290795  
C    2.7856145   -0.7523485   -3.2936976  
C    3.6837616   -0.7442612   -4.4641918  
N    4.7207730   -1.5927448   -4.1518260  
C    3.4699941   -0.0209495   -5.5923882  
C    2.2757340    0.8048556   -5.6581402  
O    1.9943433    1.4928400   -6.6306611  
C    1.3106478    0.8117466   -4.4299839  
O    0.3021851    1.5033786   -4.4736755  
C    1.6478437   -0.0100096   -3.2702997  
H    2.9992254   -1.8938567   -1.3552646  
H    4.1413736   -0.0292827   -6.4397904  
H    5.4970599   -1.7992790   -4.7532993  
C    1.1188642    0.0008224   -0.8003808  
C    0.0000000    0.0000000    0.0000000  
C   -1.1323861    0.0008899   -0.8673529  
C   -0.6382661    0.0019681   -2.1969282  
N    0.7324017    0.0038483   -2.1202240  
C   -1.4770912    0.0027320   -3.3154810  
C   -2.8395474    0.0020946   -3.0876860  
O   -3.7039199    0.0024426   -4.1440353  
C   -3.3517867    0.0013927   -1.7684331  
O   -4.7300496    0.0012363   -1.7073125  
C   -2.5248543    0.0009121   -0.6644818  
H   -1.1067568    0.0036992   -4.3313814  
H   -4.5940031    0.0021828   -3.7685133  
H   -4.9934602    0.0007260   -0.7819919  
H   -2.9462579    0.0005600    0.3339656  
H    2.1619896    0.0009357   -0.5342065  
C    0.8576279    0.7185626    2.2703808  
C    0.0000000    0.0000000    1.4700000  
C   -0.8668858   -0.7285659    2.3373528  
C   -0.4876752   -0.4117774    3.6669281  
N    0.5635254    0.4678311    3.5902241  
C   -1.1297612   -0.9515493    4.7854808  
C   -2.1738724   -1.8268314    4.5576857  
O   -2.8357962   -2.3827064    5.6140350  
C   -2.5667212   -2.1555554    3.2384331  
O   -3.6226318   -3.0413663    3.1773122  
C   -1.9335634   -1.6236449    2.1344818  
H    1.0363952    0.8769718    4.3757045  
H   -0.8454472   -0.7142436    5.8013813  
H   -3.5178062   -2.9546422    5.2385129  
H   -3.8247440   -3.2102924    2.2519915  
H   -2.2566033   -1.8942483    1.1360343  
H    1.6567807    1.3889844    2.0042067  
