60

C    8.1083968    2.1205730   -5.5653453  
C    7.4185349    1.6590941   -4.4682600  
C    8.2905239    0.7710470   -3.7714044  
C    9.5089985    0.7300876   -4.4963647  
N    9.3638008    1.5592598   -5.5808045  
C   10.6006891   -0.0469257   -4.0973044  
C   10.4598776   -0.7960057   -2.9452498  
O   11.4948185   -1.5722615   -2.5101206  
C    9.2518996   -0.7686439   -2.2084605  
O    9.2678390   -1.5691502   -1.0849487  
C    8.1744148   -0.0025411   -2.6017016  
H    6.4103997    1.9284410   -4.2034797  
H   10.0694641    1.7401207   -6.2716785  
H   11.5320331   -0.0826012   -4.6455085  
H   11.1904770   -2.0050307   -1.7018184  
H    8.4154862   -1.4931889   -0.6452568  
H    7.8037615    2.8046006   -6.3388192  
C    5.6706436   -0.0000133   -2.2998306  
C    6.9366746   -0.0017199   -1.8086710  
C    6.8296106   -0.0022716   -0.3687500  
C    5.3870837   -0.0007647   -0.0590647  
N    4.7390840    0.0009613   -1.2727298  
C    4.8700559   -0.0011563    1.1956809  
C    5.7961363   -0.0029726    2.3159070  
O    5.4290426   -0.0033969    3.4836151  
C    7.3281306   -0.0043366    2.0112798  
O    8.1174235   -0.0055632    2.9463069  
C    7.7645002   -0.0040372    0.6172090  
H    3.8085777   -0.0001594    1.4010418  
H    8.8269284   -0.0051935    0.4147985  
H    5.3397978    0.0008313   -3.3257105  
C    3.2798077    0.0005856   -1.4499661  
C    2.5571132    0.0005565   -2.5996564  
C    1.1637425    0.0001547   -2.2210366  
C    1.1336959   -0.0000200   -0.7459475  
N    2.4483509   -0.0001429   -0.3402730  
C    0.0000000    0.0000000    0.0000000  
C   -1.2757370   -0.0000187   -0.6964411  
O   -2.3524597   -0.0000640   -0.1142306  
C   -1.2676502   -0.0000874   -2.2584078  
O   -2.3355774   -0.0004102   -2.8557287  
C    0.0181551    0.0001758   -2.9516297  
H    2.9547342    0.0006074   -3.5989118  
H    0.0150776    0.0003317   -4.0331632  
H    2.7563626    0.0012823    0.6148051  
C    2.5128556    2.1077716    2.9199648  
C    1.9592212    1.6432552    4.0696553  
C    0.8915788    0.7479214    3.6910360  
C    0.8684491    0.7287414    2.2159470  
N    1.8754542    1.5738793    1.8102719  
C    0.0000000    0.0000000    1.4700000  
C   -0.9772830   -0.8200135    2.1664417  
O   -1.8021297   -1.5120829    1.5842315  
C   -0.9711318   -0.8147624    3.7284083  
O   -1.7894187   -1.5009653    4.3257297  
C    0.0140216    0.0115358    4.4216297  
H    2.2638494    1.8988021    5.0689105  
H    0.0117648    0.0094386    5.5031631  
H    3.3327358    2.7953732    2.7900019  
H    2.1123206    1.7707734    0.8551938  
