64

C    5.6607617   -0.0163855   -2.2932973  
C    6.9286108   -0.0269757   -1.7595243  
C    6.7830848   -0.0173779   -0.3406057  
C    5.3917871   -0.0011660   -0.0650081  
N    4.7390844    0.0009612   -1.2727295  
C    4.8785140    0.0113254    1.2354476  
C    5.7862817    0.0070720    2.2766576  
O    5.3393696    0.0184375    3.5662901  
C    7.1782829   -0.0086635    2.0218985  
O    7.9523725   -0.0106009    3.1638819  
C    7.6853528   -0.0207192    0.7392214  
H    7.8455658   -0.0389094   -2.3234797  
H    3.8192327    0.0238500    1.4521686  
H    6.1255035    0.0133026    4.1277465  
H    8.8784936   -0.0215793    2.9035307  
H    8.7565286   -0.0324764    0.5751402  
H    5.3410111   -0.0183875   -3.3212632  
C    3.2798077    0.0005856   -1.4499659  
C    2.5571132    0.0005565   -2.5996562  
C    1.1637425    0.0001548   -2.2210364  
C    1.1336957   -0.0000200   -0.7459472  
N    2.4483508   -0.0001429   -0.3402728  
C    0.0000000    0.0000000    0.0000000  
C   -1.2757370   -0.0000187   -0.6964410  
O   -2.3524597   -0.0000640   -0.1142306  
C   -1.2676501   -0.0000873   -2.2584079  
O   -2.3355772   -0.0004101   -2.8557287  
C    0.0181552    0.0001759   -2.9516296  
H    2.9547343    0.0006074   -3.5989115  
H    2.7563624    0.0012823    0.6148054  
C    0.8794582   -0.7145257   -5.2160933  
C    0.5955917   -0.4617439   -6.5382082  
C   -0.4970057    0.4549265   -6.5615828  
C   -0.8400734    0.7280596   -5.2126461  
N    0.0139724    0.0003878   -4.4216237  
C   -1.8777244    1.5949322   -4.8568368  
C   -2.5816811    2.1972823   -5.8814324  
O   -3.6044982    3.0528904   -5.5902386  
C   -2.2546242    1.9371361   -7.2335327  
O   -3.0482369    2.6129380   -8.1373106  
C   -1.2312572    1.0818489   -7.5852852  
H    1.1117253   -0.8867157   -7.3820081  
H   -2.1442541    1.8071798   -3.8306227  
H   -3.9558005    3.3567905   -6.4372902  
H   -2.7615789    2.3818067   -9.0261351  
H   -1.0039859    0.9019502   -8.6295374  
H    1.6298884   -1.3493284   -4.7769584  
C    2.5311839    2.1237619    3.0120429  
C    1.9795631    1.6616747    1.8395852  
C    0.9223175    0.7739173    2.1983588  
C    0.8753926    0.7337535    3.6154372  
N    1.8668922    1.5631002    4.0777464  
C   -0.0496243   -0.0427881    4.3197917  
C   -0.9437528   -0.7922060    3.5801400  
O   -1.8685244   -1.5680278    4.2172520  
C   -0.9124520   -0.7656372    2.1655264  
O   -1.8671164   -1.5663939    1.5732860  
C    0.0000000    0.0000000    1.4700000  
H    2.3005065    1.9304404    0.8477417  
H    2.0679347    1.7444845    5.0445261  
H   -0.0904770   -0.0778569    5.3997470  
H   -2.3849669   -2.0011402    3.5251786  
H   -1.7775064   -1.4909735    0.6183591  
H    3.3468514    2.8078103    3.1724291  
