64

C    3.1549552   -0.7111167   -7.3168838  
C    4.4093383   -0.4610123   -7.8232813  
C    4.2456777    0.4463948   -8.9115955  
C    2.8577373    0.7168982   -9.0228403  
N    2.2241544   -0.0033736   -8.0408025  
C    2.3297950    1.5750513   -9.9921899  
C    3.2192034    2.1712258  -10.8649486  
O    2.7574714    3.0182263  -11.8305610  
C    4.6075263    1.9135723  -10.7701279  
O    5.3625534    2.5824636  -11.7113294  
C    5.1290298    1.0668848   -9.8142615  
H    5.3290618   -0.8817842   -7.4544281  
H    1.2729624    1.7852516  -10.0823156  
H    3.5321762    3.3189752  -12.3231529  
H    6.2874351    2.3535784  -11.5778761  
H    6.1969308    0.8886972   -9.7661572  
H    2.8504354   -1.3394699   -6.4974951  
C   -0.1496416   -0.0015616   -4.3176961  
C    0.8605985   -0.0020604   -5.2251593  
C    0.2508226   -0.0027743   -6.5339786  
C   -1.2079377   -0.0026204   -6.3130522  
N   -1.3844307   -0.0022742   -4.9485963  
C   -2.1355997   -0.0027544   -7.3035815  
C   -1.6659552   -0.0032973   -8.6790705  
O   -2.4225826   -0.0035177   -9.6412627  
C   -0.1253092   -0.0037208   -8.9363927  
O    0.2819511   -0.0044860  -10.0902551  
C    0.7762285   -0.0032482   -7.7870095  
H    1.9128694   -0.0021242   -5.0030344  
H   -3.2010529   -0.0025071   -7.1199511  
H   -2.2733177   -0.0005425   -4.4828452  
C    3.3003544    0.0005274   -1.4738988  
C    2.5232813    0.0003494   -2.6090747  
C    1.1623199   -0.0001321   -2.1820103  
C    1.1711883    0.0000582   -0.7636141  
N    2.4852299   -0.0014920   -0.3662360  
C    0.0000000    0.0000000    0.0000000  
C   -1.2020383    0.0000519   -0.6806477  
O   -2.3759250    0.0003494    0.0157744  
C   -1.2314656   -0.0005115   -2.0955510  
O   -2.5054391   -0.0008040   -2.6250180  
C   -0.0764517   -0.0007275   -2.8495195  
H    2.8919953   -0.0005622   -3.6205304  
H    2.8036267    0.0088182    0.5858661  
H   -3.0835639    0.0000346   -0.6418817  
H   -2.4360050   -0.0011531   -3.5845921  
H    4.3715546    0.0004893   -1.3667137  
C    2.5285572    2.1210227    2.9438989  
C    1.9331703    1.6216660    4.0790748  
C    0.8903039    0.7472258    3.6520102  
C    0.8972198    0.7527806    2.2336141  
N    1.9028376    1.5986179    1.8362361  
C    0.0000000    0.0000000    1.4700000  
C   -0.9207814   -0.7726952    2.1506477  
O   -1.8198395   -1.5274828    1.4542253  
C   -0.9436862   -0.7911793    3.5655508  
O   -1.9197945   -1.6098497    4.0950179  
C   -0.0590329   -0.0485852    4.3195194  
H    2.2150357    1.8593692    5.0905303  
H    2.1533708    1.7953814    0.8841339  
H   -2.3621246   -1.9821033    2.1118817  
H   -1.8668290   -1.5649508    5.0545920  
H   -0.1007624   -0.0827977    5.4019087  
H    3.3491200    2.8096064    2.8367138  
