64

C    8.1972636   -0.7256307    0.7001437  
C    8.7198847   -0.0069937   -0.3500450  
C    9.8373220    0.7196192    0.1578585  
C    9.9491485    0.4016176    1.5356451  
N    8.9368218   -0.4768023    1.8326132  
C   10.9441502    0.9393672    2.3575857  
C   11.8428153    1.8138367    1.7780330  
O   12.8345492    2.3677438    2.5347790  
C   11.7474024    2.1437467    0.4051266  
O   12.7157080    3.0285309   -0.0225242  
C   10.7659023    1.6138319   -0.4062758  
H    8.7696097   -0.8864001    2.7338628  
H   11.0346867    0.7011286    3.4084176  
H   13.3418709    2.9394227    1.9439550  
H   12.5799526    3.1983656   -0.9597168  
H   10.7178016    1.8853061   -1.4543534  
H    7.3546073   -1.3948973    0.7313047  
C    4.5679461   -0.0016854   -2.0086701  
C    5.6536972   -0.0028960   -1.1639156  
C    6.8200674   -0.0036843   -1.9850010  
C    6.3798482   -0.0026079   -3.3333824  
N    5.0072029   -0.0033585   -3.3118965  
C    7.2630029   -0.0026836   -4.4172763  
C    8.6151888   -0.0035606   -4.1348421  
O    9.5213681   -0.0033235   -5.1555539  
C    9.0739284   -0.0050162   -2.7960464  
O   10.4486143   -0.0061739   -2.6795157  
C    8.2032438   -0.0052157   -1.7262640  
H    5.6103771   -0.0042819   -0.0882231  
H    4.4140952    0.0076777   -4.1218860  
H    6.9338474   -0.0020111   -5.4472560  
H   10.3956198   -0.0043445   -4.7445210  
H   10.6745774   -0.0070905   -1.7443453  
C    3.1301149   -0.0010311   -1.7028252  
C    2.5367768   -0.0002767   -0.4864665  
C    1.1089904    0.0001028   -0.7656183  
C    1.0177872   -0.0004148   -2.2415132  
N    2.1993578   -0.0011611   -2.7963820  
C   -0.2459209   -0.0002877   -2.9257118  
C   -1.3675319   -0.0000605   -2.1698524  
O   -2.6129313    0.0000867   -2.6748490  
C   -1.3083584    0.0000910   -0.6783232  
O   -2.3693261    0.0004206   -0.0541692  
C    0.0000000    0.0000000    0.0000000  
H    3.0096017   -0.0001007    0.4807525  
H   -0.2829630   -0.0004687   -4.0053125  
H   -3.1967441    0.0002094   -1.8949034  
C    2.5285572    2.1210227    2.9438989  
C    1.9331703    1.6216660    4.0790748  
C    0.8903039    0.7472258    3.6520102  
C    0.8972198    0.7527806    2.2336141  
N    1.9028376    1.5986179    1.8362361  
C    0.0000000    0.0000000    1.4700000  
C   -0.9207814   -0.7726952    2.1506477  
O   -1.8198395   -1.5274828    1.4542253  
C   -0.9436862   -0.7911793    3.5655508  
O   -1.9197945   -1.6098497    4.0950179  
C   -0.0590329   -0.0485852    4.3195194  
H    2.2150357    1.8593692    5.0905303  
H    2.1533708    1.7953814    0.8841339  
H   -2.3621246   -1.9821033    2.1118817  
H   -1.8668290   -1.5649508    5.0545920  
H   -0.1007624   -0.0827977    5.4019087  
H    3.3491200    2.8096064    2.8367138  
