62

C    0.8696307   -1.0761641   -7.7091951  
C    1.9207932   -1.9622499   -7.7579480  
C    2.1816660   -2.2233775   -9.1357569  
C    1.2503568   -1.4619358   -9.8872862  
N    0.4674653   -0.7785704   -8.9902304  
C    1.2159561   -1.4746708  -11.2849424  
C    2.1387098   -2.2703404  -11.9357980  
O    2.1495661   -2.3196853  -13.2997849  
C    3.0756595   -3.0375874  -11.2034907  
O    3.9278618   -3.7785644  -11.9959852  
C    3.1099983   -3.0257189   -9.8246478  
H    2.4354454   -2.3710680   -6.9053087  
H   -0.2752256   -0.1473946   -9.2310797  
H    0.5085760   -0.8967353  -11.8635675  
H    2.8606702   -2.9257003  -13.5454302  
H    4.5278080   -4.2667593  -11.4238545  
H    3.8391291   -3.6240969   -9.2909915  
C    0.5157023   -0.7055389   -5.2240925  
C   -0.2963293   -0.0005341   -4.3948471  
C   -1.2098552    0.7417638   -5.2310887  
C   -0.8609896    0.4090171   -6.6254926  
N    0.1928750   -0.4724045   -6.5523132  
C   -1.4945018    0.9085675   -7.7167381  
C   -2.5931303    1.8360112   -7.5036697  
O   -3.2264755    2.3405325   -8.4216202  
C   -2.9795613    2.2027198   -6.0353367  
O   -3.9026312    2.9827311   -5.8435407  
C   -2.2228515    1.5995820   -4.9410482  
H   -1.2229386    0.6514332   -8.7311565  
H   -2.4968364    1.8585229   -3.9273394  
H    1.3229470   -1.3756268   -4.9766502  
C    3.1301146   -0.0010313   -1.7028256  
C    2.5367765   -0.0002766   -0.4864669  
C    1.1089901    0.0001027   -0.7656184  
C    1.0177865   -0.0004150   -2.2415133  
N    2.1993571   -0.0011612   -2.7963824  
C   -0.2459219   -0.0002879   -2.9257116  
C   -1.3675326   -0.0000606   -2.1698520  
O   -2.6129318    0.0000865   -2.6748483  
C   -1.3083588    0.0000910   -0.6783229  
O   -2.3693264    0.0004206   -0.0541685  
C    0.0000000    0.0000000    0.0000000  
H    3.0096016   -0.0001007    0.4807518  
H   -3.1967444    0.0002093   -1.8949026  
H    4.1849275   -0.0015114   -1.9271979  
C    0.8576279    0.7185626    2.2703808  
C    0.0000000    0.0000000    1.4700000  
C   -0.8668858   -0.7285659    2.3373528  
C   -0.4876752   -0.4117774    3.6669281  
N    0.5635254    0.4678311    3.5902241  
C   -1.1297612   -0.9515493    4.7854808  
C   -2.1738724   -1.8268314    4.5576857  
O   -2.8357962   -2.3827064    5.6140350  
C   -2.5667212   -2.1555554    3.2384331  
O   -3.6226318   -3.0413663    3.1773122  
C   -1.9335634   -1.6236449    2.1344818  
H    1.0363952    0.8769718    4.3757045  
H   -0.8454472   -0.7142436    5.8013813  
H   -3.5178062   -2.9546422    5.2385129  
H   -3.8247440   -3.2102924    2.2519915  
H   -2.2566033   -1.8942483    1.1360343  
H    1.6567807    1.3889844    2.0042067  
