64

C   -0.1496416   -0.0015610   -4.3176964  
C    0.8570957   -0.0030495   -5.2552170  
C    0.2320386   -0.0039081   -6.5373647  
C   -1.1692064   -0.0025865   -6.3172808  
N   -1.3663827   -0.0031296   -4.9587018  
C   -2.0987838   -0.0026545   -7.3616348  
C   -1.6048140   -0.0037757   -8.6516622  
O   -2.4683515   -0.0035428   -9.7086931  
C   -0.2100863   -0.0054783   -8.8915542  
O    0.1236728   -0.0068617  -10.2301905  
C    0.7075436   -0.0056854   -7.8617573  
H    1.9121943   -0.0045706   -5.0413047  
H   -2.2604162    0.0081044   -4.5020192  
H   -3.1680130   -0.0017956   -7.2005417  
H   -1.9234604   -0.0047523  -10.5064137  
H    1.0828822   -0.0079365  -10.3044895  
C    3.3003543    0.0005277   -1.4738984  
C    2.5232812    0.0003499   -2.6090751  
C    1.1623199   -0.0001318   -2.1820105  
C    1.1711882    0.0000584   -0.7636141  
N    2.4852300   -0.0014919   -0.3662360  
C    0.0000000    0.0000000    0.0000000  
C   -1.2020385    0.0000521   -0.6806475  
O   -2.3759251    0.0003494    0.0157743  
C   -1.2314656   -0.0005111   -2.0955507  
O   -2.5054392   -0.0008036   -2.6250179  
C   -0.0764517   -0.0007271   -2.8495198  
H    2.8919953   -0.0005617   -3.6205304  
H    2.8036265    0.0088181    0.5858659  
H   -3.0835640    0.0000348   -0.6418820  
H   -2.4360052   -0.0011525   -3.5845925  
H    4.3715548    0.0004896   -1.3667136  
C    4.0912544   -2.1291792   -5.9643496  
C    5.0866596   -1.6317763   -6.7731926  
C    4.4626118   -0.7574088   -7.7116198  
C    3.0736697   -0.7609919   -7.4239518  
N    2.8822617   -1.6056369   -6.3587966  
C    2.1484304   -0.0077243   -8.1528609  
C    2.6342078    0.7634399   -9.1908892  
O    1.7744682    1.5186201   -9.9349084  
C    4.0165762    0.7799470   -9.4935504  
O    4.3432673    1.5972607  -10.5559125  
C    4.9298847    0.0368712   -8.7750575  
H    6.1336080   -1.8707027   -6.6969942  
H    1.9983861   -1.8009202   -5.9245039  
H    2.3122712    1.9719828  -10.5970977  
H    5.2942710    1.5510647  -10.6939802  
H    5.9826163    0.0695558   -9.0303365  
H    4.1478396   -2.8170909   -5.1381930  
C    2.5128556    2.1077716    2.9199648  
C    1.9592212    1.6432552    4.0696553  
C    0.8915788    0.7479214    3.6910360  
C    0.8684491    0.7287414    2.2159470  
N    1.8754542    1.5738793    1.8102719  
C    0.0000000    0.0000000    1.4700000  
C   -0.9772830   -0.8200135    2.1664417  
O   -1.8021297   -1.5120829    1.5842315  
C   -0.9711318   -0.8147624    3.7284083  
O   -1.7894187   -1.5009653    4.3257297  
C    0.0140216    0.0115358    4.4216297  
H    2.2638494    1.8988021    5.0689105  
H    0.0117648    0.0094386    5.5031631  
H    3.3327358    2.7953732    2.7900019  
H    2.1123206    1.7707734    0.8551938  
