60

C    0.5317506   -0.0063263   -7.6955697  
C   -0.4869513   -0.0037001   -6.7710660  
C   -1.7121194   -0.0042226   -7.5015197  
C   -1.3752155   -0.0075203   -8.8793474  
N   -0.0048816   -0.0067748   -8.9618136  
C   -2.3378723   -0.0091939   -9.8932899  
C   -3.6648038   -0.0078148   -9.5093269  
O   -4.6456375   -0.0096971  -10.4585254  
C   -4.0208997   -0.0041528   -8.1396551  
O   -5.3828249   -0.0027641   -7.9194177  
C   -3.0717460   -0.0022268   -7.1388414  
H   -0.3623412   -0.0005537   -5.7017412  
H    0.5252221   -0.0191551   -9.8143510  
H   -2.0876149   -0.0115632  -10.9452252  
H   -5.4862719   -0.0079770   -9.9825050  
H   -5.5373614   -0.0003090   -6.9698303  
H   -3.3747497    0.0007571   -6.0983326  
C    2.8699641   -0.0020527   -4.0185824  
C    4.1392623   -0.0034667   -4.4881134  
C    4.0033708   -0.0054224   -5.9365711  
C    2.5438437   -0.0050007   -6.1739829  
N    1.8743087   -0.0029474   -5.0533987  
C    1.9886056   -0.0065216   -7.4994241  
C    2.8521782   -0.0079903   -8.5403738  
O    2.4734356   -0.0095116   -9.8297887  
C    4.3304450   -0.0080814   -8.3332797  
O    5.0569379   -0.0095850   -9.3269732  
C    4.8753994   -0.0065472   -6.9639921  
H    5.0547093   -0.0031234   -3.9215169  
H    3.3075344   -0.0102818  -10.3332085  
H    5.9518173   -0.0065508   -6.8564976  
C    3.2573673   -0.0002921   -1.5109381  
C    2.5379469   -0.0001710   -0.3591962  
C    1.1435042    0.0000332   -0.7338498  
C    1.1092607   -0.0000083   -2.2088474  
N    2.4227562    0.0001908   -2.6182610  
C   -0.0265532   -0.0002523   -2.9515663  
C   -1.3003033   -0.0002639   -2.2514979  
O   -2.3786784   -0.0004132   -2.8306425  
C   -1.2877726    0.0000312   -0.6895609  
O   -2.3539956    0.0003308   -0.0892035  
C    0.0000000    0.0000000    0.0000000  
H    2.9384091   -0.0000368    0.6389240  
H   -0.0296292   -0.0004086   -4.0327231  
H    4.3270395   -0.0004765   -1.6439444  
C    2.3971438    2.0127888    3.1728260  
C    1.9431056    1.6308205    1.9564670  
C    0.8496017    0.7127664    2.2356185  
C    0.7794028    0.6545384    3.7115134  
N    1.6840587    1.4146091    4.2663826  
C   -0.1885723   -0.1578550    4.3957118  
C   -1.0476298   -0.8789867    3.6398520  
O   -2.0015663   -1.6796266    4.1448486  
C   -1.0022026   -0.8410666    2.1483229  
O   -1.8147390   -1.5232959    1.5241687  
C    0.0000000    0.0000000    1.4700000  
H    2.3054237    1.9346118    0.9892483  
H   -0.2170646   -0.1815267    5.4753125  
H   -2.4487139   -2.0549881    3.3649027  
H    3.2048689    2.6911772    3.3971983  
