62

C    3.5771164   -3.3807377   -7.4329717  
C    4.4614504   -3.3701697   -8.4866840  
C    4.4927559   -2.0361227   -8.9906076  
C    3.5998170   -1.2706507   -8.1977390  
N    3.0593703   -2.1180895   -7.2626556  
C    3.3781685    0.0932123   -8.4111379  
C    4.0707785    0.6953710   -9.4435499  
O    3.8922044    2.0248955   -9.6955192  
C    4.9657756   -0.0516407  -10.2459031  
O    5.5790028    0.6910136  -11.2337094  
C    5.1847246   -1.3972186  -10.0361235  
H    5.0149606   -4.2197434   -8.8484079  
H    2.6988304    0.6822002   -7.8104770  
H    4.4611231    2.2393431  -10.4462565  
H    6.1663029    0.1120531  -11.7291758  
H    5.8761838   -1.9432646  -10.6671510  
H    3.2736408   -4.1893645   -6.7903330  
C    2.0485057   -2.1404841   -4.9352597  
C    2.0920573   -1.7327542   -6.2250031  
C    0.9665699   -0.8221932   -6.3687265  
C    0.3351121   -0.7962139   -5.0318754  
N    0.9649966   -1.5669927   -4.1874018  
C   -0.8287665    0.0000939   -4.7555305  
C   -1.3384143    0.7372509   -5.7685427  
O   -2.4204377    1.5257894   -5.6524722  
C   -0.7235769    0.7324747   -7.1287312  
O   -1.2406172    1.4276562   -8.0031528  
C    0.4698622   -0.0926718   -7.3871123  
H   -2.5373018    1.9181274   -6.5365345  
H    0.8852521   -0.0684847   -8.3856596  
H    2.7147576   -2.8226586   -4.4315535  
C    1.0672569   -0.0000698   -0.8321910  
C    0.0000000    0.0000000    0.0000000  
C   -1.1601223   -0.0000736   -0.8778472  
C   -0.5938729   -0.0000768   -2.2438435  
N    0.7113367   -0.0001553   -2.2234123  
C   -1.4286985   -0.0001877   -3.4135239  
C   -2.7683113   -0.0006798   -3.2270524  
O   -3.6653902   -0.0008302   -4.2276970  
C   -3.3702024   -0.0010610   -1.8610774  
O   -4.5974910   -0.0013779   -1.7662963  
C   -2.4926825   -0.0008943   -0.6770658  
H   -4.5324245   -0.0012258   -3.7833954  
H   -2.9677772   -0.0012974    0.2947961  
H    2.1134391   -0.0000547   -0.5705119  
C    2.5285572    2.1210227    2.9438989  
C    1.9331703    1.6216660    4.0790748  
C    0.8903039    0.7472258    3.6520102  
C    0.8972198    0.7527806    2.2336141  
N    1.9028376    1.5986179    1.8362361  
C    0.0000000    0.0000000    1.4700000  
C   -0.9207814   -0.7726952    2.1506477  
O   -1.8198395   -1.5274828    1.4542253  
C   -0.9436862   -0.7911793    3.5655508  
O   -1.9197945   -1.6098497    4.0950179  
C   -0.0590329   -0.0485852    4.3195194  
H    2.2150357    1.8593692    5.0905303  
H    2.1533708    1.7953814    0.8841339  
H   -2.3621246   -1.9821033    2.1118817  
H   -1.8668290   -1.5649508    5.0545920  
H   -0.1007624   -0.0827977    5.4019087  
H    3.3491200    2.8096064    2.8367138  
