62

C    7.6255312   -0.6160754   -4.6104450  
C    7.1253132    0.6281521   -4.9172788  
C    8.2371440    1.5192838   -4.9829837  
C    9.3996735    0.7555217   -4.7052835  
N    8.9924395   -0.5363113   -4.4817998  
C   10.6825319    1.3110823   -4.6848437  
C   10.7938800    2.6622096   -4.9498620  
O   12.0229772    3.2557504   -4.9431832  
C    9.6456741    3.4410833   -5.2287757  
O    9.9216128    4.7707892   -5.4718481  
C    8.3797639    2.8937307   -5.2488427  
H    9.5992665   -1.3078673   -4.2709834  
H   11.5725330    0.7344242   -4.4737440  
H   11.8769932    4.1882632   -5.1490284  
H    9.0929698    5.2255226   -5.6512138  
H    7.5189457    3.5154498   -5.4654852  
H    7.1152724   -1.5538196   -4.4717735  
C    3.4561763   -0.7190138   -2.8481102  
C    2.5562217   -0.0001543   -3.6003001  
C    3.3101151    0.7284357   -4.5674617  
C    4.6762621    0.4113550   -4.3552633  
N    4.7296901   -0.4684434   -3.3027815  
C    5.7071390    0.9510662   -5.1303717  
C    5.3524129    1.8265868   -6.1382457  
O    6.3191170    2.3824152   -6.9253621  
C    3.9948292    2.1556039   -6.3652500  
O    3.8040494    3.0416284   -7.4053983  
C    2.9773417    1.6237533   -5.6008022  
H    5.5674400   -0.8778045   -2.9305179  
H    5.8624166    2.9545440   -7.5557260  
H    2.8608924    3.2107457   -7.4917594  
H    1.9467145    1.8945832   -5.7981255  
H    3.2905207   -1.3895455   -2.0223352  
C    0.0000000    0.0000000    0.0000000  
C    1.0541688   -0.0001719   -0.8560391  
C    0.5103141   -0.0000449   -2.1935955  
C   -0.9576367    0.0002461   -2.0455733  
N   -1.2018459   -0.0001392   -0.6915970  
C   -1.8348306    0.0008319   -3.0810611  
C   -1.2972842    0.0009739   -4.4314605  
O   -2.0050664    0.0014267   -5.4301321  
C    0.2542628    0.0004190   -4.6117571  
O    0.7184677    0.0002263   -5.7439119  
C    1.0974556    0.0000880   -3.4189127  
H    2.0940752   -0.0005479   -0.5817978  
H   -2.9081050    0.0011669   -2.9507065  
H   -2.1128195    0.0014911   -0.2706793  
C    3.1301144    0.0010313    3.1728260  
C    2.5367765    0.0002768    1.9564670  
C    1.1089900   -0.0001027    2.2356185  
C    1.0177864    0.0004150    3.7115134  
N    2.1993570    0.0011613    4.2663826  
C   -0.2459220    0.0002880    4.3957118  
C   -1.3675327    0.0000606    3.6398520  
O   -2.6129319   -0.0000866    4.1448486  
C   -1.3083589   -0.0000910    2.1483229  
O   -2.3693264   -0.0004206    1.5241687  
C    0.0000000    0.0000000    1.4700000  
H    3.0096015    0.0001008    0.9892483  
H   -0.2829642    0.0004689    5.4753125  
H   -3.1967446   -0.0002093    3.3649027  
H    4.1849273    0.0015113    3.3971983  
