62

C    1.1631245   -1.0317495   -7.3491564  
C    2.1774589   -1.9170362   -7.0665590  
C    2.8795980   -2.1489071   -8.2863276  
C    2.2430122   -1.3712644   -9.2873051  
N    1.2036962   -0.7068077   -8.6848644  
C    2.6712820   -1.3542537  -10.6181268  
C    3.7622385   -2.1362842  -10.9443465  
O    4.2223808   -2.1566107  -12.2292095  
C    4.4105231   -2.9193246   -9.9597696  
O    5.4811944   -3.6436331  -10.4418332  
C    3.9884020   -2.9368014   -8.6467452  
H    2.3850194   -2.3441118   -6.1003716  
H    0.5777282   -0.0703422   -9.1442733  
H    2.1903335   -0.7638467  -11.3857921  
H    4.9787082   -2.7575601  -12.2388977  
H    5.8622615   -4.1441372   -9.7138994  
H    4.5048417   -3.5466987   -7.9147664  
C    0.0031970   -0.7071078   -5.1230241  
C    0.1388997   -0.4524512   -6.4680901  
C   -0.8935435    0.4649982   -6.8243875  
C   -1.6340125    0.7366523   -5.6454751  
N   -1.0641734    0.0073898   -4.6315339  
C   -2.7305590    1.6037846   -5.6240978  
C   -3.0858951    2.2079197   -6.8144484  
O   -4.1484937    3.0638589   -6.8500304  
C   -2.3596892    1.9492668   -8.0012683  
O   -2.8374178    2.6267615   -9.1040466  
C   -1.2779801    1.0937250   -8.0231517  
H   -3.2991463    1.8149106   -4.7289240  
H   -4.2227706    3.3690762   -7.7635898  
H   -2.2918478    2.3965635   -9.8623115  
H   -0.7412105    0.9149973   -8.9474970  
H    0.5824525   -1.3429831   -4.4756569  
C    1.1319248    0.0015675   -0.8009270  
C    0.7969916    0.0034959   -2.1169404  
C   -0.6453336    0.0035703   -2.1842672  
C   -1.1266831    0.0015415   -0.7896027  
N    0.0000000    0.0000000    0.0000000  
C   -2.4346129    0.0013924   -0.4276297  
C   -3.4350110    0.0031352   -1.4820184  
O   -4.6384610    0.0030897   -1.2583919  
C   -2.9478958    0.0050460   -2.9661075  
O   -3.7809377    0.0062160   -3.8623775  
C   -1.5113821    0.0053068   -3.2312125  
H    1.4821240    0.0045436   -2.9459192  
H   -2.7664565    0.0000185    0.6013447  
H    2.1104318    0.0009428   -0.3488058  
C    0.0000000    0.0000000    1.4700000  
C    1.0541688    0.0001722    2.3260392  
C    0.5103138    0.0000454    3.6635956  
C   -0.9576371   -0.0002459    3.5155732  
N   -1.2018458    0.0001392    2.1615969  
C   -1.8348311   -0.0008317    4.5510609  
C   -1.2972847   -0.0009736    5.9014604  
O   -2.0050672   -0.0014265    6.9001319  
C    0.2542623   -0.0004184    6.0817573  
O    0.7184670   -0.0002256    7.2139121  
C    1.0974552   -0.0000873    4.8889129  
H    2.0940752    0.0005483    2.0517982  
H   -2.9081052   -0.0011668    4.4207061  
H    2.1707277    0.0000911    5.0223670  
H   -2.1128194   -0.0014912    1.7406791  
