60

C    2.9589963   -1.9910940   -7.4063661  
C    4.0493839   -2.8297785   -7.3949559  
C    4.6059872   -2.8069365   -8.7080710  
C    3.8063267   -1.9290989   -9.4838740  
N    2.8141268   -1.4525450   -8.6634763  
C    4.0636312   -1.6645037  -10.8324186  
C    5.1481213   -2.2973785  -11.4082051  
O    5.4448532   -2.0744909  -12.7217052  
C    5.9576317   -3.1769781  -10.6507000  
O    6.9993082   -3.7294507  -11.3669597  
C    5.7042253   -3.4386850   -9.3203553  
H    4.3997777   -3.3900609   -6.5450731  
H    2.1005533   -0.8002600   -8.9342495  
H    3.4578901   -0.9966013  -11.4292324  
H    6.2270376   -2.6060488  -12.9189341  
H    7.4960397   -4.3101606  -10.7824612  
H    6.3417823   -4.1172720   -8.7658101  
C    2.0577024   -2.1067618   -5.0538578  
C    2.0213371   -1.6421655   -6.3293585  
C    0.8918562   -0.7471752   -6.4193650  
C    0.2687260   -0.7282839   -5.0821511  
N    1.0227497   -1.5732440   -4.3008824  
C   -0.8287665    0.0000939   -4.7555305  
C   -1.4369818    0.8199930   -5.7901201  
O   -2.4278332    1.5117412   -5.5951874  
C   -0.7938993    0.8150429   -7.2135759  
O   -1.2973732    1.5011523   -8.0927962  
C    0.3886477   -0.0108723   -7.4444391  
H    0.8279790   -0.0085684   -8.4327239  
H    2.7533682   -2.7941798   -4.6006534  
H    0.8492695   -1.7702610   -3.3323081  
C    1.0672569   -0.0000698   -0.8321910  
C    0.0000000    0.0000000    0.0000000  
C   -1.1601223   -0.0000736   -0.8778472  
C   -0.5938729   -0.0000768   -2.2438435  
N    0.7113367   -0.0001553   -2.2234123  
C   -1.4286985   -0.0001877   -3.4135239  
C   -2.7683113   -0.0006798   -3.2270524  
O   -3.6653902   -0.0008302   -4.2276970  
C   -3.3702024   -0.0010610   -1.8610774  
O   -4.5974910   -0.0013779   -1.7662963  
C   -2.4926825   -0.0008943   -0.6770658  
H   -4.5324245   -0.0012258   -3.7833954  
H   -2.9677772   -0.0012974    0.2947961  
H    2.1134391   -0.0000547   -0.5705119  
C    2.5528530    2.1414826    2.8079335  
C    2.0663498    1.7338582    4.0032312  
C    0.9804344    0.8229586    3.6752840  
C    0.9495562    0.7966882    2.1971295  
N    1.8690446    1.5676019    1.6831036  
C    0.0000000    0.0000000    1.4700000  
C   -0.8785127   -0.7372425    2.1869543  
O   -1.8187535   -1.5261249    1.6395491  
C   -0.8723269   -0.7321790    3.6796354  
O   -1.7010379   -1.4274584    4.2670412  
C    0.1115397    0.0933559    4.4024240  
H    2.4028853    2.0163452    4.9860947  
H   -2.2861435   -1.9184361    2.3990168  
H    0.0832434    0.0693689    5.4835595  
H    3.3664920    2.8238276    2.6198634  
