62

C    2.2761490   -1.9470418   -8.4180287  
C    3.2639201   -2.7784151   -8.8929973  
C    3.1996529   -2.7301070  -10.3171226  
C    2.1444703   -1.8449861  -10.6563540  
N    1.6037260   -1.3887745   -9.4798823  
C    1.7951519   -1.5564003  -11.9790338  
C    2.5245143   -2.1723281  -12.9774523  
O    2.2258397   -1.9257561  -14.2862720  
C    3.5806888   -3.0588424  -12.6590090  
O    4.2109129   -3.5923477  -13.7642392  
C    3.9256757   -3.3442128  -11.3543743  
H    3.9460716   -3.3502912   -8.2875054  
H    0.8438312   -0.7369377   -9.4047161  
H    0.9919112   -0.8828299  -12.2441953  
H    2.8458753   -2.4486844  -14.8110271  
H    4.9105849   -4.1792717  -13.4616126  
H    4.7393748   -4.0275522  -11.1412537  
C    2.4938373   -2.1214407   -5.9023410  
C    1.8951720   -1.6223091   -7.0358902  
C    0.8534347   -0.7479143   -6.6059872  
C    0.8643862   -0.7532634   -5.1876154  
N    1.8712176   -1.5989403   -4.7929780  
C   -0.0307352   -0.0004646   -4.4215603  
C   -0.9535288    0.7720380   -5.0996973  
O   -1.8506799    1.5268339   -4.4008286  
C   -0.9804604    0.7903152   -6.5145322  
O   -1.9581555    1.6088090   -7.0413383  
C   -0.0978792    0.0477029   -7.2709076  
H    2.1244786   -1.7955404   -3.8415641  
H   -2.3948804    1.9813036   -5.0570054  
H   -1.9079153    1.5637768   -8.0010523  
H   -0.1426911    0.0817548   -8.3531783  
H    3.3147730   -2.8099251   -5.7973912  
C    3.2573670   -0.0002920   -1.5109380  
C    2.5379468   -0.0001709   -0.3591961  
C    1.1435043    0.0000332   -0.7338500  
C    1.1092609   -0.0000082   -2.2088477  
N    2.4227562    0.0001909   -2.6182613  
C   -0.0265532   -0.0002522   -2.9515663  
C   -1.3003035   -0.0002639   -2.2514981  
O   -2.3786784   -0.0004131   -2.8306429  
C   -1.2877725    0.0000312   -0.6895608  
O   -2.3539958    0.0003307   -0.0892036  
C    0.0000000    0.0000000    0.0000000  
H    2.9384091   -0.0000369    0.6389239  
H    4.3270394   -0.0004765   -1.6439446  
H    2.7280494   -0.0013406   -3.5742113  
C    0.0000000    0.0000000    1.4700000  
C    1.0541688    0.0001722    2.3260392  
C    0.5103138    0.0000454    3.6635956  
C   -0.9576371   -0.0002459    3.5155732  
N   -1.2018458    0.0001392    2.1615969  
C   -1.8348311   -0.0008317    4.5510609  
C   -1.2972847   -0.0009736    5.9014604  
O   -2.0050672   -0.0014265    6.9001319  
C    0.2542623   -0.0004184    6.0817573  
O    0.7184670   -0.0002256    7.2139121  
C    1.0974552   -0.0000873    4.8889129  
H    2.0940752    0.0005483    2.0517982  
H   -2.9081052   -0.0011668    4.4207061  
H    2.1707277    0.0000911    5.0223670  
H   -2.1128194   -0.0014912    1.7406791  
