64

C    2.0618364   -1.8683170   -7.8192609  
C    3.1414369   -2.6980240   -8.0155173  
C    3.4673662   -2.6361180   -9.4027933  
C    2.5446014   -1.7448021  -10.0077619  
N    1.7040554   -1.2981352   -9.0185247  
C    2.5686782   -1.4427637  -11.3726722  
C    3.5422026   -2.0513600  -12.1408108  
O    3.6112273   -1.7916100  -13.4790107  
C    4.4715816   -2.9438764  -11.5555876  
O    5.3788131   -3.4687622  -12.4526774  
C    4.4482510   -3.2425170  -10.2091874  
H    3.6328334   -3.2775430   -7.2528374  
H    0.9525413   -0.6448469   -9.1466732  
H    1.8681243   -0.7644119  -11.8398621  
H    4.3506065   -2.3113579  -13.8202532  
H    5.9695286   -4.0605261  -11.9767842  
H    5.1730358   -3.9301773   -9.7893187  
C    1.5862966   -2.0670321   -5.3411846  
C    1.3189952   -1.5555207   -6.5899330  
C    0.1997467   -0.6822139   -6.4513068  
C   -0.1759085   -0.7009549   -5.0836595  
N    0.6852547   -1.5532115   -4.4381564  
C   -1.2456329    0.0471727   -4.5828766  
C   -1.9487579    0.8286866   -5.4789955  
O   -3.0021416    1.5794499   -5.0433904  
C   -1.5894392    0.8603679   -6.8474631  
O   -2.3865861    1.6866039   -7.6124704  
C   -0.5344148    0.1223715   -7.3422465  
H    0.6698565   -1.7594945   -3.4557148  
H   -3.3470234    2.0416480   -5.8184353  
H   -2.0769442    1.6504691   -8.5226462  
H   -0.2828477    0.1667455   -8.3954428  
H    2.3474957   -2.7588388   -5.0234754  
C    1.1243410    0.0099923   -0.7919003  
C    0.7474076    0.0234544   -2.1148543  
C   -0.6787381    0.0234490   -2.1414700  
C   -1.1201745    0.0098592   -0.7935546  
N    0.0000000    0.0000000    0.0000000  
C   -2.4730816    0.0063709   -0.4408240  
C   -3.3971958    0.0170982   -1.4675058  
O   -4.7313517    0.0146259   -1.1793471  
C   -2.9763648    0.0303504   -2.8186324  
O   -4.0166480    0.0395118   -3.7247624  
C   -1.6418562    0.0335260   -3.1673481  
H    1.4178717    0.0310972   -2.9571209  
H   -2.8160166   -0.0041111    0.5845966  
H   -5.1938818    0.0230867   -2.0274384  
H   -3.6464675    0.0482293   -4.6127343  
H    2.1062467    0.0052819   -0.3505407  
C    2.5128556    2.1077716    2.9199648  
C    1.9592212    1.6432552    4.0696553  
C    0.8915788    0.7479214    3.6910360  
C    0.8684491    0.7287414    2.2159470  
N    1.8754542    1.5738793    1.8102719  
C    0.0000000    0.0000000    1.4700000  
C   -0.9772830   -0.8200135    2.1664417  
O   -1.8021297   -1.5120829    1.5842315  
C   -0.9711318   -0.8147624    3.7284083  
O   -1.7894187   -1.5009653    4.3257297  
C    0.0140216    0.0115358    4.4216297  
H    2.2638494    1.8988021    5.0689105  
H    0.0117648    0.0094386    5.5031631  
H    3.3327358    2.7953732    2.7900019  
H    2.1123206    1.7707734    0.8551938  
