64

C    9.9376591    0.7091253   -1.3398265  
C   11.1934451    0.4580349   -0.8374096  
C   11.0327627   -0.4511317    0.2498792  
C    9.6451097   -0.7216425    0.3646296  
N    9.0088291    0.0003153   -0.6144217  
C    9.1198161   -1.5813147    1.3340723  
C   10.0116254   -2.1790284    2.2033200  
O    9.5525325   -3.0275500    3.1688546  
C   11.3997058   -1.9213947    2.1049707  
O   12.1573214   -2.5919202    3.0429253  
C   11.9185988   -1.0732090    1.1490116  
H   12.1121710    0.8792942   -1.2081896  
H    8.0632167   -1.7915292    1.4268597  
H   10.3285967   -3.3292023    3.6587478  
H   13.0818495   -2.3629330    2.9072158  
H   12.9863832   -0.8950772    1.0981606  
H    9.6308911    1.3388571   -2.1573166  
C    6.6682521    0.0023718   -4.3668309  
C    5.4175873    0.0024209   -3.7938519  
C    5.6072942    0.0015614   -2.3801297  
C    7.0065885    0.0012979   -2.1479616  
N    7.6213759   -0.0001475   -3.3754192  
C    7.5601869    0.0007872   -0.8640939  
C    6.6852683    0.0008451    0.2048751  
O    7.1721939    0.0007113    1.4799901  
C    5.2859247    0.0007309   -0.0064394  
O    4.5477721    0.0003831    1.1590970  
C    4.7390840    0.0009613   -1.2727298  
H    4.4834516    0.0018991   -4.3290000  
H    8.6137258    0.0099132   -3.5274774  
H    6.4039032    0.0004827    2.0656480  
H    3.6139327    0.0003544    0.9276924  
H    6.9558180    0.0024887   -5.4042627  
C    3.2798077    0.0005856   -1.4499661  
C    2.5571132    0.0005565   -2.5996564  
C    1.1637425    0.0001547   -2.2210366  
C    1.1336959   -0.0000200   -0.7459475  
N    2.4483509   -0.0001429   -0.3402730  
C    0.0000000    0.0000000    0.0000000  
C   -1.2757370   -0.0000187   -0.6964411  
O   -2.3524597   -0.0000640   -0.1142306  
C   -1.2676502   -0.0000874   -2.2584078  
O   -2.3355774   -0.0004102   -2.8557287  
C    0.0181551    0.0001758   -2.9516297  
H    2.9547342    0.0006074   -3.5989118  
H    0.0150776    0.0003317   -4.0331632  
H    2.7563626    0.0012823    0.6148051  
C    2.5311839    2.1237619    3.0120429  
C    1.9795631    1.6616747    1.8395852  
C    0.9223175    0.7739173    2.1983588  
C    0.8753926    0.7337535    3.6154372  
N    1.8668922    1.5631002    4.0777464  
C   -0.0496243   -0.0427881    4.3197917  
C   -0.9437528   -0.7922060    3.5801400  
O   -1.8685244   -1.5680278    4.2172520  
C   -0.9124520   -0.7656372    2.1655264  
O   -1.8671164   -1.5663939    1.5732860  
C    0.0000000    0.0000000    1.4700000  
H    2.3005065    1.9304404    0.8477417  
H    2.0679347    1.7444845    5.0445261  
H   -0.0904770   -0.0778569    5.3997470  
H   -2.3849669   -2.0011402    3.5251786  
H   -1.7775064   -1.4909735    0.6183591  
H    3.3468514    2.8078103    3.1724291  
