60

C    8.3407495   -3.0229303   -4.6628226  
C    9.3960067   -2.2324766   -5.0553548  
C    8.8964503   -0.9021089   -5.1785039  
C    7.5182976   -0.9425201   -4.8453580  
N    7.2130904   -2.2454760   -4.5391348  
C    6.7034526    0.1935463   -4.8584154  
C    7.2906107    1.3922972   -5.2139702  
O    6.5409939    2.5325843   -5.2428329  
C    8.6640108    1.4528079   -5.5500188  
O    9.0996788    2.7189458   -5.8823296  
C    9.4684149    0.3324035   -5.5376139  
H   10.4018256   -2.5730559   -5.2323494  
H    6.3096654   -2.5784677   -4.2546690  
H    7.1363511    3.2439728   -5.5125358  
H   10.0366517    2.6719748   -6.0955885  
H   10.5170639    0.4096236   -5.8000057  
H    8.3029199   -4.0800340   -4.4626775  
C    4.6171595   -2.0114327   -1.7322444  
C    3.3328193   -1.6298289   -1.9231036  
C    3.3780282   -0.7112571   -3.0503489  
C    4.8069992   -0.6523616   -3.4260571  
N    5.5382134   -1.4125184   -2.6569815  
C    5.2745454    0.1606803   -4.5148406  
C    4.3562407    0.8817945   -5.1975154  
O    4.6514314    1.6829997   -6.2352884  
C    2.9068165    0.8432089   -4.8427747  
O    2.1270270    1.5254609   -5.5073660  
C    2.4521483    0.0014840   -3.7217481  
H    2.4622564   -1.9341723   -1.3676121  
H    3.7953895    2.0581840   -6.5102098  
H    5.0049135   -2.6900162   -0.9891798  
C    0.0000000    0.0000000    0.0000000  
C    1.0662923   -0.0000101   -0.8334270  
C    0.4961873    0.0000065   -2.1718887  
C   -0.9663854   -0.0000848   -1.9540250  
N   -1.2632773   -0.0000083   -0.6828660  
C   -1.8985359   -0.0000514   -3.0477261  
C   -1.3925770    0.0004566   -4.3020547  
O   -2.1456378    0.0005414   -5.4151314  
C    0.0786240    0.0009326   -4.5545000  
O    0.4683767    0.0012591   -5.7221100  
C    1.0143171    0.0008444   -3.4159031  
H    2.1107200    0.0000633   -0.5721865  
H   -2.9622181   -0.0003268   -2.8593381  
H   -1.5042265    0.0009697   -6.1484419  
C    3.3321173   -0.0004715    2.8079335  
C    2.6974184   -0.0000116    4.0032312  
C    1.2800439    0.0002118    3.6752840  
C    1.2395035   -0.0000644    2.1971295  
N    2.4394063   -0.0005460    1.6831036  
C    0.0000000    0.0000000    1.4700000  
C   -1.1468701   -0.0000635    2.1869543  
O   -2.3742202   -0.0000073    1.6395491  
C   -1.1388768   -0.0001607    3.6796354  
O   -2.2206231   -0.0000905    4.2670412  
C    0.1454524   -0.0001816    4.4024240  
H    3.1367986    0.0000651    4.9860947  
H   -2.9844344   -0.0001026    2.3990168  
H    0.1083576   -0.0003682    5.4835595  
H    4.3940039   -0.0007619    2.6198634  
