60

C    3.0378696   -5.3243741   -9.1453114  
C    2.6629264   -4.4023161   -8.1957341  
C    2.5434015   -3.1456841   -8.8599553  
C    2.8599780   -3.3647356  -10.2251375  
N    3.1573498   -4.6977740  -10.3636894  
C    2.8448438   -2.3421577  -11.1784974  
C    2.5036215   -1.0754310  -10.7458906  
O    2.4727798   -0.0403374  -11.6350720  
C    2.1849338   -0.8368868   -9.3878216  
O    1.8662949    0.4772433   -9.1141892  
C    2.1999219   -1.8451563   -8.4467082  
H    2.4971540   -4.6096820   -7.1524167  
H    3.4094007   -5.1497977  -11.2239941  
H    3.0852534   -2.5025640  -12.2204542  
H    2.2151037    0.7435694  -11.1327181  
H    1.6642500    0.5523214   -8.1765623  
H    3.2309138   -6.3791424   -9.0496224  
C    2.5049803   -2.0931561   -5.9399570  
C    1.9571818   -1.6308520   -4.7865852  
C    0.8879544   -0.7344213   -5.1580690  
C    0.8574971   -0.7122318   -6.6329826  
N    1.8627387   -1.5562150   -7.0453796  
C   -0.0149282    0.0176857   -7.3731171  
C   -0.9887734    0.8362264   -6.6701578  
O   -1.8166677    1.5292762   -7.2468489  
C   -0.9745397    0.8281735   -5.1082557  
O   -1.7894805    1.5135873   -4.5054785  
C    0.0139741    0.0003876   -4.4216236  
H    2.2669048   -1.8882737   -3.7893791  
H   -0.0204611    0.0196988   -8.4542617  
H    3.3239674   -2.7807664   -6.0753927  
C    3.2798085    0.0005853   -1.4499648  
C    2.5571144    0.0005562   -2.5996554  
C    1.1637436    0.0001546   -2.2210360  
C    1.1336965   -0.0000201   -0.7459470  
N    2.4483513   -0.0001430   -0.3402717  
C    0.0000000    0.0000000    0.0000000  
C   -1.2757367   -0.0000188   -0.6964414  
O   -2.3524597   -0.0000640   -0.1142313  
C   -1.2676494   -0.0000875   -2.2584081  
O   -2.3355762   -0.0004102   -2.8557294  
C    0.0181562    0.0001757   -2.9516296  
H    2.9547357    0.0006072   -3.5989105  
H    4.3498550    0.0008609   -1.3200021  
H    2.7563627    0.0012824    0.6148063  
C    2.5128556    2.1077716    2.9199648  
C    1.9592212    1.6432552    4.0696553  
C    0.8915788    0.7479214    3.6910360  
C    0.8684491    0.7287414    2.2159470  
N    1.8754542    1.5738793    1.8102719  
C    0.0000000    0.0000000    1.4700000  
C   -0.9772830   -0.8200135    2.1664417  
O   -1.8021297   -1.5120829    1.5842315  
C   -0.9711318   -0.8147624    3.7284083  
O   -1.7894187   -1.5009653    4.3257297  
C    0.0140216    0.0115358    4.4216297  
H    2.2638494    1.8988021    5.0689105  
H    0.0117648    0.0094386    5.5031631  
H    3.3327358    2.7953732    2.7900019  
H    2.1123206    1.7707734    0.8551938  
