60

C   -0.2258924    0.1910653   -8.8157785  
C    0.5528406   -0.4662545   -9.7398845  
C    0.0855079   -0.0772778  -11.0301940  
C   -0.9887957    0.8267087  -10.8286833  
N   -1.1527616    0.9660103   -9.4728350  
C   -1.6910378    1.4143372  -11.8852522  
C   -1.3014863    1.0836024  -13.1686246  
O   -1.9528420    1.6288827  -14.2369964  
C   -0.2322347    0.1833253  -13.3900265  
O    0.0349060   -0.0450724  -14.7241236  
C    0.4608157   -0.3969714  -12.3481714  
H    1.3578985   -1.1437150   -9.5120202  
H   -1.8344532    1.5537521   -9.0280458  
H   -2.5108249    2.1039502  -11.7383325  
H   -1.5289211    1.2700353  -15.0274296  
H    0.7694922   -0.6632903  -14.7857148  
H    1.2753562   -1.0831141  -12.5486962  
C    2.4064702   -2.0119087   -6.1315527  
C    1.9558553   -1.6301626   -4.9138521  
C    0.8614672   -0.7121808   -5.1897589  
C    0.7870639   -0.6537474   -6.6654397  
N    1.6902156   -1.4136449   -7.2229901  
C   -0.1829371    0.1586449   -7.3467641  
C   -1.0399148    0.8795791   -6.5883597  
O   -1.9953663    1.6801936   -7.0905244  
C   -0.9902404    0.8414487   -5.0969710  
O   -1.8010679    1.5235043   -4.4704093  
C    0.0139741    0.0003876   -4.4216236  
H    2.3209545   -1.9340559   -3.9477120  
H   -2.4403315    2.0553965   -6.3092550  
H    3.2136232   -2.6901816   -6.3583201  
C    3.2798085    0.0005853   -1.4499648  
C    2.5571144    0.0005562   -2.5996554  
C    1.1637436    0.0001546   -2.2210360  
C    1.1336965   -0.0000201   -0.7459470  
N    2.4483513   -0.0001430   -0.3402717  
C    0.0000000    0.0000000    0.0000000  
C   -1.2757367   -0.0000188   -0.6964414  
O   -2.3524597   -0.0000640   -0.1142313  
C   -1.2676494   -0.0000875   -2.2584081  
O   -2.3355762   -0.0004102   -2.8557294  
C    0.0181562    0.0001757   -2.9516296  
H    2.9547357    0.0006072   -3.5989105  
H    4.3498550    0.0008609   -1.3200021  
H    2.7563627    0.0012824    0.6148063  
C    2.5528530    2.1414826    2.8079335  
C    2.0663498    1.7338582    4.0032312  
C    0.9804344    0.8229586    3.6752840  
C    0.9495562    0.7966882    2.1971295  
N    1.8690446    1.5676019    1.6831036  
C    0.0000000    0.0000000    1.4700000  
C   -0.8785127   -0.7372425    2.1869543  
O   -1.8187535   -1.5261249    1.6395491  
C   -0.8723269   -0.7321790    3.6796354  
O   -1.7010379   -1.4274584    4.2670412  
C    0.1115397    0.0933559    4.4024240  
H    2.4028853    2.0163452    4.9860947  
H   -2.2861435   -1.9184361    2.3990168  
H    0.0832434    0.0693689    5.4835595  
H    3.3664920    2.8238276    2.6198634  
