60

C    7.7865913   -2.7713370   -4.2327594  
C    9.0576443   -2.2451591   -4.2379423  
C    8.9309957   -0.8534851   -4.5239549  
C    7.5473628   -0.5858594   -4.6847676  
N    6.8810091   -1.7723193   -4.5033757  
C    7.0524862    0.6889361   -4.9759409  
C    7.9710906    1.7122653   -5.1068652  
O    7.5422150    2.9766441   -5.3904601  
C    9.3557211    1.4650154   -4.9503922  
O   10.1423712    2.5868772   -5.1114840  
C    9.8446605    0.2075970   -4.6634043  
H    9.9646372   -2.7967712   -4.0588262  
H    5.8850382   -1.8911321   -4.5470439  
H    8.3333410    3.5289884   -5.4384269  
H   11.0624085    2.3332465   -4.9897923  
H   10.9105911    0.0486546   -4.5493504  
H    7.4544421   -3.7804905   -4.0588519  
C    3.4580103   -0.7268405   -2.8377751  
C    4.7325012   -0.5102402   -3.2535076  
C    4.6631580    0.4171276   -4.3580508  
C    3.2335495    0.7252806   -4.5531175  
N    2.5562217   -0.0001543   -3.6003001  
C    2.7508573    1.5661405   -5.5026795  
C    3.7028851    2.2104925   -6.3920543  
O    3.3673539    2.9842354   -7.2792080  
C    5.2217703    1.8985276   -6.2037144  
O    6.0326417    2.4348679   -6.9467404  
C    5.6204823    0.9750982   -5.1443947  
H    5.6199071   -0.9500704   -2.8343736  
H    1.6983101    1.7786118   -5.6288155  
H    3.1016697   -1.3563613   -2.0386413  
C    0.0000000    0.0000000    0.0000000  
C    1.0541688   -0.0001719   -0.8560391  
C    0.5103141   -0.0000449   -2.1935955  
C   -0.9576367    0.0002461   -2.0455733  
N   -1.2018459   -0.0001392   -0.6915970  
C   -1.8348306    0.0008319   -3.0810611  
C   -1.2972842    0.0009739   -4.4314605  
O   -2.0050664    0.0014267   -5.4301321  
C    0.2542628    0.0004190   -4.6117571  
O    0.7184677    0.0002263   -5.7439119  
C    1.0974556    0.0000880   -3.4189127  
H    2.0940752   -0.0005479   -0.5817978  
H   -2.9081050    0.0011669   -2.9507065  
H   -2.1128195    0.0014911   -0.2706793  
C    3.2798086   -0.0005857    2.9199648  
C    2.5571146   -0.0005566    4.0696553  
C    1.1637436   -0.0001548    3.6910360  
C    1.1336965    0.0000200    2.2159470  
N    2.4483514    0.0001428    1.8102719  
C    0.0000000    0.0000000    1.4700000  
C   -1.2757367    0.0000186    2.1664417  
O   -2.3524596    0.0000640    1.5842315  
C   -1.2676493    0.0000873    3.7284083  
O   -2.3355761    0.0004100    4.3257297  
C    0.0181563   -0.0001760    4.4216297  
H    2.9547357   -0.0006076    5.0689105  
H    0.0150794   -0.0003319    5.5031631  
H    4.3498549   -0.0008612    2.7900019  
H    2.7563627   -0.0012824    0.8551938  
