66

C    4.5582355   -2.0922261   -2.8633930  
C    4.7995864   -1.5811263   -4.1175836  
C    3.7180586   -0.7032889   -4.4246644  
C    2.8401178   -0.7189701   -3.3107075  
N    3.3790677   -1.5738357   -2.3815389  
C    1.6628945    0.0339172   -3.2649299  
C    1.3667037    0.8171315   -4.3635762  
O    0.2298889    1.5725143   -4.3714925  
C    2.2299651    0.8458156   -5.4846350  
O    1.7963543    1.6742716   -6.4990245  
C    3.3913533    0.1031243   -5.5305963  
H    5.6499297   -1.8133776   -4.7356192  
H    2.9820490   -1.7789142   -1.4824837  
H    0.2153770    2.0351559   -5.2194415  
H    2.4353782    1.6358685   -7.2172003  
H    4.0328102    0.1452893   -6.4030840  
C    6.5307219   -3.6211307   -2.4412127  
C    5.3433250   -3.0404216   -2.0599875  
C    5.0365716   -3.5359855   -0.7580969  
C    6.0819111   -4.4226054   -0.3932718  
N    6.9714660   -4.4527351   -1.4384524  
C    6.1088763   -5.0968479    0.8312519  
C    5.0616514   -4.8717216    1.7034999  
O    5.0382432   -5.5040675    2.9128826  
C    4.0093225   -3.9910142    1.3574158  
O    3.0401306   -3.8728635    2.3321215  
C    3.9819316   -3.3257280    0.1494548  
H    7.8206188   -4.9878403   -1.4625862  
H    6.9026244   -5.7739926    1.1152231  
H    4.2329426   -5.2108818    3.3587500  
H    2.3671912   -3.2605911    2.0192660  
H    3.1624895   -2.6573960   -0.0878778  
H    7.0973859   -3.5090192   -3.3496632  
C    1.1243410    0.0100105   -0.7919003  
C    0.7474072    0.0234665   -2.1148542  
C   -0.6787384    0.0234379   -2.1414698  
C   -1.1201748    0.0098411   -0.7935547  
N    0.0000000    0.0000000    0.0000000  
C   -2.4730818    0.0063307   -0.4408240  
C   -3.3971962    0.0170429   -1.4675058  
O   -4.7313520    0.0145490   -1.1793468  
C   -2.9763654    0.0303020   -2.8186325  
O   -4.0166484    0.0394464   -3.7247625  
C   -1.6418567    0.0334992   -3.1673480  
H   -2.8160166   -0.0041569    0.5845966  
H   -5.1938823    0.0230023   -2.0274386  
H   -3.6464680    0.0481700   -4.6127343  
H   -1.3497475    0.0435647   -4.2109234  
H    2.1062466    0.0053162   -0.3505405  
C    2.5285572    2.1210227    2.9438989  
C    1.9331703    1.6216660    4.0790748  
C    0.8903039    0.7472258    3.6520102  
C    0.8972198    0.7527806    2.2336141  
N    1.9028376    1.5986179    1.8362361  
C    0.0000000    0.0000000    1.4700000  
C   -0.9207814   -0.7726952    2.1506477  
O   -1.8198395   -1.5274828    1.4542253  
C   -0.9436862   -0.7911793    3.5655508  
O   -1.9197945   -1.6098497    4.0950179  
C   -0.0590329   -0.0485852    4.3195194  
H    2.2150357    1.8593692    5.0905303  
H    2.1533708    1.7953814    0.8841339  
H   -2.3621246   -1.9821033    2.1118817  
H   -1.8668290   -1.5649508    5.0545920  
H   -0.1007624   -0.0827977    5.4019087  
H    3.3491200    2.8096064    2.8367138  
