62

C   -0.4629162   -0.8982684   -9.5321110  
C   -0.5955533    0.1859783   -8.6958786  
C   -0.8557643    1.3194282   -9.5218222  
C   -0.8707744    0.8615532  -10.8642265  
N   -0.6269686   -0.4891174  -10.8348120  
C   -1.0996561    1.7113448  -11.9506221  
C   -1.3176526    3.0476493  -11.6768602  
O   -1.5466096    3.9211909  -12.7003431  
C   -1.3061797    3.5236478  -10.3441526  
O   -1.5391115    4.8791542  -10.2360355  
C   -1.0801797    2.6859253   -9.2719250  
H   -0.5883375   -1.0895140  -11.6385611  
H   -1.1122267    1.3686171  -12.9760886  
H   -1.6716174    4.7893783  -12.2955119  
H   -1.5145668    5.1186327   -9.3045574  
H   -1.0771310    3.0794074   -8.2621526  
H   -0.2628505   -1.9308397   -9.3024824  
C    2.1601070   -2.0149550   -6.1366355  
C    1.7671250   -1.6323649   -4.8993931  
C    0.6609145   -0.7146342   -5.1242671  
C    0.5173091   -0.6572542   -6.5948687  
N    1.3933523   -1.4175031   -7.1936666  
C   -0.4836762    0.1546051   -7.2304781  
C   -1.3041637    0.8760360   -6.4331878  
O   -2.2822035    1.6762455   -6.8905098  
C   -1.1845243    0.8389691   -4.9457490  
O   -1.9650989    1.5214301   -4.2822952  
C   -0.1496415   -0.0015615   -4.3176961  
H    2.1772048   -1.9355528   -3.9512438  
H   -2.6900308    2.0519823   -6.0894782  
H    2.9557803   -2.6933491   -6.4005662  
C    3.3003543    0.0005276   -1.4738987  
C    2.5232814    0.0003497   -2.6090747  
C    1.1623200   -0.0001320   -2.1820103  
C    1.1711883    0.0000582   -0.7636140  
N    2.4852300   -0.0014919   -0.3662360  
C    0.0000000    0.0000000    0.0000000  
C   -1.2020384    0.0000519   -0.6806477  
O   -2.3759249    0.0003493    0.0157743  
C   -1.2314656   -0.0005115   -2.0955510  
O   -2.5054392   -0.0008039   -2.6250180  
C   -0.0764516   -0.0007274   -2.8495195  
H    2.8919955   -0.0005620   -3.6205304  
H    2.8036267    0.0088183    0.5858662  
H   -3.0835638    0.0000347   -0.6418818  
H   -2.4360047   -0.0011529   -3.5845921  
H    4.3715549    0.0004895   -1.3667136  
C    2.5128556    2.1077716    2.9199648  
C    1.9592212    1.6432552    4.0696553  
C    0.8915788    0.7479214    3.6910360  
C    0.8684491    0.7287414    2.2159470  
N    1.8754542    1.5738793    1.8102719  
C    0.0000000    0.0000000    1.4700000  
C   -0.9772830   -0.8200135    2.1664417  
O   -1.8021297   -1.5120829    1.5842315  
C   -0.9711318   -0.8147624    3.7284083  
O   -1.7894187   -1.5009653    4.3257297  
C    0.0140216    0.0115358    4.4216297  
H    2.2638494    1.8988021    5.0689105  
H    0.0117648    0.0094386    5.5031631  
H    3.3327358    2.7953732    2.7900019  
H    2.1123206    1.7707734    0.8551938  
