62

C    8.8722118    0.0058813   -2.8815952  
C    8.1579065    0.0078381   -4.0572783  
C    9.1076620    0.0098003   -5.1214973  
C   10.3964804    0.0086382   -4.5291537  
N   10.2173030    0.0082108   -3.1680839  
C   11.5747354    0.0097024   -5.2818184  
C   11.4496560    0.0116743   -6.6575110  
O   12.5677960    0.0124318   -7.4403110  
C   10.1724879    0.0132337   -7.2671471  
O   10.2147997    0.0155411   -8.6461137  
C    9.0096854    0.0124583   -6.5252488  
H    7.0843672    0.0089551   -4.1379337  
H   10.9537230   -0.0031579   -2.4857821  
H   12.5600346    0.0089704   -4.8364138  
H   12.2600152    0.0141119   -8.3560258  
H    9.3118149    0.0164495   -8.9781094  
H    8.0456161    0.0138761   -7.0202704  
C    4.7795901    0.0008674   -1.0815733  
C    5.8357361    0.0020740   -1.9630619  
C    7.0295755    0.0025511   -1.1824550  
C    6.6358520    0.0012980    0.1802288  
N    5.2632774    0.0022470    0.2058246  
C    7.5556553    0.0010562    1.2332013  
C    8.8973613    0.0017913    0.9045658  
O    9.8380085    0.0012446    1.8936039  
C    9.3099221    0.0034196   -0.4491731  
O   10.6798047    0.0044028   -0.6127738  
C    8.4030660    0.0039323   -1.4884696  
H    5.7555549    0.0036569   -3.0366361  
H    4.6982920   -0.0088487    1.0356739  
H    7.2620116    0.0002474    2.2738619  
H   10.6976507    0.0022149    1.4528339  
H   10.8735674    0.0054534   -1.5551424  
C    3.3321168    0.0004716   -1.3379341  
C    2.6974177    0.0000118   -2.5332316  
C    1.2800432   -0.0002116   -2.2052842  
C    1.2395033    0.0000644   -0.7271298  
N    2.4394059    0.0005460   -0.2131041  
C    0.0000000    0.0000000    0.0000000  
C   -1.1468704    0.0000635   -0.7169542  
O   -2.3742206    0.0000074   -0.1695488  
C   -1.1388774    0.0001608   -2.2096352  
O   -2.2206238    0.0000906   -2.7970409  
C    0.1454514    0.0001818   -2.9324241  
H    3.1367978   -0.0000649   -3.5160956  
H   -2.9844350    0.0001027   -0.9290164  
H    0.1083567    0.0003684   -4.0135594  
C    2.5528530    2.1414826    2.8079335  
C    2.0663498    1.7338582    4.0032312  
C    0.9804344    0.8229586    3.6752840  
C    0.9495562    0.7966882    2.1971295  
N    1.8690446    1.5676019    1.6831036  
C    0.0000000    0.0000000    1.4700000  
C   -0.8785127   -0.7372425    2.1869543  
O   -1.8187535   -1.5261249    1.6395491  
C   -0.8723269   -0.7321790    3.6796354  
O   -1.7010379   -1.4274584    4.2670412  
C    0.1115397    0.0933559    4.4024240  
H    2.4028853    2.0163452    4.9860947  
H   -2.2861435   -1.9184361    2.3990168  
H    0.0832434    0.0693689    5.4835595  
H    3.3664920    2.8238276    2.6198634  
