64

C    5.8586841   -1.7794899   -5.0839175  
C    6.9624184   -2.5880844   -4.9410442  
C    7.7232166   -2.4701192   -6.1418237  
C    7.0286021   -1.5679385   -6.9877002  
N    5.9000223   -1.1690013   -6.3155601  
C    7.4912538   -1.2145274   -8.2588592  
C    8.6768650   -1.7819691   -8.6837296  
O    9.1742266   -1.4712728   -9.9162520  
C    9.3842210   -2.6845262   -7.8543593  
O   10.5474644   -3.1642779   -8.4200862  
C    8.9282575   -3.0338376   -6.6003241  
H    7.1905154   -3.1898700   -4.0780142  
H    5.2166344   -0.5205142   -6.6625851  
H    6.9664601   -0.5276320   -8.9084500  
H    9.9967315   -1.9688230  -10.0121412  
H   10.9636027   -3.7663119   -7.7955962  
H    9.4916595   -3.7279612   -5.9877489  
C    4.6027284   -2.0944968   -2.9150973  
C    3.4411565   -1.6373420   -2.3369735  
C    2.8377887   -0.7405119   -3.2676952  
C    3.6836208   -0.6899844   -4.4052107  
N    4.7469283   -1.5221610   -4.1572674  
C    3.3988814    0.0972712   -5.5250055  
C    2.2389988    0.8469466   -5.4960814  
O    1.9125738    1.6330030   -6.5631226  
C    1.3824833    0.8101280   -4.3700960  
O    0.2670643    1.6125639   -4.4937165  
C    1.6628945    0.0339172   -3.2649299  
H    3.0744458   -1.9151388   -1.3636571  
H    4.0395083    0.1402697   -6.3950344  
H    1.0776868    2.0643813   -6.3392002  
H   -0.2575670    1.5298016   -3.6915216  
H    5.3404963   -2.7824371   -2.5390699  
C    1.1243410    0.0100105   -0.7919003  
C    0.7474072    0.0234665   -2.1148542  
C   -0.6787384    0.0234379   -2.1414698  
C   -1.1201748    0.0098411   -0.7935547  
N    0.0000000    0.0000000    0.0000000  
C   -2.4730818    0.0063307   -0.4408240  
C   -3.3971962    0.0170429   -1.4675058  
O   -4.7313520    0.0145490   -1.1793468  
C   -2.9763654    0.0303020   -2.8186325  
O   -4.0166484    0.0394464   -3.7247625  
C   -1.6418567    0.0334992   -3.1673480  
H   -2.8160166   -0.0041569    0.5845966  
H   -5.1938823    0.0230023   -2.0274386  
H   -3.6464680    0.0481700   -4.6127343  
H   -1.3497475    0.0435647   -4.2109234  
H    2.1062466    0.0053162   -0.3505405  
C    2.3971438    2.0127888    3.1728260  
C    1.9431056    1.6308205    1.9564670  
C    0.8496017    0.7127664    2.2356185  
C    0.7794028    0.6545384    3.7115134  
N    1.6840587    1.4146091    4.2663826  
C   -0.1885723   -0.1578550    4.3957118  
C   -1.0476298   -0.8789867    3.6398520  
O   -2.0015663   -1.6796266    4.1448486  
C   -1.0022026   -0.8410666    2.1483229  
O   -1.8147390   -1.5232959    1.5241687  
C    0.0000000    0.0000000    1.4700000  
H    2.3054237    1.9346118    0.9892483  
H   -0.2170646   -0.1815267    5.4753125  
H   -2.4487139   -2.0549881    3.3649027  
H    3.2048689    2.6911772    3.3971983  
