64

C    3.9688675   -2.1289277   -5.9762532  
C    4.9768697   -1.6315972   -6.7693871  
C    4.3677544   -0.7566932   -7.7170794  
C    2.9745162   -0.7598896   -7.4509918  
N    2.7663184   -1.6048299   -6.3892259  
C    2.0609536   -0.0060516   -8.1939055  
C    2.5630397    0.7652956   -9.2240073  
O    1.7152036    1.5210285   -9.9810133  
C    3.9499420    0.7814233   -9.5051833  
O    4.2933535    1.5989836  -10.5620682  
C    4.8517403    0.0377849   -8.7728666  
H    6.0224281   -1.8709149   -6.6770396  
H    1.8757459   -1.7999522   -5.9687629  
H    2.2633694    1.9744285  -10.6346234  
H    5.2463683    1.5525028  -10.6853831  
H    5.9083155    0.0701892   -9.0117742  
H    4.0123937   -2.8171394   -5.1495562  
C   -0.2963294   -0.0005341   -4.3948471  
C    0.7248289   -0.0020238   -5.3166391  
C    0.1197351   -0.0021683   -6.6083289  
C   -1.2847549   -0.0004298   -6.4100066  
N   -1.5029813   -0.0014223   -5.0546493  
C   -2.1980207    0.0002341   -7.4686534  
C   -1.6841003   -0.0005703   -8.7508641  
O   -2.5311370    0.0003758   -9.8211630  
C   -0.2858196   -0.0026797   -8.9690929  
O    0.0686634   -0.0036705  -10.3023926  
C    0.6157257   -0.0036090   -7.9251872  
H    1.7764816   -0.0040039   -5.0863877  
H   -2.4039878    0.0099565   -4.6118859  
H   -3.2696195    0.0014135   -7.3241652  
H   -1.9739381   -0.0007229  -10.6103355  
H    1.0289092   -0.0050596  -10.3618041  
C    3.1301143   -0.0010313   -1.7028257  
C    2.5367765   -0.0002767   -0.4864669  
C    1.1089900    0.0001027   -0.7656184  
C    1.0177864   -0.0004150   -2.2415133  
N    2.1993571   -0.0011613   -2.7963824  
C   -0.2459220   -0.0002879   -2.9257116  
C   -1.3675327   -0.0000606   -2.1698519  
O   -2.6129319    0.0000866   -2.6748482  
C   -1.3083588    0.0000910   -0.6783229  
O   -2.3693264    0.0004206   -0.0541685  
C    0.0000000    0.0000000    0.0000000  
H    3.0096014   -0.0001008    0.4807517  
H   -3.1967445    0.0002093   -1.8949025  
H    4.1849272   -0.0015113   -1.9271980  
C    0.8676693    0.7151171    2.2619005  
C    0.5875920    0.4624972    3.5848544  
C   -0.5048400   -0.4542819    3.6114698  
C   -0.8517165   -0.7276451    2.2635546  
N    0.0000000    0.0000000    1.4700000  
C   -1.8902865   -1.5946756    1.9108239  
C   -2.5912627   -2.1969500    2.9375057  
O   -3.6148162   -3.0527051    2.6493466  
C   -2.2603868   -1.9365747    4.2886322  
O   -3.0513550   -2.6123276    5.1947621  
C   -1.2361111   -1.0811317    4.6373480  
H    1.1060808    0.8876438    4.4271209  
H   -2.1597133   -1.8070987    0.8854031  
H   -3.9636755   -3.3565188    3.4974381  
H   -2.7621927   -2.3810384    6.0827341  
H   -1.0058879   -0.9010589    5.6809233  
H    1.6167816    1.3499334    1.8205408  
