60

C    7.1938950   -5.3353711   -7.5780194  
C    6.5462619   -4.4116444   -6.7907642  
C    6.6372866   -3.1560977   -7.4615225  
C    7.3574417   -3.3775003   -8.6633063  
N    7.6820210   -4.7108343   -8.7018687  
C    7.6363947   -2.3565136   -9.5768495  
C    7.1797792   -1.0889903   -9.2717850  
O    7.4240938   -0.0553769  -10.1290887  
C    6.4598120   -0.8481063   -8.0774489  
O    6.0735186    0.4665499   -7.9168258  
C    6.1844892   -1.8548050   -7.1756277  
H    6.0681136   -4.6172298   -5.8483729  
H    8.1856330   -5.1643508   -9.4425949  
H    8.1848941   -2.5187143  -10.4944781  
H    7.0252345    0.7294252   -9.7312659  
H    5.5934931    0.5432395   -7.0865876  
H    7.3474880   -6.3900208   -7.4260930  
C    5.7052418   -2.0986834   -4.6958678  
C    4.8302131   -1.6343311   -3.7670103  
C    3.9272651   -0.7382854   -4.4501079  
C    4.3509919   -0.7185537   -5.8632097  
N    5.4336785   -1.5634478   -5.9458740  
C    3.7483766    0.0103194   -6.8365048  
C    2.6063696    0.8302496   -6.4676277  
O    1.9959435    1.5225183   -7.2716453  
C    2.1405131    0.8248035   -4.9767381  
O    1.1803932    1.5114043   -4.6542322  
C    2.8699641   -0.0020530   -4.0185824  
H    4.8187253   -1.8901546   -2.7224834  
H    4.0749502    0.0105271   -7.8671644  
H    6.5257691   -2.7867004   -4.5723460  
C    3.2573670   -0.0002921   -1.5109382  
C    2.5379468   -0.0001711   -0.3591962  
C    1.1435043    0.0000330   -0.7338498  
C    1.1092608   -0.0000085   -2.2088474  
N    2.4227562    0.0001906   -2.6182610  
C   -0.0265533   -0.0002525   -2.9515663  
C   -1.3003033   -0.0002641   -2.2514979  
O   -2.3786785   -0.0004132   -2.8306425  
C   -1.2877724    0.0000310   -0.6895608  
O   -2.3539956    0.0003306   -0.0892035  
C    0.0000000    0.0000000    0.0000000  
H    2.9384091   -0.0000370    0.6389240  
H   -0.0296290   -0.0004088   -4.0327231  
H    4.3270394   -0.0004767   -1.6439445  
C    2.5128556    2.1077716    2.9199648  
C    1.9592212    1.6432552    4.0696553  
C    0.8915788    0.7479214    3.6910360  
C    0.8684491    0.7287414    2.2159470  
N    1.8754542    1.5738793    1.8102719  
C    0.0000000    0.0000000    1.4700000  
C   -0.9772830   -0.8200135    2.1664417  
O   -1.8021297   -1.5120829    1.5842315  
C   -0.9711318   -0.8147624    3.7284083  
O   -1.7894187   -1.5009653    4.3257297  
C    0.0140216    0.0115358    4.4216297  
H    2.2638494    1.8988021    5.0689105  
H    0.0117648    0.0094386    5.5031631  
H    3.3327358    2.7953732    2.7900019  
H    2.1123206    1.7707734    0.8551938  
