64

C   -6.4752336    0.0040104   -5.9794753  
C   -5.4045744    0.0018272   -6.8432752  
C   -5.9371748    0.0016994   -8.1665058  
C   -7.3504935    0.0041622   -8.0463010  
N   -7.6434771    0.0035664   -6.7051162  
C   -8.2037043    0.0050422   -9.1539209  
C   -7.6195343    0.0037135  -10.4056884  
O   -8.4059715    0.0048412  -11.5212730  
C   -6.2113120    0.0008785  -10.5461132  
O   -5.7835050   -0.0005702  -11.8577233  
C   -5.3689882   -0.0002645   -9.4538613  
H   -4.3672948   -0.0006140   -6.5551118  
H   -8.5676247    0.0154775   -6.3129540  
H   -9.2816615    0.0067730   -9.0690257  
H   -7.8059062    0.0033025  -12.2783621  
H   -4.8214431   -0.0024382  -11.8638432  
H   -4.2941789   -0.0026249   -9.5926335  
C   -3.2578655    0.0024039   -2.9908504  
C   -4.0046939    0.0033126   -1.8566891  
C   -5.3897520    0.0044626   -2.2646703  
C   -5.3886196    0.0041181   -3.7400651  
N   -4.0656854    0.0032563   -4.1178667  
C   -6.5062987    0.0045471   -4.5098036  
C   -7.7964683    0.0056316   -3.8404773  
O   -8.8606461    0.0061495   -4.4453120  
C   -7.8213913    0.0062654   -2.2786888  
O   -8.9017018    0.0074856   -1.7040695  
C   -6.5505228    0.0054370   -1.5584492  
H   -3.6282786    0.0033734   -0.8492543  
H   -6.5764550    0.0056780   -0.4772225  
H   -3.7375606    0.0012865   -5.0662218  
C    0.0000000    0.0000000    0.0000000  
C    1.0521667   -0.0011902   -0.8862342  
C    0.4917216   -0.0011957   -2.1979129  
C   -0.9187429    0.0003148   -2.0478680  
N   -1.1833171   -0.0009412   -0.7007912  
C   -1.7951702    0.0010350   -3.1372088  
C   -1.2375841    0.0005225   -4.4010424  
O   -2.0474217    0.0015360   -5.4997576  
C    0.1673577   -0.0013567   -4.5711964  
O    0.5673522   -0.0020688   -5.8915554  
C    1.0325769   -0.0023413   -3.4969890  
H    2.0953057   -0.0030649   -0.6200562  
H   -2.0989779    0.0102372   -0.2891821  
H   -1.4634887    0.0006498   -6.2693588  
H    1.5290708   -0.0033153   -5.9180049  
H    2.1042148   -0.0039610   -3.6584453  
C    1.1188642   -0.0008217    2.2703808  
C    0.0000000    0.0000000    1.4700000  
C   -1.1323862   -0.0008904    2.3373528  
C   -0.6382662   -0.0019682    3.6669281  
N    0.7324016   -0.0038477    3.5902241  
C   -1.4770914   -0.0027325    4.7854808  
C   -2.8395474   -0.0020958    4.5576857  
O   -3.7039201   -0.0024443    5.6140350  
C   -3.3517868   -0.0013946    3.2384331  
O   -4.7300496   -0.0012389    3.1773122  
C   -2.5248543   -0.0009135    2.1344818  
H    1.3576314    0.0056174    4.3757045  
H   -1.1067570   -0.0036993    5.8013813  
H   -4.5940033   -0.0021850    5.2385129  
H   -4.9934601   -0.0007286    2.2519915  
H   -2.9462578   -0.0005617    1.1360343  
H    2.1619896   -0.0009344    2.0042067  
