60

C    7.4611179   -0.0190652    3.7660942  
C    7.0163834   -0.0295572    5.0678499  
C    5.5908023   -0.0188856    5.0208987  
C    5.2195659   -0.0021501    3.6520195  
N    6.3792085   -0.0007574    2.9172790  
C    3.8867091    0.0114132    3.2300036  
C    2.9108336    0.0077133    4.2076698  
O    1.5933660    0.0201276    3.8511061  
C    3.2613293   -0.0085306    5.5786932  
O    2.1756706   -0.0098097    6.4299787  
C    4.5760220   -0.0216438    5.9957514  
H    7.6424522   -0.0421163    5.9435635  
H    3.5971892    0.0243416    2.1882678  
H    1.0876724    0.0152225    4.6742197  
H    2.4994990   -0.0211930    7.3358536  
H    4.8138520   -0.0337689    7.0529973  
H    8.4644812   -0.0217471    3.3759498  
C    6.4550021   -0.0009256    1.4492341  
C    7.5628472   -0.0014710    0.6718940  
C    7.0625120   -0.0013725   -0.6941823  
C    5.5906518   -0.0008359   -0.5520184  
N    5.2286141   -0.0004914    0.7021417  
C    4.7161325   -0.0005435   -1.6923264  
C    5.2860918   -0.0003877   -2.9188995  
O    4.5914234   -0.0001200   -4.0693241  
C    6.7683519   -0.0005473   -3.0951539  
O    7.2177885   -0.0005152   -4.2411155  
C    7.6440943   -0.0008908   -1.9098274  
H    8.5924168   -0.0017982    0.9866378  
H    5.2697908   -0.0000402   -4.7685881  
H    8.7123897   -0.0008822   -2.0800432  
C    3.2573665   -0.0002920   -1.5109385  
C    2.5379463   -0.0001709   -0.3591964  
C    1.1435038    0.0000331   -0.7338500  
C    1.1092599   -0.0000083   -2.2088477  
N    2.4227553    0.0001909   -2.6182613  
C   -0.0265539   -0.0002524   -2.9515660  
C   -1.3003040   -0.0002640   -2.2514977  
O   -2.3786790   -0.0004133   -2.8306421  
C   -1.2877727    0.0000311   -0.6895603  
O   -2.3539959    0.0003306   -0.0892030  
C    0.0000000    0.0000000    0.0000000  
H    2.9384091   -0.0000367    0.6389234  
H   -0.0296303   -0.0004086   -4.0327229  
H    2.7280482   -0.0013407   -3.5742119  
C    2.5528530    2.1414826    2.8079335  
C    2.0663498    1.7338582    4.0032312  
C    0.9804344    0.8229586    3.6752840  
C    0.9495562    0.7966882    2.1971295  
N    1.8690446    1.5676019    1.6831036  
C    0.0000000    0.0000000    1.4700000  
C   -0.8785127   -0.7372425    2.1869543  
O   -1.8187535   -1.5261249    1.6395491  
C   -0.8723269   -0.7321790    3.6796354  
O   -1.7010379   -1.4274584    4.2670412  
C    0.1115397    0.0933559    4.4024240  
H    2.4028853    2.0163452    4.9860947  
H   -2.2861435   -1.9184361    2.3990168  
H    0.0832434    0.0693689    5.4835595  
H    3.3664920    2.8238276    2.6198634  
