60

C    4.4004514   -3.5889068    0.2352671  
C    5.1457116   -2.9364199   -0.7193614  
C    6.5033370   -3.3302254   -0.5286501  
C    6.5252744   -4.2320411    0.5659606  
N    5.2322777   -4.3654599    1.0075226  
C    7.7021316   -4.8232295    1.0353156  
C    8.8782265   -4.4983518    0.3876792  
O   10.0562512   -5.0473042    0.8047192  
C    8.8767826   -3.6003227   -0.7061019  
O   10.1274668   -3.3778438   -1.2442783  
C    7.7161961   -3.0165168   -1.1694969  
H    4.9360981   -4.9504968    1.7677799  
H    7.7255717   -5.5112147    1.8691796  
H   10.7430938   -4.6922916    0.2255140  
H   10.0379238   -2.7607912   -1.9769663  
H    7.7462694   -2.3322199   -2.0093254  
H    3.3415433   -3.5606953    0.4273005  
C    4.6171595   -2.0114327   -1.7322441  
C    3.3328188   -1.6298292   -1.9231035  
C    3.3780282   -0.7112573   -3.0503486  
C    4.8069993   -0.6523619   -3.4260564  
N    5.5382126   -1.4125189   -2.6569807  
C    5.2745461    0.1606798   -4.5148398  
C    4.3562413    0.8817939   -5.1975148  
O    4.6514324    1.6829996   -6.2352881  
C    2.9068167    0.8432087   -4.8427746  
O    2.1270277    1.5254609   -5.5073661  
C    2.4521483    0.0014840   -3.7217481  
H    2.4622557   -1.9341723   -1.3676120  
H    6.3245851    0.1848315   -4.7673174  
H    3.7953904    2.0581840   -6.5102100  
C    0.0000000    0.0000000    0.0000000  
C    1.0662923   -0.0000101   -0.8334270  
C    0.4961873    0.0000065   -2.1718887  
C   -0.9663854   -0.0000848   -1.9540250  
N   -1.2632773   -0.0000083   -0.6828660  
C   -1.8985359   -0.0000514   -3.0477261  
C   -1.3925770    0.0004566   -4.3020547  
O   -2.1456378    0.0005414   -5.4151314  
C    0.0786240    0.0009326   -4.5545000  
O    0.4683767    0.0012591   -5.7221100  
C    1.0143171    0.0008444   -3.4159031  
H    2.1107200    0.0000633   -0.5721865  
H   -2.9622181   -0.0003268   -2.8593381  
H   -1.5042265    0.0009697   -6.1484419  
C    3.1301144    0.0010313    3.1728260  
C    2.5367765    0.0002768    1.9564670  
C    1.1089900   -0.0001027    2.2356185  
C    1.0177864    0.0004150    3.7115134  
N    2.1993570    0.0011613    4.2663826  
C   -0.2459220    0.0002880    4.3957118  
C   -1.3675327    0.0000606    3.6398520  
O   -2.6129319   -0.0000866    4.1448486  
C   -1.3083589   -0.0000910    2.1483229  
O   -2.3693264   -0.0004206    1.5241687  
C    0.0000000    0.0000000    1.4700000  
H    3.0096015    0.0001008    0.9892483  
H   -0.2829642    0.0004689    5.4753125  
H   -3.1967446   -0.0002093    3.3649027  
H    4.1849273    0.0015113    3.3971983  
