62

C    6.7422309    0.8406899   -5.5784940  
C    7.4999725    0.0388949   -4.7566542  
C    8.8552724    0.1697125   -5.1816817  
C    8.8630680    1.0723645   -6.2757953  
N    7.5637039    1.4592072   -6.4917132  
C   10.0340566    1.4369907   -6.9470793  
C   11.2187950    0.8804876   -6.5056295  
O   12.3917195    1.2023982   -7.1250121  
C   11.2313929   -0.0223485   -5.4158838  
O   12.4892288   -0.4904323   -5.0963727  
C   10.0765313   -0.3827205   -4.7533486  
H    7.1221969   -0.5667229   -3.9507348  
H    7.2601870    2.1051084   -7.1978785  
H   10.0466908    2.1243085   -7.7817270  
H   13.0861296    0.7111868   -6.6670032  
H   12.4090815   -1.0934889   -4.3510520  
H   10.1173463   -1.0767646   -3.9220153  
C    3.4074950   -0.7136030   -3.0381462  
C    4.6431374   -0.4603060   -3.5872330  
C    4.4415599    0.4568806   -4.6608881  
C    3.0508758    0.7297830   -4.7196074  
N    2.4521483    0.0014840   -3.7217481  
C    2.4894774    1.5970364   -5.6616753  
C    3.3476370    2.2000118   -6.5606529  
O    2.8525259    3.0560124   -7.5014725  
C    4.7381287    1.9401043   -6.5182463  
O    5.4596253    2.6165384   -7.4801321  
C    5.2926216    1.0844421   -5.5893196  
H    5.5749967   -0.8852740   -3.2555202  
H    1.4303662    1.8091109   -5.7117644  
H    3.6093684    3.3603216   -8.0190146  
H    6.3884086    2.3855310   -7.3821505  
H    3.1318753   -1.3488828   -2.2138816  
C    0.0000000    0.0000000    0.0000000  
C    1.0662923   -0.0000101   -0.8334270  
C    0.4961873    0.0000065   -2.1718887  
C   -0.9663854   -0.0000848   -1.9540250  
N   -1.2632773   -0.0000083   -0.6828660  
C   -1.8985359   -0.0000514   -3.0477261  
C   -1.3925770    0.0004566   -4.3020547  
O   -2.1456378    0.0005414   -5.4151314  
C    0.0786240    0.0009326   -4.5545000  
O    0.4683767    0.0012591   -5.7221100  
C    1.0143171    0.0008444   -3.4159031  
H    2.1107200    0.0000633   -0.5721865  
H   -2.9622181   -0.0003268   -2.8593381  
H   -1.5042265    0.0009697   -6.1484419  
C    0.0000000    0.0000000    1.4700000  
C    1.0541688    0.0001722    2.3260392  
C    0.5103138    0.0000454    3.6635956  
C   -0.9576371   -0.0002459    3.5155732  
N   -1.2018458    0.0001392    2.1615969  
C   -1.8348311   -0.0008317    4.5510609  
C   -1.2972847   -0.0009736    5.9014604  
O   -2.0050672   -0.0014265    6.9001319  
C    0.2542623   -0.0004184    6.0817573  
O    0.7184670   -0.0002256    7.2139121  
C    1.0974552   -0.0000873    4.8889129  
H    2.0940752    0.0005483    2.0517982  
H   -2.9081052   -0.0011668    4.4207061  
H    2.1707277    0.0000911    5.0223670  
H   -2.1128194   -0.0014912    1.7406791  
