62

C    9.0743780    0.0050258   -3.6372407  
C    9.7480369    0.0080181   -4.8366748  
C   11.1414249    0.0104065   -4.5316117  
C   11.2580030    0.0084256   -3.1179882  
N    9.9842425    0.0071215   -2.6059832  
C   12.4921198    0.0096292   -2.4609161  
C   13.6292670    0.0125851   -3.2451760  
O   14.8601307    0.0135218   -2.6552713  
C   13.5334760    0.0149715   -4.6571379  
O   14.7556443    0.0182116   -5.2971687  
C   12.3163230    0.0140591   -5.3060320  
H    9.2913361    0.0095339   -5.8115669  
H    9.7512937   -0.0049510   -1.6294741  
H   12.5877243    0.0082762   -1.3838551  
H   15.5068489    0.0159288   -3.3729170  
H   14.6016382    0.0196368   -6.2468445  
H   12.2743672    0.0161252   -6.3889509  
C    6.6317365    0.0027575   -4.3241616  
C    5.4016570    0.0020952   -3.7488541  
C    5.6054515    0.0015082   -2.3194126  
C    7.0655596    0.0019147   -2.1075801  
N    7.6303533    0.0022710   -3.3621311  
C    7.6659168    0.0019587   -0.8905032  
C    6.8173813    0.0013542    0.2895486  
O    7.2622824    0.0012813    1.4298835  
C    5.2683493    0.0006643    0.0887878  
O    4.5438187   -0.0001546    1.0748485  
C    4.7390840    0.0009613   -1.2727298  
H    4.4591013    0.0018433   -4.2667372  
H    8.7388160    0.0023901   -0.7570958  
H    6.8927414    0.0033431   -5.3699943  
C    3.2798077    0.0005856   -1.4499661  
C    2.5571132    0.0005565   -2.5996564  
C    1.1637425    0.0001547   -2.2210366  
C    1.1336959   -0.0000200   -0.7459475  
N    2.4483509   -0.0001429   -0.3402730  
C    0.0000000    0.0000000    0.0000000  
C   -1.2757370   -0.0000187   -0.6964411  
O   -2.3524597   -0.0000640   -0.1142306  
C   -1.2676502   -0.0000874   -2.2584078  
O   -2.3355774   -0.0004102   -2.8557287  
C    0.0181551    0.0001758   -2.9516297  
H    2.9547342    0.0006074   -3.5989118  
H    0.0150776    0.0003317   -4.0331632  
H    2.7563626    0.0012823    0.6148051  
C    0.8576279    0.7185626    2.2703808  
C    0.0000000    0.0000000    1.4700000  
C   -0.8668858   -0.7285659    2.3373528  
C   -0.4876752   -0.4117774    3.6669281  
N    0.5635254    0.4678311    3.5902241  
C   -1.1297612   -0.9515493    4.7854808  
C   -2.1738724   -1.8268314    4.5576857  
O   -2.8357962   -2.3827064    5.6140350  
C   -2.5667212   -2.1555554    3.2384331  
O   -3.6226318   -3.0413663    3.1773122  
C   -1.9335634   -1.6236449    2.1344818  
H    1.0363952    0.8769718    4.3757045  
H   -0.8454472   -0.7142436    5.8013813  
H   -3.5178062   -2.9546422    5.2385129  
H   -3.8247440   -3.2102924    2.2519915  
H   -2.2566033   -1.8942483    1.1360343  
H    1.6567807    1.3889844    2.0042067  
