62

C    4.1389999   -3.6317135   -5.2110459  
C    3.3745787   -3.0338651   -6.1860871  
C    3.8652928   -3.4975936   -7.4425724  
C    4.9384533   -4.3837899   -7.1688782  
N    5.0792746   -4.4410555   -5.8045077  
C    5.6605408   -5.0309244   -8.1761495  
C    5.2923792   -4.7790929   -9.4835192  
O    5.9636747   -5.3848561  -10.5059793  
C    4.2246252   -3.8977708   -9.7767587  
O    3.9800197   -3.7506609  -11.1265253  
C    3.5120031   -3.2588001   -8.7835757  
H    5.7547852   -4.9985126   -5.3136841  
H    6.4795735   -5.7073722   -7.9741446  
H    5.5525254   -5.0755879  -11.3236429  
H    3.2448937   -3.1400468  -11.2376271  
H    2.6991551   -2.5890052   -9.0387824  
H    4.0888283   -3.5437358   -4.1392709  
C    2.2675097   -2.0960610   -5.9498184  
C    1.7744246   -1.6329634   -4.7723279  
C    0.6888618   -0.7368505   -5.0938399  
C    0.5891927   -0.7157115   -6.5657132  
N    1.5740350   -1.5599379   -7.0242506  
C   -0.3170783    0.0136359   -7.2645893  
C   -1.2569154    0.8326279   -6.5172654  
O   -2.1110288    1.5252265   -7.0549439  
C   -1.1693695    0.8256867   -4.9577486  
O   -1.9551699    1.5114887   -4.3178622  
C   -0.1496415   -0.0015615   -4.3176961  
H    2.1306440   -1.8896606   -3.7905807  
H   -0.3733624    0.0148799   -8.3442836  
H    1.7590690   -1.7578570   -7.9905002  
C    3.3003543    0.0005276   -1.4738987  
C    2.5232814    0.0003497   -2.6090747  
C    1.1623200   -0.0001320   -2.1820103  
C    1.1711883    0.0000582   -0.7636140  
N    2.4852300   -0.0014919   -0.3662360  
C    0.0000000    0.0000000    0.0000000  
C   -1.2020384    0.0000519   -0.6806477  
O   -2.3759249    0.0003493    0.0157743  
C   -1.2314656   -0.0005115   -2.0955510  
O   -2.5054392   -0.0008039   -2.6250180  
C   -0.0764516   -0.0007274   -2.8495195  
H    2.8919955   -0.0005620   -3.6205304  
H    2.8036267    0.0088183    0.5858662  
H   -3.0835638    0.0000347   -0.6418818  
H   -2.4360047   -0.0011529   -3.5845921  
H    4.3715549    0.0004895   -1.3667136  
C    2.5128556    2.1077716    2.9199648  
C    1.9592212    1.6432552    4.0696553  
C    0.8915788    0.7479214    3.6910360  
C    0.8684491    0.7287414    2.2159470  
N    1.8754542    1.5738793    1.8102719  
C    0.0000000    0.0000000    1.4700000  
C   -0.9772830   -0.8200135    2.1664417  
O   -1.8021297   -1.5120829    1.5842315  
C   -0.9711318   -0.8147624    3.7284083  
O   -1.7894187   -1.5009653    4.3257297  
C    0.0140216    0.0115358    4.4216297  
H    2.2638494    1.8988021    5.0689105  
H    0.0117648    0.0094386    5.5031631  
H    3.3327358    2.7953732    2.7900019  
H    2.1123206    1.7707734    0.8551938  
