64

C   -3.5010079    3.6332315    1.3825543  
C   -4.5792676    3.0356929    0.7720045  
C   -5.7484563    3.4999293    1.4443759  
C   -5.3176159    4.3861019    2.4646702  
N   -3.9474709    4.4428657    2.4006462  
C   -6.2058344    5.0336678    3.3286808  
C   -7.5535542    4.7822999    3.1594348  
O   -8.4643745    5.3884966    3.9754884  
C   -8.0029136    3.9010092    2.1473978  
O   -9.3741114    3.7543881    2.1066318  
C   -7.1272126    3.2616132    1.2948447  
H   -3.3612854    5.0001882    2.9954224  
H   -5.8838196    5.7101001    4.1083909  
H   -9.3342770    5.0795050    3.6907844  
H   -9.5937146    3.1437616    1.3963407  
H   -7.5009121    2.5918542    0.5291757  
H   -2.4487004    3.5448476    1.1732791  
C   -4.5109066    2.0977186   -0.3577882  
C   -3.4201852    1.6341426   -1.0207354  
C   -3.9001608    0.7380703   -2.0461684  
C   -5.3704640    0.7174766   -1.9254402  
N   -5.6768568    1.5619478   -0.8833837  
C   -6.1968217   -0.0116751   -2.7173833  
C   -5.5981514   -0.8310170   -3.7579637  
O   -6.2573266   -1.5234764   -4.5223515  
C   -4.0429937   -0.8246547   -3.9037356  
O   -3.5275661   -1.5107550   -4.7760093  
C   -3.2578655    0.0024282   -2.9908505  
H   -2.3962315    1.8904974   -0.8147870  
H   -7.2728523   -0.0125179   -2.6121841  
H   -6.6046845    1.7602432   -0.5564866  
C    0.0000000    0.0000000    0.0000000  
C    1.0521666   -0.0011982   -0.8862343  
C    0.4917215   -0.0011996   -2.1979132  
C   -0.9187429    0.0003215   -2.0478682  
N   -1.1833171   -0.0009323   -0.7007913  
C   -1.7951703    0.0010483   -3.1372089  
C   -1.2375841    0.0005313   -4.4010422  
O   -2.0474218    0.0015510   -5.4997578  
C    0.1673576   -0.0013585   -4.5711963  
O    0.5673520   -0.0020735   -5.8915554  
C    1.0325768   -0.0023493   -3.4969892  
H    2.0953056   -0.0030808   -0.6200564  
H   -2.0989778    0.0102529   -0.2891822  
H   -1.4634888    0.0006601   -6.2693595  
H    1.5290707   -0.0033271   -5.9180047  
H    2.1042146   -0.0039770   -3.6584456  
C    0.0000000    0.0000000    1.4700000  
C    1.0521667    0.0011902    2.3562342  
C    0.4917218    0.0011957    3.6679131  
C   -0.9187428   -0.0003148    3.5178682  
N   -1.1833171    0.0009411    2.1707914  
C   -1.7951701   -0.0010350    4.6072090  
C   -1.2375837   -0.0005224    5.8710424  
O   -2.0474215   -0.0015360    6.9697579  
C    0.1673580    0.0013566    6.0411963  
O    0.5673524    0.0020687    7.3615553  
C    1.0325770    0.0023412    4.9669890  
H    2.0953057    0.0030649    2.0900562  
H   -2.0989778   -0.0102372    1.7591824  
H   -2.8710934   -0.0020419    4.4995513  
H   -1.4634884   -0.0006497    7.7393593  
H    1.5290710    0.0033153    7.3880045  
H    2.1042148    0.0039609    5.1284455  
