60

C    2.5739599   -2.1205413   -6.0299301  
C    2.0624115   -1.6592053   -4.8391513  
C    0.9926084   -0.7724382   -5.1612768  
C    0.8970784   -0.7320764   -6.5759042  
N    1.8729612   -1.5603567   -7.0721127  
C   -0.0523143    0.0436663   -7.2479647  
C   -0.9212935    0.7920667   -6.4779327  
O   -1.8681346    1.5670783   -7.0827992  
C   -0.8414765    0.7652849   -5.0652301  
O   -1.7760616    1.5649891   -4.4404368  
C    0.0950450    0.0004357   -4.4015596  
H    2.4174427   -1.9278227   -3.8589517  
H    2.0409129   -1.7413737   -8.0452541  
H   -0.1302101    0.0788810   -8.3258765  
H   -2.3609694    1.9995572   -6.3733337  
H   -1.6536852    1.4894934   -3.4891598  
H    3.3843232   -2.8037502   -6.2183331  
C    3.3321174    0.0004722   -1.3379336  
C    2.6974183    0.0000122   -2.5332313  
C    1.2800441   -0.0002113   -2.2052840  
C    1.2395036    0.0000646   -0.7271298  
N    2.4394063    0.0005463   -0.2131037  
C    0.0000000    0.0000000    0.0000000  
C   -1.1468699    0.0000637   -0.7169543  
O   -2.3742201    0.0000076   -0.1695489  
C   -1.1388769    0.0001611   -2.2096357  
O   -2.2206234    0.0000908   -2.7970412  
C    0.1454523    0.0001820   -2.9324241  
H    3.1367987   -0.0000643   -3.5160945  
H   -2.9844345    0.0001025   -0.9290168  
C    4.7795905    0.0008679   -1.0815729  
C    5.7862024    0.0008775   -1.9861791  
C    7.0047297    0.0013415   -1.1913893  
C    6.5351382    0.0016829    0.2107760  
N    5.2316827    0.0013268    0.2814341  
C    7.4495165    0.0021408    1.3193780  
C    8.7728604    0.0018636    1.0399217  
O    9.7375503    0.0022376    1.9755574  
C    9.2780074    0.0011452   -0.3647086  
O   10.4956958    0.0010508   -0.5448632  
C    8.3200399    0.0007293   -1.4846288  
H    5.7111083    0.0005133   -3.0601607  
H    7.0785144    0.0025899    2.3339059  
H   10.5714826    0.0018715    1.4718617  
H    8.7261896    0.0000960   -2.4872613  
C    2.5528530    2.1414826    2.8079335  
C    2.0663498    1.7338582    4.0032312  
C    0.9804344    0.8229586    3.6752840  
C    0.9495562    0.7966882    2.1971295  
N    1.8690446    1.5676019    1.6831036  
C    0.0000000    0.0000000    1.4700000  
C   -0.8785127   -0.7372425    2.1869543  
O   -1.8187535   -1.5261249    1.6395491  
C   -0.8723269   -0.7321790    3.6796354  
O   -1.7010379   -1.4274584    4.2670412  
C    0.1115397    0.0933559    4.4024240  
H    2.4028853    2.0163452    4.9860947  
H   -2.2861435   -1.9184361    2.3990168  
H    0.0832434    0.0693689    5.4835595  
H    3.3664920    2.8238276    2.6198634  
