60

C    8.7120167   -0.0001560    0.2818446  
C    8.0076925   -0.0002501    1.4635356  
C    8.9664256   -0.0004540    2.5196761  
C   10.2501820   -0.0001887    1.9164391  
N   10.0594849   -0.0019631    0.5569364  
C   11.4347679    0.0000134    2.6591003  
C   11.3213434    0.0002534    4.0358038  
O   12.4460711    0.0008081    4.8091075  
C   10.0493831   -0.0003809    4.6562355  
O   10.1033711   -0.0004638    6.0347956  
C    8.8803398   -0.0008537    3.9242093  
H    6.9348749   -0.0012855    1.5532808  
H   10.7901020    0.0083389   -0.1315946  
H   12.4162617    0.0000719    2.2053664  
H   12.1460552    0.0005902    5.7273969  
H    9.2032290   -0.0008777    6.3744269  
H    7.9204971   -0.0015171    4.4273790  
C    4.7161325   -0.0005435   -1.6923264  
C    5.6747634   -0.0008962   -0.7370219  
C    6.9326496   -0.0010016   -1.4679270  
C    6.5359796   -0.0007815   -2.8924396  
N    5.2379004   -0.0004318   -3.0302104  
C    7.5063013   -0.0007605   -3.9524218  
C    8.8134762   -0.0005618   -3.6051048  
O    9.8251237   -0.0005265   -4.4897563  
C    9.2455283   -0.0004050   -2.1762969  
O   10.4523083   -0.0003512   -1.9335978  
C    8.2310902   -0.0004738   -1.1072595  
H    5.5443945   -0.0009738    0.3316593  
H    7.1881021   -0.0008042   -4.9847295  
H   10.6319770   -0.0003440   -3.9437328  
C    3.2573665   -0.0002920   -1.5109385  
C    2.5379463   -0.0001709   -0.3591964  
C    1.1435038    0.0000331   -0.7338500  
C    1.1092599   -0.0000083   -2.2088477  
N    2.4227553    0.0001909   -2.6182613  
C   -0.0265539   -0.0002524   -2.9515660  
C   -1.3003040   -0.0002640   -2.2514977  
O   -2.3786790   -0.0004133   -2.8306421  
C   -1.2877727    0.0000311   -0.6895603  
O   -2.3539959    0.0003306   -0.0892030  
C    0.0000000    0.0000000    0.0000000  
H    2.9384091   -0.0000367    0.6389234  
H   -0.0296303   -0.0004086   -4.0327229  
H    2.7280482   -0.0013407   -3.5742119  
C    2.5128556    2.1077716    2.9199648  
C    1.9592212    1.6432552    4.0696553  
C    0.8915788    0.7479214    3.6910360  
C    0.8684491    0.7287414    2.2159470  
N    1.8754542    1.5738793    1.8102719  
C    0.0000000    0.0000000    1.4700000  
C   -0.9772830   -0.8200135    2.1664417  
O   -1.8021297   -1.5120829    1.5842315  
C   -0.9711318   -0.8147624    3.7284083  
O   -1.7894187   -1.5009653    4.3257297  
C    0.0140216    0.0115358    4.4216297  
H    2.2638494    1.8988021    5.0689105  
H    0.0117648    0.0094386    5.5031631  
H    3.3327358    2.7953732    2.7900019  
H    2.1123206    1.7707734    0.8551938  
