64

C    1.6872041   -3.1061213  -10.0742517  
C    1.9296030   -2.3055468  -11.1664007  
C    1.5485585   -0.9797423  -10.8035696  
C    1.0772789   -1.0332387   -9.4667968  
N    1.1732946   -2.3392635   -9.0548529  
C    0.6176054    0.0952460   -8.7812236  
C    0.6342678    1.2997294   -9.4573291  
O    0.1968590    2.4330539   -8.8350257  
C    1.1004391    1.3732831  -10.7915305  
O    1.0537777    2.6437252  -11.3273871  
C    1.5538114    0.2603637  -11.4685758  
H    2.3305883   -2.6366249  -12.1090529  
H    0.9210603   -2.6808844   -8.1450976  
H    0.2920394    3.1501881   -9.4752772  
H    1.3856056    2.6056407  -12.2296314  
H    1.9047542    0.3475474  -12.4901993  
H    1.8388947   -4.1637252   -9.9422608  
C    2.0234324   -2.1203367   -5.1612091  
C    1.8898405   -1.6210653   -6.4361003  
C    0.7628122   -0.7468331   -6.4249093  
C    0.2448267   -0.7524210   -5.1044597  
N    1.0324260   -1.5980774   -4.3633998  
C   -0.8712826    0.0001710   -4.7267111  
C   -1.4753121    0.7727082   -5.6995997  
O   -2.5682872    1.5273083   -5.3849617  
C   -0.9734765    0.7912225   -7.0227155  
O   -1.6848160    1.6097207   -7.8755935  
C    0.1273886    0.0488144   -7.3961488  
H    2.5257350   -1.8586903   -7.2716639  
H    0.9132302   -1.7948165   -3.3861244  
H   -2.8290819    1.9818422   -6.1965340  
H   -1.2808198    1.5648553   -8.7475895  
H    2.7463507   -2.8087674   -4.7582059  
C    1.0965514    0.0001359   -0.8010305  
C    0.0000000    0.0000000    0.0000000  
C   -1.1546563    0.0001470   -0.8669513  
C   -0.6372014    0.0003519   -2.2486282  
N    0.7342871    0.0007337   -2.1395014  
C   -1.4147739    0.0001352   -3.3608717  
C   -2.8576049   -0.0001048   -3.1854462  
O   -3.6427779   -0.0002494   -4.1244907  
C   -3.4275840   -0.0000725   -1.7311666  
O   -4.6406831    0.0000333   -1.5710060  
C   -2.4891867   -0.0001091   -0.6116744  
H   -2.8919122   -0.0002918    0.3920866  
H    2.1388272    0.0000663   -0.5261648  
H    1.3735872   -0.0006099   -2.9130262  
C    2.5311839    2.1237619    3.0120429  
C    1.9795631    1.6616747    1.8395852  
C    0.9223175    0.7739173    2.1983588  
C    0.8753926    0.7337535    3.6154372  
N    1.8668922    1.5631002    4.0777464  
C   -0.0496243   -0.0427881    4.3197917  
C   -0.9437528   -0.7922060    3.5801400  
O   -1.8685244   -1.5680278    4.2172520  
C   -0.9124520   -0.7656372    2.1655264  
O   -1.8671164   -1.5663939    1.5732860  
C    0.0000000    0.0000000    1.4700000  
H    2.3005065    1.9304404    0.8477417  
H    2.0679347    1.7444845    5.0445261  
H   -0.0904770   -0.0778569    5.3997470  
H   -2.3849669   -2.0011402    3.5251786  
H   -1.7775064   -1.4909735    0.6183591  
H    3.3468514    2.8078103    3.1724291  
