64

C    0.9735696   -0.0115214   -4.6965762  
C   -0.3184496   -0.0011828   -5.1688546  
C   -0.2411489   -0.0029546   -6.5931512  
C    1.1353501   -0.0149273   -6.9352511  
N    1.8452825   -0.0179230   -5.7602604  
C    1.5856563   -0.0200962   -8.2588777  
C    0.6289641   -0.0133572   -9.2553074  
O    1.0134970   -0.0183216  -10.5649343  
C   -0.7492308   -0.0010210   -8.9339915  
O   -1.5772243    0.0048757  -10.0375022  
C   -1.1941879    0.0043574   -7.6284227  
H   -1.2072948    0.0077749   -4.5615106  
H    2.8464279   -0.0364383   -5.6871415  
H    0.2013232   -0.0118760  -11.0880005  
H   -2.4898019    0.0131242   -9.7329731  
H   -2.2562694    0.0140084   -7.4130893  
C   -1.1188377    0.0077685   -0.8003800  
C    0.0000000    0.0000000    0.0000000  
C    1.1323459   -0.0095843   -0.8673521  
C    0.6382320   -0.0068683   -2.1969273  
N   -0.7324100    0.0017756   -2.1202235  
C    1.4770267   -0.0140725   -3.3154805  
C    2.8394475   -0.0238962   -3.0876851  
O    3.7037918   -0.0308809   -4.1440346  
C    3.3516772   -0.0271278   -1.7684333  
O    4.7299004   -0.0375537   -1.7073117  
C    2.5247730   -0.0202980   -0.6644812  
H   -1.3575487    0.0160407   -2.9057038  
H    4.5938511   -0.0374552   -3.7685123  
H    4.9933074   -0.0390659   -0.7819914  
H    2.9461666   -0.0231817    0.3339661  
H   -2.1619332    0.0156645   -0.5342065  
C    5.0456708   -2.1678822   -6.5342924  
C    6.0024885   -1.6774009   -7.3924275  
C    5.3380910   -0.7984564   -8.2983152  
C    3.9654467   -0.7922434   -7.9409149  
N    3.8220547   -1.6357071   -6.8673109  
C    3.0099644   -0.0322987   -8.6223297  
C    3.4481912    0.7355934   -9.6836857  
O    2.5573747    1.4969889  -10.3834964  
C    4.8136055    0.7423535  -10.0557295  
O    5.0920517    1.5575266  -11.1333679  
C    5.7567189   -0.0073131   -9.3841178  
H    7.0502278   -1.9237595   -7.3691226  
H    2.9598613   -1.8247981   -6.3889297  
H    3.0642738    1.9466491  -11.0720634  
H    6.0345239    1.5046135  -11.3192476  
H    6.7954307    0.0179529   -9.6922072  
H    5.1389991   -2.8563309   -5.7119257  
C    0.8681109    0.7263879    2.2709268  
C    0.6127770    0.5096195    3.5869401  
C   -0.4920590   -0.4175482    3.6542670  
C   -0.8620974   -0.7254003    2.2596025  
N    0.0000000    0.0000000    1.4700000  
C   -1.8641242   -1.5660088    1.8976294  
C   -2.6293522   -2.2103885    2.9520183  
O   -3.5512764   -2.9839180    2.7283916  
C   -2.2549728   -1.8987399    4.4361073  
O   -2.8923672   -2.4351063    5.3323774  
C   -1.1543735   -0.9755647    4.7012123  
H    1.1382914    0.9492124    4.4159191  
H   -2.1192137   -1.7782617    0.8686553  
H   -0.9013378   -0.7652422    5.7314848  
H    1.6172880    1.3558399    1.8188057  
