64

C   -7.1407481    5.6421508    0.8299536  
C   -6.3461495    4.6561716    0.2924355  
C   -7.1085341    3.4507558    0.3109490  
C   -8.3711697    3.7654912    0.8754123  
N   -8.3565358    5.1037480    1.1811428  
C   -9.3806506    2.8137538    1.0484234  
C   -9.1106978    1.5208039    0.6439700  
O  -10.0611347    0.5520623    0.7896558  
C   -7.8568112    1.1871436    0.0789442  
O   -7.7417451   -0.1418201   -0.2731336  
C   -6.8603708    2.1254849   -0.0917864  
H   -5.3403176    4.7891270   -0.0675897  
H   -9.1200764    5.6150403    1.5855766  
H  -10.3450496    3.0472122    1.4781138  
H   -9.6729105   -0.2646482    0.4497571  
H   -6.8663133   -0.2828739   -0.6463994  
H   -6.9359315    6.6865509    0.9919323  
C   -4.3329665    2.1450168   -0.3175485  
C   -5.5711456    1.7385431   -0.6826118  
C   -5.3538018    0.8273992   -1.7957509  
C   -3.8860915    0.7997432   -1.9736451  
N   -3.2823480    1.5701205   -1.1099310  
C   -3.2578655    0.0024282   -2.9908505  
C   -4.0594175   -0.7340898   -3.7935894  
O   -3.6090879   -1.5234309   -4.7836322  
C   -5.5440604   -0.7276254   -3.6388178  
O   -6.2117105   -1.4223045   -4.4049023  
C   -6.1645244    0.0985304   -2.5879057  
H   -4.4116855   -1.9150016   -5.1730706  
H   -7.2431275    0.0755598   -2.5084188  
H   -4.0641812    2.8271376    0.4732985  
C    0.0000000    0.0000000    0.0000000  
C    1.0521666   -0.0011982   -0.8862343  
C    0.4917215   -0.0011996   -2.1979132  
C   -0.9187429    0.0003215   -2.0478682  
N   -1.1833171   -0.0009323   -0.7007913  
C   -1.7951703    0.0010483   -3.1372089  
C   -1.2375841    0.0005313   -4.4010422  
O   -2.0474218    0.0015510   -5.4997578  
C    0.1673576   -0.0013585   -4.5711963  
O    0.5673520   -0.0020735   -5.8915554  
C    1.0325768   -0.0023493   -3.4969892  
H    2.0953056   -0.0030808   -0.6200564  
H   -2.0989778    0.0102529   -0.2891822  
H   -1.4634888    0.0006601   -6.2693595  
H    1.5290707   -0.0033271   -5.9180047  
H    2.1042146   -0.0039770   -3.6584456  
C    1.1243417   -0.0099156    2.2619005  
C    0.7474090   -0.0234034    3.5848544  
C   -0.6787367   -0.0234952    3.6114698  
C   -1.1201739   -0.0099357    2.2635546  
N    0.0000000    0.0000000    1.4700000  
C   -2.4730812   -0.0065396    1.9108239  
C   -3.3971947   -0.0173298    2.9375057  
O   -4.7313508   -0.0149487    2.6493466  
C   -2.9763630   -0.0305536    4.2886322  
O   -4.0166453   -0.0397858    5.1947621  
C   -1.6418541   -0.0336380    4.6373480  
H    1.4178735   -0.0310004    4.4271209  
H   -2.8160170    0.0039190    0.8854031  
H   -5.1938803   -0.0234410    3.4974381  
H   -3.6464643   -0.0484781    6.0827341  
H   -1.3497443   -0.0436789    5.6809233  
H    2.1062470   -0.0051382    1.8205408  
