62

C    4.9892786   -2.9448582   -0.5553306  
C    4.2767257   -3.6423990    0.3923887  
C    5.2205858   -4.3939086    1.1532841  
C    6.5041963   -4.1121354    0.6195483  
N    6.3275156   -3.2304094   -0.4177357  
C    7.6759452   -4.6814534    1.1271615  
C    7.5496242   -5.5508245    2.1931877  
O    8.6615335   -6.1346075    2.7278567  
C    6.2775524   -5.8448060    2.7392860  
O    6.3178030   -6.7291012    3.7974661  
C    5.1211420   -5.2837362    2.2388453  
H    3.2080008   -3.6140185    0.5189409  
H    7.0624033   -2.8419374   -0.9807724  
H    8.6572395   -4.4709029    0.7247533  
H    8.3539404   -6.6967056    3.4508345  
H    5.4185568   -6.8736532    4.1074097  
H    4.1608537   -5.5280471    2.6777485  
C    4.5241706   -2.0197347   -1.5987485  
C    3.2543043   -1.6359768   -1.8666074  
C    3.3687740   -0.7183913   -2.9897430  
C    4.8178233   -0.6623652   -3.2790548  
N    5.5001622   -1.4232185   -2.4669559  
C    5.3513654    0.1489621   -4.3383784  
C    4.4770153    0.8711781   -5.0754339  
O    4.8354301    1.6710200   -6.0941750  
C    3.0088457    0.8354821   -4.8082932  
O    2.2716047    1.5186015   -5.5189576  
C    2.4861704   -0.0045255   -3.7159919  
H    2.3514142   -1.9383095   -1.3641534  
H    6.4147065    0.1710243   -4.5273997  
H    3.9981226    2.0475216   -6.4202358  
C    0.0000000    0.0000000    0.0000000  
C    1.0521669   -0.0011848   -0.8862341  
C    0.4917221   -0.0011931   -2.1979130  
C   -0.9187427    0.0003100   -2.0478683  
N   -1.1833170   -0.0009472   -0.7007915  
C   -1.7951698    0.0010259   -3.1372090  
C   -1.2375835    0.0005161   -4.4010425  
O   -2.0474208    0.0015256   -5.4997580  
C    0.1673584   -0.0013557   -4.5711962  
O    0.5673529   -0.0020659   -5.8915551  
C    1.0325773   -0.0023359   -3.4969890  
H    2.0953059   -0.0030542   -0.6200560  
H   -2.0989777    0.0102265   -0.2891825  
H   -2.8710930    0.0020274   -3.0295514  
H   -1.4634881    0.0006427   -6.2693593  
H    1.5290715   -0.0033076   -5.9180042  
C    1.0965515   -0.0001358    2.2710304  
C    0.0000000    0.0000000    1.4700000  
C   -1.1546562   -0.0001469    2.3369512  
C   -0.6372014   -0.0003519    3.7186280  
N    0.7342871   -0.0007337    3.6095011  
C   -1.4147739   -0.0001353    4.8308716  
C   -2.8576048    0.0001048    4.6554461  
O   -3.6427778    0.0002493    5.5944904  
C   -3.4275839    0.0000726    3.2011665  
O   -4.6406829   -0.0000333    3.0410059  
C   -2.4891866    0.0001091    2.0816745  
H   -1.0150448   -0.0001615    5.8354244  
H   -2.8919121    0.0002919    1.0779135  
H    2.1388271   -0.0000662    1.9961646  
H    1.3735872    0.0006099    4.3830260  
