62

C    3.8271574    0.7118052   -7.9479973  
C    4.8668237   -0.0077438   -7.4059541  
C    5.4699207   -0.7365622   -8.4735198  
C    4.7495976   -0.4189044   -9.6534156  
N    3.7578114    0.4614434   -9.2985002  
C    5.0691197   -0.9586523  -10.9029630  
C    6.1354157   -1.8348037  -10.9625484  
O    6.4906560   -2.3906966  -12.1574537  
C    6.8661130   -2.1644021   -9.7962459  
O    7.8992485   -3.0510168  -10.0196037  
C    6.5512887   -1.6325162   -8.5631572  
H    3.0926466    0.8712806   -9.9290328  
H    4.5239678   -0.7206859  -11.8059481  
H    7.2477193   -2.9633007  -11.9778874  
H    8.3410482   -3.2205026   -9.1819334  
H    7.1290694   -1.9038005   -7.6873418  
H    3.1286981    1.3826965   -7.4778715  
C    2.4861703   -0.0045381   -3.7159920  
C    3.4897069   -0.0059405   -2.8011220  
C    4.7313105   -0.0078380   -3.5381791  
C    4.3662423   -0.0073938   -4.9676949  
N    2.9909945   -0.0057667   -5.0074606  
C    5.2594871   -0.0083964   -5.9893680  
C    6.6748999   -0.0102475   -5.6590057  
O    7.5569791   -0.0113202   -6.5076729  
C    7.0843360   -0.0110000   -4.1516348  
O    8.2730121   -0.0128630   -3.8612809  
C    6.0304251   -0.0095091   -3.1401398  
H    3.3734534   -0.0058582   -1.7319639  
H    6.3222878   -0.0098369   -2.0987274  
H    2.4390587   -0.0035497   -5.8455586  
C    0.0000000    0.0000000    0.0000000  
C    1.0521669   -0.0011901   -0.8862341  
C    0.4917220   -0.0011956   -2.1979132  
C   -0.9187428    0.0003148   -2.0478684  
N   -1.1833170   -0.0009411   -0.7007915  
C   -1.7951699    0.0010351   -3.1372091  
C   -1.2375836    0.0005225   -4.4010425  
O   -2.0474210    0.0015361   -5.4997584  
C    0.1673583   -0.0013566   -4.5711960  
O    0.5673528   -0.0020686   -5.8915549  
C    1.0325772   -0.0023411   -3.4969890  
H    2.0953059   -0.0030648   -0.6200562  
H   -2.0989777    0.0102372   -0.2891825  
H   -2.8710931    0.0020419   -3.0295515  
H   -1.4634882    0.0006497   -6.2693594  
H    1.5290713   -0.0033151   -5.9180046  
C    1.0672568    0.0000697    2.3021913  
C    0.0000000    0.0000000    1.4700000  
C   -1.1601224    0.0000736    2.3478473  
C   -0.5938729    0.0000769    3.7138435  
N    0.7113367    0.0001554    3.6934124  
C   -1.4286986    0.0001879    4.8835240  
C   -2.7683114    0.0006799    4.6970523  
O   -3.6653903    0.0008304    5.6976972  
C   -3.3702025    0.0010610    3.3310774  
O   -4.5974910    0.0013779    3.2362962  
C   -2.4926826    0.0008943    2.1470656  
H   -0.9878360   -0.0000190    5.8697035  
H   -4.5324246    0.0012261    5.2533954  
H   -2.9677772    0.0012974    1.1752040  
H    2.1134392    0.0000545    2.0405121  
