60

C    7.7647701   -2.9457955   -4.0402675  
C    6.8335192   -1.9835526   -4.3554292  
C    7.5425689   -0.7574811   -4.5245400  
C    8.9149299   -1.0357329   -4.2984298  
N    9.0146118   -2.3730866   -4.0048883  
C    9.9089263   -0.0560124   -4.3815427  
C    9.5103061    1.2279300   -4.6989881  
O   10.4398292    2.2229454   -4.7935637  
C    8.1457459    1.5253398   -4.9277659  
O    7.9091709    2.8496985   -5.2334615  
C    7.1645721    0.5593762   -4.8456778  
H    5.7734154   -2.1451904   -4.4505354  
H    9.8692247   -2.8620293   -3.8085407  
H   10.9565786   -0.2616113   -4.2102081  
H    9.9561569    3.0277300   -5.0208240  
H    6.9643446    2.9655336   -5.3730657  
H    7.6361648   -3.9950345   -3.8365106  
C    3.4546603   -0.7051940   -2.8655879  
C    2.5562217   -0.0001543   -3.6003001  
C    3.3075553    0.7421849   -4.5848131  
C    4.7275393    0.4094242   -4.3618644  
N    4.7487509   -0.4720442   -3.3057142  
C    5.7578599    0.9090037   -5.0902629  
C    5.4475471    1.8364959   -6.1654369  
O    6.3052803    2.3410463   -6.8781952  
C    3.9505757    2.2032202   -6.4191985  
O    3.6771258    2.9832721   -7.3214208  
C    2.9282239    1.6000479   -5.5678277  
H    1.8941006    1.8589998   -5.7501908  
H    3.2802844   -1.3753180   -2.0395027  
H    5.5766095   -0.8842294   -2.9160992  
C    0.0000000    0.0000000    0.0000000  
C    1.0541688   -0.0001719   -0.8560391  
C    0.5103141   -0.0000449   -2.1935955  
C   -0.9576367    0.0002461   -2.0455733  
N   -1.2018459   -0.0001392   -0.6915970  
C   -1.8348306    0.0008319   -3.0810611  
C   -1.2972842    0.0009739   -4.4314605  
O   -2.0050664    0.0014267   -5.4301321  
C    0.2542628    0.0004190   -4.6117571  
O    0.7184677    0.0002263   -5.7439119  
C    1.0974556    0.0000880   -3.4189127  
H    2.0940752   -0.0005479   -0.5817978  
H   -2.9081050    0.0011669   -2.9507065  
H   -2.1128195    0.0014911   -0.2706793  
C    0.0000000    0.0000000    1.4700000  
C    1.0541688    0.0001722    2.3260392  
C    0.5103138    0.0000454    3.6635956  
C   -0.9576371   -0.0002459    3.5155732  
N   -1.2018458    0.0001392    2.1615969  
C   -1.8348311   -0.0008317    4.5510609  
C   -1.2972847   -0.0009736    5.9014604  
O   -2.0050672   -0.0014265    6.9001319  
C    0.2542623   -0.0004184    6.0817573  
O    0.7184670   -0.0002256    7.2139121  
C    1.0974552   -0.0000873    4.8889129  
H    2.0940752    0.0005483    2.0517982  
H   -2.9081052   -0.0011668    4.4207061  
H    2.1707277    0.0000911    5.0223670  
H   -2.1128194   -0.0014912    1.7406791  
