60

C    5.5391884   -1.1094536   -6.4930852  
C    6.5229956   -1.9937567   -6.1154636  
C    7.3169103   -2.2520903   -7.2719944  
C    6.7651860   -1.4908594   -8.3340928  
N    5.6859779   -0.8103038   -7.8273682  
C    7.2962487   -1.5012434   -9.6274046  
C    8.4046442   -2.2943014   -9.8525625  
O    8.9636641   -2.3412798  -11.0968712  
C    8.9692805   -3.0612953   -8.8057951  
O   10.0699790   -3.7995303   -9.1889587  
C    8.4457356   -3.0517455   -7.5297325  
H    6.6518408   -2.4032115   -5.1281751  
H    5.1016653   -0.1799135   -8.3461817  
H    6.8803234   -0.9234546  -10.4412648  
H    9.7148101   -2.9457226  -11.0360985  
H   10.3899752   -4.2877411   -8.4241991  
H    8.8997145   -3.6498640   -6.7483008  
C    4.2034617   -0.7255629   -4.3886928  
C    4.4527381   -0.5087794   -5.7058645  
C    3.4509045    0.4181870   -6.1769255  
C    2.5913899    0.7259044   -5.0179020  
N    3.1006054    0.0006263   -3.9654951  
C    1.5263758    1.5663104   -5.0520694  
C    1.2050786    2.2105986   -6.3146842  
O    0.2656531    2.9839469   -6.4477772  
C    2.1016895    1.8990894   -7.5551904  
O    1.8407280    2.4353806   -8.6236246  
C    3.2224932    0.9761306   -7.3945728  
H    0.9088868    1.7784673   -4.1903228  
H    3.8385531    0.7659037   -8.2582839  
H    4.7325143   -1.3548978   -3.6916057  
C    3.2798083    0.0005857   -1.4499652  
C    2.5571142    0.0005565   -2.5996556  
C    1.1637432    0.0001548   -2.2210361  
C    1.1336964   -0.0000200   -0.7459473  
N    2.4483512   -0.0001428   -0.3402723  
C    0.0000000    0.0000000    0.0000000  
C   -1.2757368   -0.0000186   -0.6964415  
O   -2.3524598   -0.0000639   -0.1142311  
C   -1.2676497   -0.0000872   -2.2584083  
O   -2.3355766   -0.0004101   -2.8557295  
C    0.0181558    0.0001758   -2.9516296  
H    0.0150788    0.0003319   -4.0331631  
H    4.3498547    0.0008612   -1.3200026  
H    2.7563626    0.0012823    0.6148059  
C    0.0000000    0.0000000    1.4700000  
C    1.0541688    0.0001722    2.3260392  
C    0.5103138    0.0000454    3.6635956  
C   -0.9576371   -0.0002459    3.5155732  
N   -1.2018458    0.0001392    2.1615969  
C   -1.8348311   -0.0008317    4.5510609  
C   -1.2972847   -0.0009736    5.9014604  
O   -2.0050672   -0.0014265    6.9001319  
C    0.2542623   -0.0004184    6.0817573  
O    0.7184670   -0.0002256    7.2139121  
C    1.0974552   -0.0000873    4.8889129  
H    2.0940752    0.0005483    2.0517982  
H   -2.9081052   -0.0011668    4.4207061  
H    2.1707277    0.0000911    5.0223670  
H   -2.1128194   -0.0014912    1.7406791  
