60

C   10.1337812    2.1217973   -2.2479588  
C   11.3795541    1.6227356   -1.9455454  
C   11.2183981    0.7488895   -0.8297401  
C    9.8407143    0.7544860   -0.4922753  
N    9.2111091    1.5997763   -1.3718769  
C    9.3177130    0.0022291    0.5638345  
C   10.2015278   -0.7699755    1.2923589  
O    9.7441568   -1.5242403    2.3339488  
C   11.5797045   -0.7884920    0.9712597  
O   12.3302874   -1.6066357    1.7901670  
C   12.0963994   -0.0464144   -0.0703131  
H   12.2923606    1.8602498   -2.4645493  
H    8.2266488    1.7964307   -1.3840005  
H   10.5137919   -1.9785801    2.7006940  
H   13.2483256   -1.5617971    1.5059169  
H   13.1565684   -0.0806383   -0.2924563  
H    9.8306156    2.8099273   -3.0183653  
C    5.7851528    0.0009360   -1.9873452  
C    4.7795901    0.0008674   -1.0815733  
C    5.4416652    0.0014223    0.2138632  
C    6.8854798    0.0016738   -0.1054857  
N    7.0929836    0.0014713   -1.3942570  
C    7.8916463    0.0022759    0.9205334  
C    7.4744098    0.0030007    2.2070976  
O    8.3032740    0.0036099    3.2649370  
C    6.0244005    0.0031411    2.5615457  
O    5.7170387    0.0036916    3.7534974  
C    5.0115684    0.0024703    1.4909874  
H    7.7145743    0.0040689    4.0412004  
H    3.9717453    0.0027120    1.7893136  
H    5.7099328    0.0006295   -3.0631309  
C    3.3321168    0.0004716   -1.3379341  
C    2.6974177    0.0000118   -2.5332316  
C    1.2800432   -0.0002116   -2.2052842  
C    1.2395033    0.0000644   -0.7271298  
N    2.4394059    0.0005460   -0.2131041  
C    0.0000000    0.0000000    0.0000000  
C   -1.1468704    0.0000635   -0.7169542  
O   -2.3742206    0.0000074   -0.1695488  
C   -1.1388774    0.0001608   -2.2096352  
O   -2.2206238    0.0000906   -2.7970409  
C    0.1454514    0.0001818   -2.9324241  
H    3.1367978   -0.0000649   -3.5160956  
H   -2.9844350    0.0001027   -0.9290164  
H    0.1083567    0.0003684   -4.0135594  
C    0.8681109    0.7263879    2.2709268  
C    0.6127770    0.5096195    3.5869401  
C   -0.4920590   -0.4175482    3.6542670  
C   -0.8620974   -0.7254003    2.2596025  
N    0.0000000    0.0000000    1.4700000  
C   -1.8641242   -1.5660088    1.8976294  
C   -2.6293522   -2.2103885    2.9520183  
O   -3.5512764   -2.9839180    2.7283916  
C   -2.2549728   -1.8987399    4.4361073  
O   -2.8923672   -2.4351063    5.3323774  
C   -1.1543735   -0.9755647    4.7012123  
H    1.1382914    0.9492124    4.4159191  
H   -2.1192137   -1.7782617    0.8686553  
H   -0.9013378   -0.7652422    5.7314848  
H    1.6172880    1.3558399    1.8188057  
