62

C    0.7736689   -0.0084052   -8.8309792  
C    1.8497311   -0.6828327   -9.3598493  
C    1.9322025   -0.3205824  -10.7370109  
C    0.8714042    0.5854825  -10.9932913  
N    0.1864243    0.7516723   -9.8152425  
C    0.6470498    1.1506423  -12.2522786  
C    1.5094553    0.7948852  -13.2710390  
O    1.3362422    1.3175528  -14.5199702  
C    2.5734876   -0.1078785  -13.0350949  
O    3.3441047   -0.3625391  -14.1507304  
C    2.7952525   -0.6660182  -11.7933930  
H    2.4951078   -1.3542535   -8.8197792  
H   -0.6117128    1.3470848   -9.6870181  
H   -0.1597288    1.8417041  -12.4541305  
H    2.0354564    0.9436303  -15.0718269  
H    4.0393769   -0.9806503  -13.9054977  
H    3.6183937   -1.3546938  -11.6429181  
C    1.9999920   -2.1070894   -5.1447765  
C    1.9105666   -1.6426499   -6.4177158  
C    0.7784256   -0.7475277   -6.4606979  
C    0.2115581   -0.7283877   -5.0986826  
N    0.9973787   -1.5733448   -4.3494003  
C   -0.8712826    0.0001710   -4.7267111  
C   -1.5219794    0.8200159   -5.7351665  
O   -2.5037636    1.5119150   -5.4992073  
C   -0.9387698    0.8148042   -7.1841818  
O   -1.4783588    1.5008662   -8.0417492  
C    0.2330301   -0.0112906   -7.4640107  
H    2.5631035   -1.8981148   -7.2335263  
H    2.7138547   -2.7945388   -4.7208620  
H    0.8643845   -1.7702172   -3.3744128  
C    1.0965514    0.0001359   -0.8010305  
C    0.0000000    0.0000000    0.0000000  
C   -1.1546563    0.0001470   -0.8669513  
C   -0.6372014    0.0003519   -2.2486282  
N    0.7342871    0.0007337   -2.1395014  
C   -1.4147739    0.0001352   -3.3608717  
C   -2.8576049   -0.0001048   -3.1854462  
O   -3.6427779   -0.0002494   -4.1244907  
C   -3.4275840   -0.0000725   -1.7311666  
O   -4.6406831    0.0000333   -1.5710060  
C   -2.4891867   -0.0001091   -0.6116744  
H   -2.8919122   -0.0002918    0.3920866  
H    2.1388272    0.0000663   -0.5261648  
H    1.3735872   -0.0006099   -2.9130262  
C    2.5285572    2.1210227    2.9438989  
C    1.9331703    1.6216660    4.0790748  
C    0.8903039    0.7472258    3.6520102  
C    0.8972198    0.7527806    2.2336141  
N    1.9028376    1.5986179    1.8362361  
C    0.0000000    0.0000000    1.4700000  
C   -0.9207814   -0.7726952    2.1506477  
O   -1.8198395   -1.5274828    1.4542253  
C   -0.9436862   -0.7911793    3.5655508  
O   -1.9197945   -1.6098497    4.0950179  
C   -0.0590329   -0.0485852    4.3195194  
H    2.2150357    1.8593692    5.0905303  
H    2.1533708    1.7953814    0.8841339  
H   -2.3621246   -1.9821033    2.1118817  
H   -1.8668290   -1.5649508    5.0545920  
H   -0.1007624   -0.0827977    5.4019087  
H    3.3491200    2.8096064    2.8367138  
