62

C    1.3492432   -1.0679428   -7.3340839  
C    2.3425947   -1.9538783   -6.9864660  
C    3.1006072   -2.2135133   -8.1665534  
C    2.5181576   -1.4513579   -9.2114449  
N    1.4559570   -0.7690216   -8.6722201  
C    3.0096979   -1.4626068  -10.5202803  
C    4.1094331   -2.2574966  -10.7789502  
O    4.6303450   -2.3053870  -12.0396524  
C    4.7043143   -3.0254365   -9.7497748  
O    5.7916508   -3.7654893  -10.1661454  
C    4.2197629   -3.0150340   -8.4584075  
H    2.5006722   -2.3635569   -6.0035277  
H    0.8572094   -0.1376586   -9.1730824  
H    2.5702163   -0.8841209  -11.3211629  
H    5.3819880   -2.9110739  -12.0016850  
H    6.1339057   -4.2542378   -9.4114337  
H    4.6962633   -3.6139126   -7.6910948  
C    0.0902056   -0.6999988   -5.1620330  
C   -0.9736297    0.0040464   -4.6965763  
C   -1.5078553    0.7471499   -5.8133733  
C   -0.6620041    0.4159217   -6.9759623  
N    0.2881862   -0.4654793   -6.5142695  
C   -0.8409761    0.9165759   -8.2245694  
C   -1.9398965    1.8436897   -8.4375670  
O   -2.1836161    2.3491300   -9.5254236  
C   -2.8482829    2.2087977   -7.2204653  
O   -3.7763828    2.9885182   -7.3875798  
C   -2.5561685    1.6045646   -5.9229971  
H   -0.2091451    0.6605479   -9.0637052  
H   -3.1899802    1.8623998   -5.0854247  
H    0.7463587   -1.3702749   -4.6309189  
C    1.1188642    0.0008222   -0.8003808  
C    0.0000000    0.0000000    0.0000000  
C   -1.1323862    0.0008899   -0.8673528  
C   -0.6382663    0.0019679   -2.1969280  
N    0.7324016    0.0038481   -2.1202242  
C   -1.4770914    0.0027318   -3.3154808  
C   -2.8395473    0.0020945   -3.0876857  
O   -3.7039201    0.0024425   -4.1440349  
C   -3.3517868    0.0013931   -1.7684331  
O   -4.7300497    0.0012366   -1.7073121  
C   -2.5248543    0.0009123   -0.6644817  
H    1.3576314   -0.0056167   -2.9057046  
H   -4.5940032    0.0021826   -3.7685128  
H   -4.9934602    0.0007259   -0.7819913  
H   -2.9462577    0.0005603    0.3339659  
H    2.1619895    0.0009355   -0.5342068  
C    0.8681109    0.7263879    2.2709268  
C    0.6127770    0.5096195    3.5869401  
C   -0.4920590   -0.4175482    3.6542670  
C   -0.8620974   -0.7254003    2.2596025  
N    0.0000000    0.0000000    1.4700000  
C   -1.8641242   -1.5660088    1.8976294  
C   -2.6293522   -2.2103885    2.9520183  
O   -3.5512764   -2.9839180    2.7283916  
C   -2.2549728   -1.8987399    4.4361073  
O   -2.8923672   -2.4351063    5.3323774  
C   -1.1543735   -0.9755647    4.7012123  
H    1.1382914    0.9492124    4.4159191  
H   -2.1192137   -1.7782617    0.8686553  
H   -0.9013378   -0.7652422    5.7314848  
H    1.6172880    1.3558399    1.8188057  
