62

C    6.8742257    0.0003236   -4.0661425  
C    5.5942423    0.0007869   -3.5620507  
C    5.7067593    0.0007579   -2.1401013  
C    7.0913510    0.0005508   -1.8321526  
N    7.7720039   -0.0016612   -3.0243459  
C    7.5742847    0.0007721   -0.5200693  
C    6.6425082    0.0015173    0.4997194  
O    7.0593434    0.0021142    1.7994356  
C    5.2567329    0.0013592    0.2125911  
O    4.4562654    0.0017482    1.3362438  
C    4.7795897    0.0008677   -1.0815734  
H    4.6906033    0.0000011   -4.1472244  
H    8.7711572    0.0082510   -3.1221991  
H    8.6283018    0.0004721   -0.2787183  
H    6.2603306    0.0022789    2.3424296  
H    3.5363980    0.0016364    1.0543799  
H    7.2178042   -0.0001938   -5.0863936  
C    3.3321166    0.0004717   -1.3379342  
C    2.6974176    0.0000121   -2.5332317  
C    1.2800432   -0.0002115   -2.2052842  
C    1.2395033    0.0000645   -0.7271297  
N    2.4394059    0.0005461   -0.2131042  
C    0.0000000    0.0000000    0.0000000  
C   -1.1468704    0.0000636   -0.7169540  
O   -2.3742206    0.0000073   -0.1695488  
C   -1.1388774    0.0001610   -2.2096351  
O   -2.2206238    0.0000908   -2.7970408  
C    0.1454514    0.0001820   -2.9324241  
H    3.1367977   -0.0000646   -3.5160953  
H   -2.9844351    0.0001027   -0.9290163  
C    0.9350719   -0.7259382   -5.2319051  
C    0.6347934   -0.5089061   -6.5383526  
C   -0.4715636    0.4184311   -6.5675990  
C   -0.7935145    0.7260955   -5.1610140  
N    0.0950440    0.0004357   -4.4015596  
C   -1.7824145    1.5667848   -4.7647529  
C   -2.5832523    2.2114556   -5.7921736  
O   -3.4968510    2.9850783   -5.5369349  
C   -2.2600300    1.9000098   -7.2882797  
O   -2.9277035    2.4366218   -8.1620757  
C   -1.1693061    0.9767230   -7.5911241  
H    1.1315070   -0.9484311   -7.3849380  
H   -2.0020381    1.7788965   -3.7276012  
H   -0.9517793    0.7665421   -8.6295027  
H    1.6992183   -1.3555751   -4.8058451  
C    0.0000000    0.0000000    1.4700000  
C    1.0521667    0.0011902    2.3562342  
C    0.4917218    0.0011957    3.6679131  
C   -0.9187428   -0.0003148    3.5178682  
N   -1.1833171    0.0009411    2.1707914  
C   -1.7951701   -0.0010350    4.6072090  
C   -1.2375837   -0.0005224    5.8710424  
O   -2.0474215   -0.0015360    6.9697579  
C    0.1673580    0.0013566    6.0411963  
O    0.5673524    0.0020687    7.3615553  
C    1.0325770    0.0023412    4.9669890  
H    2.0953057    0.0030649    2.0900562  
H   -2.0989778   -0.0102372    1.7591824  
H   -2.8710934   -0.0020419    4.4995513  
H   -1.4634884   -0.0006497    7.7393593  
H    1.5290710    0.0033153    7.3880045  
H    2.1042148    0.0039609    5.1284455  
