60

C    0.8250144   -0.7186622   -5.2242752  
C   -0.0307359   -0.0004648   -4.4215606  
C   -0.9004945    0.7274894   -5.2865473  
C   -0.5248902    0.4107213   -6.6171507  
N    0.5270177   -0.4682865   -6.5433120  
C   -1.1704588    0.9499717   -7.7339496  
C   -2.2144091    1.8247010   -7.5033093  
O   -2.8796467    2.3800522   -8.5578509  
C   -2.6036870    2.1533952   -6.1829921  
O   -3.6599161    3.0386226   -6.1189936  
C   -1.9670931    1.6219995   -5.0807707  
H    0.9978802   -0.8772754   -7.3300762  
H   -0.8889030    0.7126781   -8.7506211  
H   -3.5609066    2.9516596   -8.1804727  
H   -3.8594903    3.2075692   -5.1931261  
H   -2.2874427    1.8925660   -4.0814470  
H    1.6252973   -1.3885971   -4.9602801  
C    3.2573667   -0.0002920   -1.5109386  
C    2.5379466   -0.0001709   -0.3591965  
C    1.1435040    0.0000332   -0.7338503  
C    1.1092604   -0.0000083   -2.2088478  
N    2.4227557    0.0001908   -2.6182616  
C   -0.0265538   -0.0002523   -2.9515663  
C   -1.3003040   -0.0002641   -2.2514979  
O   -2.3786787   -0.0004133   -2.8306426  
C   -1.2877728    0.0000312   -0.6895607  
O   -2.3539959    0.0003306   -0.0892033  
C    0.0000000    0.0000000    0.0000000  
H    2.9384091   -0.0000368    0.6389234  
H    2.7280486   -0.0013408   -3.5742120  
C    5.6736563   -0.0009559   -0.7359126  
C    4.7161330   -0.0005435   -1.6923266  
C    5.4441199   -0.0005498   -2.9519033  
C    6.8695484   -0.0008931   -2.5585359  
N    7.0103274   -0.0012129   -1.2607798  
C    7.9272784   -0.0010476   -3.5313123  
C    7.5769324   -0.0012564   -4.8376783  
O    8.4592366   -0.0014099   -5.8513743  
C    6.1471277   -0.0012908   -5.2664177  
O    5.9016317   -0.0013613   -6.4726315  
C    5.0804441   -0.0010861   -4.2495053  
H    8.9603207   -0.0010922   -3.2155065  
H    7.9113444   -0.0015669   -6.6569586  
H    4.0573864   -0.0012338   -4.6010479  
H    5.5430687   -0.0010922    0.3345641  
C    0.0000000    0.0000000    1.4700000  
C    1.0662921    0.0000102    2.3034270  
C    0.4961870   -0.0000064    3.6418889  
C   -0.9663858    0.0000850    3.4240247  
N   -1.2632773    0.0000084    2.1528658  
C   -1.8985362    0.0000517    4.5177257  
C   -1.3925775   -0.0004564    5.7720543  
O   -2.1456383   -0.0005410    6.8851312  
C    0.0786232   -0.0009323    6.0245000  
O    0.4683759   -0.0012588    7.1921102  
C    1.0143166   -0.0008442    4.8859032  
H    2.1107198   -0.0000632    2.0421868  
H   -2.9622183    0.0003270    4.3293377  
H   -1.5042274   -0.0009692    7.6184419  
H    2.0724152   -0.0013148    5.1109744  
