62

C   -0.3475984    1.0635007   -0.8003803  
C    0.0000000    0.0000000    0.0000000  
C    0.3501620   -1.0768871   -0.8673523  
C    0.1959735   -0.6074384   -2.1969276  
N   -0.2306831    0.6951354   -2.1202235  
C    0.4552593   -1.4051844   -3.3154805  
C    0.8781887   -2.7003362   -3.0876855  
O    1.1457887   -3.5222424   -4.1440351  
C    1.0376356   -3.1871284   -1.7684326  
O    1.4650070   -4.4974569   -1.7073122  
C    0.7817669   -2.4007771   -0.6644814  
H   -0.4154881    1.2925036   -2.9057036  
H    1.4219368   -4.3684050   -3.7685131  
H    1.5471424   -4.7477352   -0.7819918  
H    0.9127248   -2.8013158    0.3339653  
H   -0.6710458    2.0552119   -0.5342058  
C    1.3279961    2.3939411   -5.4763640  
C    1.2278548    1.4739118   -4.4888937  
C    0.6450942    0.3026108   -5.1252453  
C    0.4523334    0.7019820   -6.5358938  
N    0.8508958    1.9268350   -6.7477262  
C   -0.1100449   -0.1925692   -7.5098525  
C   -0.4634190   -1.4299792   -7.0935863  
O   -0.9995530   -2.3666398   -7.8943789  
C   -0.2810452   -1.8628765   -5.6767233  
O   -0.6251394   -3.0037903   -5.3682831  
C    0.2979504   -0.9269279   -4.6965757  
H    1.5141776    1.5772973   -3.4562241  
H   -0.2397453    0.1258650   -8.5339072  
H   -1.1421315   -3.1364754   -7.3145705  
C    2.3464709    4.3969509   -4.2974739  
C    1.8522933    3.7643559   -5.3870570  
C    1.9509894    4.7383644   -6.4631919  
C    2.5428760    5.9358454   -5.8289256  
N    2.7769509    5.7416493   -4.5594822  
C    2.8058298    7.1382588   -6.5706424  
C    2.4921221    7.1439924   -7.8862752  
O    2.6833144    8.1971605   -8.6988773  
C    1.8940061    5.9511843   -8.5553247  
O    1.6336063    6.0273848   -9.7559924  
C    1.6337828    4.7297008   -7.7729000  
H    3.2388767    7.9985475   -6.0814766  
H    2.3649239    7.8991568   -9.5700689  
H    1.1996939    3.8872871   -8.2945663  
H    2.4465299    4.0126365   -3.2948456  
C    2.5285572    2.1210227    2.9438989  
C    1.9331703    1.6216660    4.0790748  
C    0.8903039    0.7472258    3.6520102  
C    0.8972198    0.7527806    2.2336141  
N    1.9028376    1.5986179    1.8362361  
C    0.0000000    0.0000000    1.4700000  
C   -0.9207814   -0.7726952    2.1506477  
O   -1.8198395   -1.5274828    1.4542253  
C   -0.9436862   -0.7911793    3.5655508  
O   -1.9197945   -1.6098497    4.0950179  
C   -0.0590329   -0.0485852    4.3195194  
H    2.2150357    1.8593692    5.0905303  
H    2.1533708    1.7953814    0.8841339  
H   -2.3621246   -1.9821033    2.1118817  
H   -1.8668290   -1.5649508    5.0545920  
H   -0.1007624   -0.0827977    5.4019087  
H    3.3491200    2.8096064    2.8367138  
