62

C    1.1188647    0.0008222   -0.8003801  
C    0.0000000    0.0000000    0.0000000  
C   -1.1323860    0.0008898   -0.8673529  
C   -0.6382656    0.0019678   -2.1969277  
N    0.7324024    0.0038479   -2.1202234  
C   -1.4770905    0.0027316   -3.3154808  
C   -2.8395467    0.0020941   -3.0876861  
O   -3.7039192    0.0024422   -4.1440353  
C   -3.3517863    0.0013928   -1.7684335  
O   -4.7300488    0.0012364   -1.7073129  
C   -2.5248542    0.0009121   -0.6644819  
H    1.3576321   -0.0056169   -2.9057034  
H   -4.5940020    0.0021824   -3.7685138  
H   -4.9934596    0.0007261   -0.7819928  
H   -2.9462578    0.0005602    0.3339650  
H    2.1619895    0.0009355   -0.5342059  
C    1.8844594   -2.1024767   -5.2000013  
C    1.7579335   -1.6369217   -6.4693810  
C    0.6249294   -0.7419063   -6.4785605  
C    0.0979881   -0.7240449   -5.1005895  
N    0.9053936   -1.5695646   -4.3752742  
C   -0.9736283    0.0040460   -4.6965761  
C   -1.6535172    0.8247009   -5.6849143  
O   -2.6280796    1.5162653   -5.4198320  
C   -1.1127770    0.8208465   -7.1503115  
O   -1.6771950    1.5075990   -7.9911824  
C    0.0504558   -0.0048507   -7.4649007  
H    2.3864481   -1.8915808   -7.3040860  
H    2.6104410   -2.7902100   -4.7976788  
H    0.8008857   -1.7673174   -3.3970009  
C    1.0040974   -1.0782640   -9.5381489  
C    0.5510331   -0.0006856   -8.8470383  
C    0.6566797    1.1388887   -9.7274044  
C    1.2123889    0.6332552  -10.9971741  
N    1.4009183   -0.7176139  -10.8168998  
C    1.4631836    1.4021134  -12.0869740  
C    1.1661650    2.8224584  -12.0036886  
O    1.3567986    3.5983233  -12.9310475  
C    0.5773231    3.3796523  -10.6685469  
O    0.3235684    4.5738631  -10.5865097  
C    0.3502497    2.4523511   -9.5629245  
H    1.8709629    1.0113157  -13.0088758  
H   -0.0578975    2.8460749   -8.6419890  
H    1.0816800   -2.1054760   -9.2208066  
H    1.7681196   -1.3452311  -11.5084976  
C    2.5285572    2.1210227    2.9438989  
C    1.9331703    1.6216660    4.0790748  
C    0.8903039    0.7472258    3.6520102  
C    0.8972198    0.7527806    2.2336141  
N    1.9028376    1.5986179    1.8362361  
C    0.0000000    0.0000000    1.4700000  
C   -0.9207814   -0.7726952    2.1506477  
O   -1.8198395   -1.5274828    1.4542253  
C   -0.9436862   -0.7911793    3.5655508  
O   -1.9197945   -1.6098497    4.0950179  
C   -0.0590329   -0.0485852    4.3195194  
H    2.2150357    1.8593692    5.0905303  
H    2.1533708    1.7953814    0.8841339  
H   -2.3621246   -1.9821033    2.1118817  
H   -1.8668290   -1.5649508    5.0545920  
H   -0.1007624   -0.0827977    5.4019087  
H    3.3491200    2.8096064    2.8367138  
