60

C    9.6987457    0.7248099   -4.6294821  
C    9.0743779    0.0050263   -3.6372398  
C   10.0900275   -0.7216318   -2.9480192  
C   11.3245367   -0.4024746   -3.5693485  
N   11.0507849    0.4766479   -4.5875925  
C   12.5445169   -0.9399413   -3.1479612  
C   12.5178160   -1.8153105   -2.0796944  
O   13.6804339   -2.3689901   -1.6271790  
C   11.2960212   -2.1463791   -1.4469002  
O   11.4352772   -3.0319606   -0.3982363  
C   10.0920716   -1.6167439   -1.8622498  
H   11.7331094    0.8871067   -5.1990958  
H   13.4888056   -0.7008240   -3.6173691  
H   13.4402744   -2.9414078   -0.8869594  
H   10.5644542   -3.2025553   -0.0265271  
H    9.1722377   -1.8891134   -1.3580677  
H    9.2864393    1.3944726   -5.3646791  
C    6.6317370    0.0027575   -4.3241615  
C    5.4016575    0.0020952   -3.7488541  
C    5.6054515    0.0015083   -2.3194126  
C    7.0655600    0.0019150   -2.1075798  
N    7.6303538    0.0022713   -3.3621306  
C    7.6659167    0.0019591   -0.8905027  
C    6.8173812    0.0013545    0.2895490  
O    7.2622819    0.0012817    1.4298836  
C    5.2683493    0.0006644    0.0887880  
O    4.5438183   -0.0001546    1.0748485  
C    4.7390840    0.0009613   -1.2727298  
H    4.4591018    0.0018434   -4.2667371  
H    8.7388159    0.0023907   -0.7570952  
H    6.8927419    0.0033433   -5.3699943  
C    3.2798077    0.0005856   -1.4499661  
C    2.5571132    0.0005565   -2.5996564  
C    1.1637425    0.0001547   -2.2210366  
C    1.1336959   -0.0000200   -0.7459475  
N    2.4483509   -0.0001429   -0.3402730  
C    0.0000000    0.0000000    0.0000000  
C   -1.2757370   -0.0000187   -0.6964411  
O   -2.3524597   -0.0000640   -0.1142306  
C   -1.2676502   -0.0000874   -2.2584078  
O   -2.3355774   -0.0004102   -2.8557287  
C    0.0181551    0.0001758   -2.9516297  
H    2.9547342    0.0006074   -3.5989118  
H    0.0150776    0.0003317   -4.0331632  
H    2.7563626    0.0012823    0.6148051  
C    0.0000000    0.0000000    1.4700000  
C    1.0662921    0.0000102    2.3034270  
C    0.4961870   -0.0000064    3.6418889  
C   -0.9663858    0.0000850    3.4240247  
N   -1.2632773    0.0000084    2.1528658  
C   -1.8985362    0.0000517    4.5177257  
C   -1.3925775   -0.0004564    5.7720543  
O   -2.1456383   -0.0005410    6.8851312  
C    0.0786232   -0.0009323    6.0245000  
O    0.4683759   -0.0012588    7.1921102  
C    1.0143166   -0.0008442    4.8859032  
H    2.1107198   -0.0000632    2.0421868  
H   -2.9622183    0.0003270    4.3293377  
H   -1.5042274   -0.0009692    7.6184419  
H    2.0724152   -0.0013148    5.1109744  
