62

C    9.2840101   -0.0022192    0.2600567  
C    9.9086255   -0.0012363   -0.9656359  
C   11.3132114   -0.0020771   -0.7171623  
C   11.4868463   -0.0038665    0.6905924  
N   10.2348306   -0.0019555    1.2536812  
C   12.7465213   -0.0053943    1.2972271  
C   13.8510330   -0.0054175    0.4676290  
O   15.1047404   -0.0072267    1.0072831  
C   13.6982335   -0.0032718   -0.9393054  
O   14.8935270   -0.0031659   -1.6282304  
C   12.4558408   -0.0014905   -1.5384553  
H    9.4128839    0.0010469   -1.9212653  
H   10.0415285   -0.0131462    2.2388159  
H   12.8855957   -0.0066175    2.3695426  
H   15.7219160   -0.0066044    0.2640745  
H   14.7012528   -0.0016885   -2.5709034  
H   12.3701363    0.0003155   -2.6187929  
C    5.6685262    0.0007283   -2.2869310  
C    4.7390840    0.0009613   -1.2727298  
C    5.4635794   -0.0000961   -0.0440290  
C    6.8430309   -0.0006644   -0.3742393  
N    6.9321468   -0.0020931   -1.7441567  
C    7.8522877   -0.0014307    0.5933290  
C    7.4618845   -0.0013199    1.9183808  
O    8.4063109   -0.0016951    2.9038108  
C    6.0904958   -0.0011318    2.2678228  
O    5.8636451   -0.0014647    3.6286619  
C    5.0942998   -0.0006490    1.3138209  
H    7.7872775    0.0077874   -2.2701180  
H    7.9262124   -0.0018372    3.7421244  
H    4.9133155   -0.0012813    3.7785862  
H    4.0523279   -0.0006971    1.6117685  
H    5.5300626    0.0009056   -3.3545393  
C    3.2798077    0.0005856   -1.4499661  
C    2.5571132    0.0005565   -2.5996564  
C    1.1637425    0.0001547   -2.2210366  
C    1.1336959   -0.0000200   -0.7459475  
N    2.4483509   -0.0001429   -0.3402730  
C    0.0000000    0.0000000    0.0000000  
C   -1.2757370   -0.0000187   -0.6964411  
O   -2.3524597   -0.0000640   -0.1142306  
C   -1.2676502   -0.0000874   -2.2584078  
O   -2.3355774   -0.0004102   -2.8557287  
C    0.0181551    0.0001758   -2.9516297  
H    2.9547342    0.0006074   -3.5989118  
H    0.0150776    0.0003317   -4.0331632  
H    2.7563626    0.0012823    0.6148051  
C    0.0000000    0.0000000    1.4700000  
C    1.0541688    0.0001722    2.3260392  
C    0.5103138    0.0000454    3.6635956  
C   -0.9576371   -0.0002459    3.5155732  
N   -1.2018458    0.0001392    2.1615969  
C   -1.8348311   -0.0008317    4.5510609  
C   -1.2972847   -0.0009736    5.9014604  
O   -2.0050672   -0.0014265    6.9001319  
C    0.2542623   -0.0004184    6.0817573  
O    0.7184670   -0.0002256    7.2139121  
C    1.0974552   -0.0000873    4.8889129  
H    2.0940752    0.0005483    2.0517982  
H   -2.9081052   -0.0011668    4.4207061  
H    2.1707277    0.0000911    5.0223670  
H   -2.1128194   -0.0014912    1.7406791  
