60

C    3.9905198    0.1813348   -8.2745452  
C    5.0148260   -0.4777010   -8.9140254  
C    4.9663695   -0.0907773  -10.2860835  
C    3.8827256    0.8137828  -10.4254147  
N    3.3106217    0.9553863   -9.1855508  
C    3.5390999    1.3998006  -11.6474186  
C    4.3035164    1.0668353  -12.7487722  
O    4.0119129    1.6104740  -13.9663261  
C    5.3884601    0.1659525  -12.6299284  
O    6.0520180   -0.0647334  -13.8172876  
C    5.7278595   -0.4127561  -11.4247613  
H    5.7105953   -1.1549582   -8.4490294  
H    2.5257403    1.5440216   -8.9723605  
H    2.7142876    2.0898398  -11.7602590  
H    4.6577212    1.2502122  -14.5879446  
H    6.7696034   -0.6832163  -13.6494962  
H    6.5641336   -1.0994136  -11.3645523  
C    5.6703521   -2.0177343   -4.9085749  
C    4.8680133   -1.6338541   -3.8885422  
C    3.9117990   -0.7160919   -4.4884318  
C    4.2939628   -0.6601081   -5.9158073  
N    5.3241004   -1.4211365   -6.1680812  
C    3.5804909    0.1513597   -6.8632059  
C    2.5326217    0.8737502   -6.4055410  
O    1.7779986    1.6737363   -7.1779443  
C    2.1221162    0.8381010   -4.9708373  
O    1.1586084    1.5213824   -4.6244274  
C    2.8699641   -0.0020530   -4.0185824  
H    4.9187305   -1.9362133   -2.8565144  
H    1.1149868    2.0503428   -6.5715331  
H    6.5076560   -2.6965640   -4.8756221  
C    3.2573670   -0.0002921   -1.5109382  
C    2.5379468   -0.0001711   -0.3591962  
C    1.1435043    0.0000330   -0.7338498  
C    1.1092608   -0.0000085   -2.2088474  
N    2.4227562    0.0001906   -2.6182610  
C   -0.0265533   -0.0002525   -2.9515663  
C   -1.3003033   -0.0002641   -2.2514979  
O   -2.3786785   -0.0004132   -2.8306425  
C   -1.2877724    0.0000310   -0.6895608  
O   -2.3539956    0.0003306   -0.0892035  
C    0.0000000    0.0000000    0.0000000  
H    2.9384091   -0.0000370    0.6389240  
H   -0.0296290   -0.0004088   -4.0327231  
H    4.3270394   -0.0004767   -1.6439445  
C    0.8175213    0.6860729    2.3021913  
C    0.0000000    0.0000000    1.4700000  
C   -0.8887526   -0.7456559    2.3478473  
C   -0.4549825   -0.3816753    3.7138435  
N    0.5448156    0.4573574    3.6934124  
C   -1.0945674   -0.9182058    4.8835240  
C   -2.1210866   -1.7789155    4.6970523  
O   -2.8083856   -2.3554314    5.6976972  
C   -2.5824069   -2.1655116    3.3310774  
O   -3.5227682   -2.9541547    3.2362962  
C   -1.9100805   -1.6015804    2.1470656  
H   -0.7567140   -0.6349833    5.8697035  
H   -3.4728268   -2.9124471    5.2533954  
H   -2.2742832   -1.9066565    1.1752040  
H    1.6189533    1.3585343    2.0405121  
