62

C    1.0290723   -1.1067230   -7.6308766  
C    2.0808086   -1.9910262   -7.6966460  
C    2.3223638   -2.2486615   -9.0786284  
C    1.3792217   -1.4870244   -9.8150510  
N    0.6081715   -0.8069088   -8.9053585  
C    1.3248635   -1.4966930  -11.2120978  
C    2.2394562   -2.2894401  -11.8778689  
O    2.2308883   -2.3357214  -13.2419799  
C    3.1879725   -3.0568307  -11.1607602  
O    4.0299107   -3.7946808  -11.9670222  
C    3.2420010   -3.0479867   -9.7825262  
H    2.6082334   -2.4009291   -6.8523742  
H   -0.1388684   -0.1763777   -9.1341437  
H    0.6083848   -0.9185916  -11.7792489  
H    2.9393507   -2.9400556  -13.4991305  
H    4.6387342   -4.2831984  -11.4046273  
H    3.9796171   -3.6463953   -9.2606950  
C    0.6885583   -0.7240829   -5.1615362  
C    0.3679853   -0.5066243   -6.4630813  
C   -0.7389724    0.4203835   -6.4747896  
C   -1.0391590    0.7273895   -5.0632572  
N   -0.1387079    0.0017019   -4.3179684  
C   -2.0220472    1.5676164   -4.6513660  
C   -2.8389204    2.2124491   -5.6659816  
O   -3.7486834    2.9856886   -5.3962913  
C   -2.5388497    1.9016971   -7.1670464  
O   -3.2201593    2.4384509   -8.0301654  
C   -1.4526758    0.9788671   -7.4871439  
H   -2.2256205    1.7792484   -3.6108470  
H   -1.2512187    0.7691658   -8.5288562  
H    1.4594116   -1.3536537   -4.7476342  
C    3.3041273    0.0001178   -1.5420428  
C    2.5845373   -0.0004780   -0.3695851  
C    1.2040007   -0.0000007   -0.7283589  
C    1.1422374    0.0006038   -2.1454372  
N    2.4348641    0.0026111   -2.6077464  
C   -0.0655179    0.0008799   -2.8497918  
C   -1.2321766    0.0002325   -2.1101402  
O   -2.4392814    0.0001148   -2.7472522  
C   -1.1911209   -0.0000007   -0.6955266  
O   -2.4371528   -0.0002320   -0.1032862  
C    0.0000000    0.0000000    0.0000000  
H    3.0031533   -0.0000660    0.6222584  
H    2.7054631   -0.0071097   -3.5745261  
H   -3.1132988   -0.0000648   -2.0551787  
H   -2.3200282   -0.0004072    0.8516409  
H    4.3686625    0.0004073   -1.7024290  
C    2.4951002    2.0940188    2.9809380  
C    1.9440701    1.6314916    1.8291961  
C    0.8759964    0.7350050    2.2038498  
C    0.8497377    0.7130254    3.6788474  
N    1.8560616    1.5571714    4.0882609  
C   -0.0205033   -0.0168748    4.4215661  
C   -0.9962600   -0.8356168    3.7214979  
O   -1.8224391   -1.5286685    4.3006425  
C   -0.9864710   -0.8277881    2.1595606  
O   -1.8030528   -1.5133726    1.5592035  
C    0.0000000    0.0000000    1.4700000  
H    2.2509283    1.8888011    0.8310761  
H   -0.0229599   -0.0187323    5.5027230  
H    3.3143982    2.7817323    3.1139444  
H    2.0889452    1.7545833    5.0442112  
