62

C    8.8049643   -0.0042791   -3.2128965  
C    9.9190446   -0.0058271   -2.4058706  
C   11.0565722   -0.0067555   -3.2664687  
C   10.5703753   -0.0054134   -4.5989614  
N    9.1992741   -0.0058775   -4.5304195  
C   11.4158436   -0.0055361   -5.7125019  
C   12.7769195   -0.0067341   -5.4766015  
O   13.6475643   -0.0065568   -6.5277868  
C   13.2812957   -0.0084583   -4.1543237  
O   14.6591697   -0.0099203   -4.0850008  
C   12.4478072   -0.0086116   -3.0553141  
H    9.9126350   -0.0073418   -1.3293252  
H    8.5787426    0.0053876   -5.3195932  
H   11.0515629   -0.0046619   -6.7305891  
H   14.5353958   -0.0078151   -6.1469740  
H   14.9170678   -0.0110048   -3.1581291  
H   12.8632586   -0.0101330   -2.0543765  
C    6.8847525   -0.0023787    0.6986606  
C    5.5715637   -0.0012904    0.3713797  
C    5.5475442   -0.0015351   -1.0832417  
C    6.9721655   -0.0027416   -1.4795205  
N    7.7607270   -0.0033212   -0.4392514  
C    7.3784667   -0.0033614   -2.8579273  
C    6.4057883   -0.0031904   -3.7977309  
O    6.6406184   -0.0037040   -5.1209449  
C    4.9592105   -0.0023543   -3.4295276  
O    4.1279725   -0.0021183   -4.3374176  
C    4.5679461   -0.0016854   -2.0086701  
H    4.7238865   -0.0005186    1.0350946  
H    5.7562733   -0.0034385   -5.5297076  
H    7.3236767   -0.0025892    1.6837080  
C    3.1301149   -0.0010311   -1.7028252  
C    2.5367768   -0.0002767   -0.4864665  
C    1.1089904    0.0001028   -0.7656183  
C    1.0177872   -0.0004148   -2.2415132  
N    2.1993578   -0.0011611   -2.7963820  
C   -0.2459209   -0.0002877   -2.9257118  
C   -1.3675319   -0.0000605   -2.1698524  
O   -2.6129313    0.0000867   -2.6748490  
C   -1.3083584    0.0000910   -0.6783232  
O   -2.3693261    0.0004206   -0.0541692  
C    0.0000000    0.0000000    0.0000000  
H    3.0096017   -0.0001007    0.4807525  
H   -0.2829630   -0.0004687   -4.0053125  
H   -3.1967441    0.0002094   -1.8949034  
C    2.5285572    2.1210227    2.9438989  
C    1.9331703    1.6216660    4.0790748  
C    0.8903039    0.7472258    3.6520102  
C    0.8972198    0.7527806    2.2336141  
N    1.9028376    1.5986179    1.8362361  
C    0.0000000    0.0000000    1.4700000  
C   -0.9207814   -0.7726952    2.1506477  
O   -1.8198395   -1.5274828    1.4542253  
C   -0.9436862   -0.7911793    3.5655508  
O   -1.9197945   -1.6098497    4.0950179  
C   -0.0590329   -0.0485852    4.3195194  
H    2.2150357    1.8593692    5.0905303  
H    2.1533708    1.7953814    0.8841339  
H   -2.3621246   -1.9821033    2.1118817  
H   -1.8668290   -1.5649508    5.0545920  
H   -0.1007624   -0.0827977    5.4019087  
H    3.3491200    2.8096064    2.8367138  
