62

C    0.0000000    0.0000000    0.0000000  
C   -1.0115594    0.2894874   -0.8862343  
C   -0.4725688    0.1359047   -2.1979131  
C    0.8834841   -0.2520812   -2.0478684  
N    1.1382741   -0.3233792   -0.7007912  
C    1.7261612   -0.4929558   -3.1372090  
C    1.1900617   -0.3396577   -4.4010422  
O    1.9686187   -0.5625659   -5.4997576  
C   -0.1605786    0.0471691   -4.5711960  
O   -0.5450646    0.1574710   -5.8915547  
C   -0.9924041    0.2852261   -3.4969890  
H   -2.0142498    0.5771592   -0.6200565  
H    2.0158157   -0.5850629   -0.2891825  
H    2.7606182   -0.7887770   -3.0295513  
H    1.4072835   -0.4016888   -6.2693589  
H   -1.4696232    0.4222255   -5.9180046  
C   -3.7985309    3.1797361   -1.5964878  
C   -2.6822461    2.4631402   -1.8647755  
C   -3.0433061    1.6132091   -2.9889428  
C   -4.4522009    1.9565160   -3.2783208  
N   -4.9003114    2.8742817   -2.4653676  
C   -5.1872260    1.3234897   -4.3385578  
C   -4.5438874    0.3902136   -5.0764230  
O   -5.1073484   -0.2797752   -6.0960641  
C   -3.1221643    0.0221408   -4.8092394  
O   -2.5999930   -0.8360104   -5.5206705  
C   -2.3897462    0.6856912   -3.7159924  
H   -1.7312316    2.5060778   -1.3619797  
H   -6.2158903    1.5937124   -4.5276057  
H   -4.4050766   -0.8708565   -6.4225463  
C   -1.1187512    4.8108737    1.5106977  
C   -1.6454218    4.1095806    0.4739330  
C   -3.0107839    4.5521938    0.3167217  
C   -3.2380098    5.5761981    1.3543025  
N   -2.0527687    5.6858855    2.0442755  
C   -4.4078363    6.2394302    1.5368764  
C   -5.5172199    5.9234813    0.6525805  
O   -6.6112592    6.4660184    0.7364386  
C   -5.2990695    4.8420696   -0.4532064  
O   -6.2259033    4.5674600   -1.2034261  
C   -3.9927969    4.1957428   -0.5520306  
H   -1.1356831    3.3668354   -0.1135276  
H   -4.5535705    6.9872004    2.3040215  
H   -0.1269355    4.7619317    1.9299781  
H   -1.8905633    6.3074465    2.8152479  
C    1.1243417   -0.0099156    2.2619005  
C    0.7474090   -0.0234034    3.5848544  
C   -0.6787367   -0.0234952    3.6114698  
C   -1.1201739   -0.0099357    2.2635546  
N    0.0000000    0.0000000    1.4700000  
C   -2.4730812   -0.0065396    1.9108239  
C   -3.3971947   -0.0173298    2.9375057  
O   -4.7313508   -0.0149487    2.6493466  
C   -2.9763630   -0.0305536    4.2886322  
O   -4.0166453   -0.0397858    5.1947621  
C   -1.6418541   -0.0336380    4.6373480  
H    1.4178735   -0.0310004    4.4271209  
H   -2.8160170    0.0039190    0.8854031  
H   -5.1938803   -0.0234410    3.4974381  
H   -3.6464643   -0.0484781    6.0827341  
H   -1.3497443   -0.0436789    5.6809233  
H    2.1062470   -0.0051382    1.8205408  
