60

C    7.4678614   -3.0786806   -6.9605459  
C    6.9437607   -1.8460484   -6.6468525  
C    7.4222908   -0.9281584   -7.6282221  
C    8.2406491   -1.6643985   -8.5227428  
N    8.2483470   -2.9662981   -8.0872930  
C    8.8811651   -1.0780901   -9.6185388  
C    8.6918649    0.2760580   -9.8150743  
O    9.2937099    0.8990758  -10.8698933  
C    7.8793175    1.0277548   -8.9332954  
O    7.7899168    2.3644001   -9.2630375  
C    7.2473442    0.4500594   -7.8519047  
H    8.7364573   -3.7235593   -8.5303341  
H    9.5062948   -1.6336763  -10.3039141  
H    9.0339898    1.8283579  -10.8225251  
H    7.2236390    2.7994914   -8.6183441  
H    6.6312421    1.0514137   -7.1936733  
H    7.3478459   -4.0288486   -6.4688796  
C    6.1923726   -2.0934461   -4.2359240  
C    5.2191581   -1.6310079   -3.4094380  
C    4.3967567   -0.7348790   -4.1875410  
C    4.9747504   -0.7130128   -5.5448307  
N    6.0607561   -1.5568759   -5.5077372  
C    4.4832125    0.0165646   -6.5781807  
C    3.3064978    0.8350542   -6.3374477  
O    2.7884372    1.5278082   -7.2034758  
C    2.6779834    0.8273398   -4.9075121  
O    1.6873116    1.5127139   -4.6928203  
C    3.2973506   -0.0000934   -3.8752374  
H    5.0920136   -1.8881512   -2.3729410  
H    4.9222075    0.0183442   -7.5662032  
H    6.9947907   -2.7809153   -4.0228480  
C    3.3321174    0.0004714   -1.3379332  
C    2.6974186    0.0000115   -2.5332308  
C    1.2800441   -0.0002119   -2.2052838  
C    1.2395035    0.0000643   -0.7271293  
N    2.4394063    0.0005458   -0.2131034  
C    0.0000000    0.0000000    0.0000000  
C   -1.1468701    0.0000634   -0.7169542  
O   -2.3742201    0.0000072   -0.1695492  
C   -1.1388767    0.0001606   -2.2096354  
O   -2.2206229    0.0000903   -2.7970413  
C    0.1454526    0.0001815   -2.9324239  
H   -2.9844344    0.0001023   -0.9290168  
H    0.1083580    0.0003680   -4.0135594  
H    4.3940040    0.0007617   -1.1498630  
C    0.8681109    0.7263879    2.2709268  
C    0.6127770    0.5096195    3.5869401  
C   -0.4920590   -0.4175482    3.6542670  
C   -0.8620974   -0.7254003    2.2596025  
N    0.0000000    0.0000000    1.4700000  
C   -1.8641242   -1.5660088    1.8976294  
C   -2.6293522   -2.2103885    2.9520183  
O   -3.5512764   -2.9839180    2.7283916  
C   -2.2549728   -1.8987399    4.4361073  
O   -2.8923672   -2.4351063    5.3323774  
C   -1.1543735   -0.9755647    4.7012123  
H    1.1382914    0.9492124    4.4159191  
H   -2.1192137   -1.7782617    0.8686553  
H   -0.9013378   -0.7652422    5.7314848  
H    1.6172880    1.3558399    1.8188057  
