60

C    1.9609636   -2.3744455   -7.1796501  
C    2.9984786   -2.5859022   -8.0578956  
C    3.2174316   -1.3565764   -8.7474007  
C    2.2757963   -0.4232135   -8.2433353  
N    1.5273205   -1.0743991   -7.2944628  
C    2.2023698    0.8971515   -8.6972449  
C    3.0959943    1.2823939   -9.6776529  
O    3.0682526    2.5602292  -10.1565892  
C    4.0426562    0.3655398  -10.1934325  
O    4.8625517    0.9008539  -11.1653137  
C    4.1154851   -0.9372628   -9.7462994  
H    3.5311604   -3.5125491   -8.1866206  
H    1.4869236    1.6133508   -8.3172471  
H    3.7641219    2.6167272  -10.8242999  
H    5.4716281    0.2168866  -11.4599628  
H    4.8511490   -1.6168276  -10.1603872  
H    1.4950274   -3.0485159   -6.4814439  
C    0.2055739   -0.7043961   -5.1603477  
C   -0.8712826    0.0001710   -4.7267111  
C   -1.3726447    0.7423359   -5.8592582  
C   -0.4933186    0.4099880   -6.9964127  
N    0.4429027   -0.4710987   -6.5064483  
C   -0.6357679    0.9095500   -8.2501475  
C   -1.7278971    1.8365864   -8.4958969  
O   -1.9397498    2.3410839   -9.5908402  
C   -2.6713156    2.2028686   -7.3061054  
O   -3.5940525    2.9825347   -7.5008830  
C   -2.4172088    1.5997595   -6.0001417  
H    0.0202134    0.6527119   -9.0702891  
H   -3.0751241    1.8584032   -5.1816215  
H    0.8458871   -1.3742666   -4.6097462  
C    1.0965514    0.0001359   -0.8010305  
C    0.0000000    0.0000000    0.0000000  
C   -1.1546563    0.0001470   -0.8669513  
C   -0.6372014    0.0003519   -2.2486282  
N    0.7342871    0.0007337   -2.1395014  
C   -1.4147739    0.0001352   -3.3608717  
C   -2.8576049   -0.0001048   -3.1854462  
O   -3.6427779   -0.0002494   -4.1244907  
C   -3.4275840   -0.0000725   -1.7311666  
O   -4.6406831    0.0000333   -1.5710060  
C   -2.4891867   -0.0001091   -0.6116744  
H   -2.8919122   -0.0002918    0.3920866  
H    2.1388272    0.0000663   -0.5261648  
H    1.3735872   -0.0006099   -2.9130262  
C    0.8681109    0.7263879    2.2709268  
C    0.6127770    0.5096195    3.5869401  
C   -0.4920590   -0.4175482    3.6542670  
C   -0.8620974   -0.7254003    2.2596025  
N    0.0000000    0.0000000    1.4700000  
C   -1.8641242   -1.5660088    1.8976294  
C   -2.6293522   -2.2103885    2.9520183  
O   -3.5512764   -2.9839180    2.7283916  
C   -2.2549728   -1.8987399    4.4361073  
O   -2.8923672   -2.4351063    5.3323774  
C   -1.1543735   -0.9755647    4.7012123  
H    1.1382914    0.9492124    4.4159191  
H   -2.1192137   -1.7782617    0.8686553  
H   -0.9013378   -0.7652422    5.7314848  
H    1.6172880    1.3558399    1.8188057  
