60

C    8.0888624   -5.4962599   -6.6199827  
C    7.3361566   -4.5344642   -5.9868541  
C    7.5569374   -3.3086051   -6.6819257  
C    8.4609095   -3.5865193   -7.7390563  
N    8.7652331   -4.9234736   -7.6715473  
C    8.9030189   -2.6068879   -8.6332876  
C    8.4236090   -1.3233843   -8.4573294  
O    8.8225291   -0.3284751   -9.3023341  
C    7.5213694   -1.0263154   -7.4082686  
O    7.1358210    0.2976247   -7.3649188  
C    7.0850020   -1.9921905   -6.5255490  
H    6.7063828   -4.6962555   -5.1288325  
H    9.3760599   -5.4121314   -8.3009009  
H    9.5920056   -2.8122310   -9.4409599  
H    8.3768358    0.4759908   -9.0066033  
H    6.5273013    0.4132493   -6.6287546  
H    8.1978886   -6.5452265   -6.4037856  
C    6.1837012   -2.1071894   -4.1730104  
C    6.1473624   -1.6429265   -5.4486332  
C    5.0179318   -0.7478965   -5.5388751  
C    4.3948024   -0.7286185   -4.2016663  
N    5.1487785   -1.5734154   -3.4201754  
C    3.2973506   -0.0000934   -3.8752374  
C    2.6891816    0.8195677   -4.9100425  
O    1.6983690    1.5114229   -4.7152918  
C    3.3322638    0.8142072   -6.3334969  
O    2.8288283    1.5001138   -7.2128972  
C    4.5147645   -0.0118351   -6.5641428  
H    4.9540960   -0.0098155   -7.5524281  
H    6.8793285   -2.7945271   -3.7196252  
H    4.9752873   -1.7701683   -2.4515493  
C    3.3321174    0.0004714   -1.3379332  
C    2.6974186    0.0000115   -2.5332308  
C    1.2800441   -0.0002119   -2.2052838  
C    1.2395035    0.0000643   -0.7271293  
N    2.4394063    0.0005458   -0.2131034  
C    0.0000000    0.0000000    0.0000000  
C   -1.1468701    0.0000634   -0.7169542  
O   -2.3742201    0.0000072   -0.1695492  
C   -1.1388767    0.0001606   -2.2096354  
O   -2.2206229    0.0000903   -2.7970413  
C    0.1454526    0.0001815   -2.9324239  
H   -2.9844344    0.0001023   -0.9290168  
H    0.1083580    0.0003680   -4.0135594  
H    4.3940040    0.0007617   -1.1498630  
C    2.3971438    2.0127888    3.1728260  
C    1.9431056    1.6308205    1.9564670  
C    0.8496017    0.7127664    2.2356185  
C    0.7794028    0.6545384    3.7115134  
N    1.6840587    1.4146091    4.2663826  
C   -0.1885723   -0.1578550    4.3957118  
C   -1.0476298   -0.8789867    3.6398520  
O   -2.0015663   -1.6796266    4.1448486  
C   -1.0022026   -0.8410666    2.1483229  
O   -1.8147390   -1.5232959    1.5241687  
C    0.0000000    0.0000000    1.4700000  
H    2.3054237    1.9346118    0.9892483  
H   -0.2170646   -0.1815267    5.4753125  
H   -2.4487139   -2.0549881    3.3649027  
H    3.2048689    2.6911772    3.3971983  
