64

C    4.4032213    0.0996956   -6.6452588  
C    5.5946255   -0.5476078   -6.8776844  
C    6.0426951   -0.1436575   -8.1702232  
C    5.0757475    0.7587196   -8.6827207  
N    4.0928157    0.8827034   -7.7324093  
C    5.1928027    1.3588122   -9.9400890  
C    6.3064226    1.0424276  -10.6936995  
O    6.4706998    1.6002740  -11.9285410  
C    7.2819647    0.1439893  -10.1997936  
O    8.3318632   -0.0694034  -11.0690011  
C    7.1670012   -0.4485983   -8.9595722  
H    6.0803925   -1.2281717   -6.1995572  
H    3.2793637    1.4658183   -7.8114892  
H    4.4592555    2.0472752  -10.3364857  
H    7.3004361    1.2501480  -12.2781331  
H    8.9450075   -0.6873874  -10.6594239  
H    7.9302449   -1.1329777   -8.6080577  
C    4.6667238   -2.1196647   -2.8289933  
C    3.4946425   -1.6582113   -2.2760432  
C    2.9083433   -0.7691298   -3.2249305  
C    3.7749403   -0.7275421   -4.3470738  
N    4.8336460   -1.5573523   -4.0728946  
C    3.5107105    0.0505387   -5.4782509  
C    2.3503688    0.8000601   -5.4767268  
O    2.0434902    1.5773555   -6.5559173  
C    1.4732999    0.7720842   -4.3664188  
O    0.3602107    1.5731439   -4.5170174  
C    1.7334695    0.0049281   -3.2500363  
H    3.1101422   -1.9282393   -1.3074166  
H    5.6044926   -1.7379800   -4.6902684  
H    1.2045560    2.0102695   -6.3508822  
H   -0.1790694    1.4967107   -3.7239606  
H    5.3975657   -2.8043090   -2.4339084  
C    1.1319246    0.0015678   -0.8009268  
C    0.7969914    0.0034958   -2.1169401  
C   -0.6453340    0.0035696   -2.1842669  
C   -1.1266832    0.0015410   -0.7896025  
N    0.0000000    0.0000000    0.0000000  
C   -2.4346129    0.0013913   -0.4276292  
C   -3.4350111    0.0031335   -1.4820181  
O   -4.6384614    0.0030875   -1.2583914  
C   -2.9478961    0.0050442   -2.9661074  
O   -3.7809382    0.0062135   -3.8623773  
C   -1.5113825    0.0053055   -3.2312122  
H   -2.7664565    0.0000174    0.6013448  
H   -1.1823533    0.0068381   -4.2614848  
H    2.1104316    0.0009435   -0.3488059  
C    0.8676693    0.7151171    2.2619005  
C    0.5875920    0.4624972    3.5848544  
C   -0.5048400   -0.4542819    3.6114698  
C   -0.8517165   -0.7276451    2.2635546  
N    0.0000000    0.0000000    1.4700000  
C   -1.8902865   -1.5946756    1.9108239  
C   -2.5912627   -2.1969500    2.9375057  
O   -3.6148162   -3.0527051    2.6493466  
C   -2.2603868   -1.9365747    4.2886322  
O   -3.0513550   -2.6123276    5.1947621  
C   -1.2361111   -1.0811317    4.6373480  
H    1.1060808    0.8876438    4.4271209  
H   -2.1597133   -1.8070987    0.8854031  
H   -3.9636755   -3.3565188    3.4974381  
H   -2.7621927   -2.3810384    6.0827341  
H   -1.0058879   -0.9010589    5.6809233  
H    1.6167816    1.3499334    1.8205408  
