62

C    1.1188643    0.0008223   -0.8003800  
C    0.0000000    0.0000000    0.0000000  
C   -1.1323863    0.0008900   -0.8673525  
C   -0.6382660    0.0019680   -2.1969276  
N    0.7324020    0.0038481   -2.1202235  
C   -1.4770910    0.0027320   -3.3154805  
C   -2.8395474    0.0020946   -3.0876854  
O   -3.7039197    0.0024427   -4.1440346  
C   -3.3517868    0.0013932   -1.7684330  
O   -4.7300490    0.0012368   -1.7073125  
C   -2.5248544    0.0009124   -0.6644815  
H    1.3576317   -0.0056168   -2.9057037  
H   -4.5940029    0.0021830   -3.7685132  
H   -4.9934599    0.0007264   -0.7819921  
H   -2.9462577    0.0005604    0.3339654  
H    2.1619894    0.0009352   -0.5342064  
C    1.8906703   -2.0861101   -5.2626198  
C    0.9779264   -1.6251676   -4.3690284  
C    0.1016437   -0.7294207   -5.0863857  
C    0.5821191   -0.7061486   -6.4811585  
N    1.6688571   -1.5489157   -6.5215722  
C    0.0179716    0.0235401   -7.4766469  
C   -1.1395629    0.8406742   -7.1527017  
O   -1.7182901    1.5334123   -7.9794359  
C   -1.6653058    0.8314585   -5.6818803  
O   -2.6389757    1.5156844   -5.3971650  
C   -0.9736291    0.0040466   -4.6965759  
H    0.9247008   -1.8830608   -3.3263054  
H    2.7068313   -2.7728805   -5.1073203  
H    2.2153077   -1.7452386   -7.3400443  
C    1.5245132   -3.2498872   -9.9266474  
C    1.8260674   -2.6219164  -11.0869486  
C    1.4801131   -1.2272494  -10.8595292  
C    0.9705782   -1.1911426   -9.4718498  
N    0.9942805   -2.3738371   -8.9198885  
C    0.5182900    0.0273768   -8.8588793  
C    0.5729197    1.1584795   -9.5984443  
O    0.1838164    2.3655030   -9.1537716  
C    1.0823683    1.1545220  -11.0015154  
O    1.1035393    2.2211419  -11.6155952  
C    1.5405433   -0.1081520  -11.6078609  
H    2.2330954   -3.0519831  -11.9860840  
H    0.3415929    2.9683253   -9.9026809  
H    1.9025555   -0.0687738  -12.6264997  
H    1.6361805   -4.2958720   -9.6891200  
C    2.5311839    2.1237619    3.0120429  
C    1.9795631    1.6616747    1.8395852  
C    0.9223175    0.7739173    2.1983588  
C    0.8753926    0.7337535    3.6154372  
N    1.8668922    1.5631002    4.0777464  
C   -0.0496243   -0.0427881    4.3197917  
C   -0.9437528   -0.7922060    3.5801400  
O   -1.8685244   -1.5680278    4.2172520  
C   -0.9124520   -0.7656372    2.1655264  
O   -1.8671164   -1.5663939    1.5732860  
C    0.0000000    0.0000000    1.4700000  
H    2.3005065    1.9304404    0.8477417  
H    2.0679347    1.7444845    5.0445261  
H   -0.0904770   -0.0778569    5.3997470  
H   -2.3849669   -2.0011402    3.5251786  
H   -1.7775064   -1.4909735    0.6183591  
H    3.3468514    2.8078103    3.1724291  
