62

C    5.7437110   -3.1156989   -7.5740279  
C    6.3104945   -2.3165803   -8.5397577  
C    5.8379172   -0.9900635   -8.3125493  
C    4.9790299   -1.0416449   -7.1849059  
N    4.9425543   -2.3472633   -6.7622382  
C    4.3323457    0.0879876   -6.6744965  
C    4.5570306    1.2916712   -7.3139024  
O    3.9509606    2.4260529   -6.8568785  
C    5.4102882    1.3633171   -8.4406833  
O    5.5317298    2.6331709   -8.9661031  
C    6.0483748    0.2492645   -8.9449240  
H    6.9810943   -2.6490608   -9.3135443  
H    4.4228919   -2.6876330   -5.9735176  
H    4.2388394    3.1423696   -7.4376372  
H    6.1244268    2.5937834   -9.7229147  
H    6.6960412    0.3349918   -9.8095948  
H    5.8464190   -4.1732646   -7.4009281  
C    4.5568119   -2.1244626   -2.7957930  
C    4.8215153   -1.6265710   -4.0505851  
C    3.7464017   -0.7514632   -4.3866172  
C    2.8481251   -0.7551197   -3.2888864  
N    3.3693346   -1.6005173   -2.3411203  
C    1.6707636   -0.0012343   -3.2725974  
C    1.3953391    0.7706342   -4.3845946  
O    0.2593678    1.5264367   -4.4212710  
C    2.2790781    0.7872261   -5.4898315  
O    1.8647381    1.6052772   -6.5205876  
C    3.4406176    0.0435413   -5.5067010  
H    5.6829186   -1.8656541   -4.6504331  
H    2.9557219   -1.7960290   -1.4474308  
H    0.2607526    1.9802267   -5.2741120  
H    2.5168286    1.5590890   -7.2264548  
H    5.1203940   -2.8129781   -2.1897558  
C    1.0965514    0.0001358   -0.8010306  
C    0.0000000    0.0000000    0.0000000  
C   -1.1546565    0.0001470   -0.8669508  
C   -0.6372019    0.0003520   -2.2486278  
N    0.7342867    0.0007338   -2.1395012  
C   -1.4147744    0.0001354   -3.3608712  
C   -2.8576052   -0.0001047   -3.1854454  
O   -3.6427785   -0.0002490   -4.1244896  
C   -3.4275841   -0.0000727   -1.7311660  
O   -4.6406832    0.0000333   -1.5710049  
C   -2.4891868   -0.0001090   -0.6116739  
H   -1.0150456    0.0001617   -4.3654239  
H   -2.8919122   -0.0002919    0.3920871  
H    2.1388270    0.0000663   -0.5261650  
C    0.8400945    0.7047457    2.2710304  
C    0.0000000    0.0000000    1.4700000  
C   -0.8844236   -0.7423113    2.3369512  
C   -0.4878984   -0.4098547    3.7186280  
N    0.5629682    0.4714286    3.6095011  
C   -1.0836927   -0.9095027    4.8308716  
C   -2.1891196   -1.8367527    4.6554461  
O   -2.7906899   -2.3413415    5.5944904  
C   -2.6257283   -2.2031529    3.2011665  
O   -3.5549479   -2.9829990    3.0410059  
C   -1.9068976   -1.5999348    2.0816745  
H   -0.7774656   -0.6525820    5.8354244  
H   -2.2155208   -1.8586617    1.0779135  
H    1.6384792    1.3747609    1.9961646  
H    1.0518368    0.8833920    4.3830260  
