64

C    5.1592849   -3.7120053    0.3455361  
C    4.0967319   -3.0775561   -0.2552322  
C    2.9188936   -3.4976090    0.4309553  
C    3.3285601   -4.3956697    1.4495756  
N    4.6946191   -4.5049540    1.3686037  
C    2.4270295   -5.0079807    2.3254221  
C    1.0875721   -4.7080092    2.1703442  
O    0.1644974   -5.2777474    2.9988030  
C    0.6592410   -3.8146984    1.1597277  
O   -0.7061271   -3.6187032    1.1332886  
C    1.5480396   -3.2104825    0.2951550  
H    5.2687275   -5.0657883    1.9717991  
H    2.7328685   -5.6934566    3.1037449  
H   -0.6967533   -4.9385224    2.7223288  
H   -0.9113198   -3.0030593    0.4230193  
H    1.1903469   -2.5306897   -0.4693159  
H    6.2117011   -3.6627451    0.1242857  
C    4.1863612   -2.1478769   -1.3903811  
C    5.2964354   -1.7420564   -2.0496420  
C    4.8117016   -0.8307209   -3.0748252  
C    3.3454835   -0.8022506   -2.8851479  
N    2.9730518   -1.5723541   -1.8991335  
C    2.4861704   -0.0045255   -3.7159919  
C    3.0653208    0.7316068   -4.6917118  
O    2.3851025    1.5212592   -5.5401182  
C    4.5422559    0.7243205   -4.9079759  
O    5.0006617    1.4186849   -5.8151378  
C    5.4023457   -0.1022428   -4.0425497  
H    6.3180530   -2.0259909   -1.8632149  
H    3.0670359    1.9124169   -6.1155445  
H    6.4672338   -0.0798677   -4.2316059  
C    0.0000000    0.0000000    0.0000000  
C    1.0521669   -0.0011848   -0.8862341  
C    0.4917221   -0.0011931   -2.1979130  
C   -0.9187427    0.0003100   -2.0478683  
N   -1.1833170   -0.0009472   -0.7007915  
C   -1.7951698    0.0010259   -3.1372090  
C   -1.2375835    0.0005161   -4.4010425  
O   -2.0474208    0.0015256   -5.4997580  
C    0.1673584   -0.0013557   -4.5711962  
O    0.5673529   -0.0020659   -5.8915551  
C    1.0325773   -0.0023359   -3.4969890  
H    2.0953059   -0.0030542   -0.6200560  
H   -2.0989777    0.0102265   -0.2891825  
H   -2.8710930    0.0020274   -3.0295514  
H   -1.4634881    0.0006427   -6.2693593  
H    1.5290715   -0.0033076   -5.9180042  
C    3.3041272   -0.0001177    3.0120429  
C    2.5845372    0.0004780    1.8395852  
C    1.2040006    0.0000008    2.1983588  
C    1.1422373   -0.0006037    3.6154372  
N    2.4348639   -0.0026109    4.0777464  
C   -0.0655181   -0.0008797    4.3197917  
C   -1.2321768   -0.0002324    3.5801400  
O   -2.4392816   -0.0001146    4.2172520  
C   -1.1911209    0.0000007    2.1655264  
O   -2.4371527    0.0002320    1.5732860  
C    0.0000000    0.0000000    1.4700000  
H    3.0031534    0.0000661    0.8477417  
H    2.7054629    0.0071099    5.0445261  
H   -0.1193549   -0.0014844    5.3997470  
H   -3.1132988    0.0000648    3.5251786  
H   -2.3200282    0.0004071    0.6183591  
H    4.3686625   -0.0004071    3.1724291  
