62

C   -6.9652586    1.9985620   -0.2323018  
C   -7.2971873    2.8379329    0.8058442  
C   -8.7188317    2.8166972    0.9201961  
C   -9.2040113    1.9390871   -0.0829627  
N   -8.1132232    1.4611176   -0.7658559  
C  -10.5652092    1.6759406   -0.2637465  
C  -11.4527714    2.3100572    0.5837847  
O  -12.7930924    2.0886102    0.4514515  
C  -10.9880597    3.1894530    1.5905233  
O  -11.9955289    3.7432737    2.3531716  
C   -9.6453648    3.4497310    1.7692708  
H   -6.6004482    3.3976299    1.4060839  
H   -8.1460010    0.8086343   -1.5282024  
H  -10.9414136    1.0082195   -1.0265185  
H  -13.2262203    2.6208560    1.1314369  
H  -11.5967493    4.3237444    3.0086354  
H   -9.3192909    4.1281974    2.5489107  
C   -4.4484552    2.1114134   -0.3461918  
C   -5.6479912    1.6480085   -0.7825916  
C   -5.3783932    0.7523818   -1.8825941  
C   -3.9129551    0.7318186   -2.0524732  
N   -3.4082407    1.5765169   -1.0908921  
C   -3.2578655    0.0024282   -2.9908505  
C   -4.0489188   -0.8168743   -3.8939083  
O   -3.5523765   -1.5094417   -4.7725987  
C   -5.6025064   -0.8101576   -3.7322731  
O   -6.2789761   -1.4957517   -4.4869983  
C   -6.1934212    0.0167334   -2.6830243  
H   -7.2698069    0.0156516   -2.5775884  
H   -4.2368622    2.7988444    0.4566504  
H   -2.4341400    1.7725005   -0.9503006  
C    0.0000000    0.0000000    0.0000000  
C    1.0521666   -0.0011982   -0.8862343  
C    0.4917215   -0.0011996   -2.1979132  
C   -0.9187429    0.0003215   -2.0478682  
N   -1.1833171   -0.0009323   -0.7007913  
C   -1.7951703    0.0010483   -3.1372089  
C   -1.2375841    0.0005313   -4.4010422  
O   -2.0474218    0.0015510   -5.4997578  
C    0.1673576   -0.0013585   -4.5711963  
O    0.5673520   -0.0020735   -5.8915554  
C    1.0325768   -0.0023493   -3.4969892  
H    2.0953056   -0.0030808   -0.6200564  
H   -2.0989778    0.0102529   -0.2891822  
H   -1.4634888    0.0006601   -6.2693595  
H    1.5290707   -0.0033271   -5.9180047  
H    2.1042146   -0.0039770   -3.6584456  
C    3.3321173   -0.0004715    2.8079335  
C    2.6974184   -0.0000116    4.0032312  
C    1.2800439    0.0002118    3.6752840  
C    1.2395035   -0.0000644    2.1971295  
N    2.4394063   -0.0005460    1.6831036  
C    0.0000000    0.0000000    1.4700000  
C   -1.1468701   -0.0000635    2.1869543  
O   -2.3742202   -0.0000073    1.6395491  
C   -1.1388768   -0.0001607    3.6796354  
O   -2.2206231   -0.0000905    4.2670412  
C    0.1454524   -0.0001816    4.4024240  
H    3.1367986    0.0000651    4.9860947  
H   -2.9844344   -0.0001026    2.3990168  
H    0.1083576   -0.0003682    5.4835595  
H    4.3940039   -0.0007619    2.6198634  
