62

C    5.0823907   -2.3280551   -4.8158852  
C    6.3295379   -2.5350917   -5.3583123  
C    6.7393808   -1.3003801   -5.9432188  
C    5.6927196   -0.3684407   -5.7243253  
N    4.7012961   -1.0255996   -5.0388769  
C    5.7545695    0.9561695   -6.1674632  
C    6.8938997    1.3471970   -6.8436292  
O    7.0066964    2.6293517   -7.2979069  
C    7.9487716    0.4318538   -7.0721227  
O    9.0151493    0.9731149   -7.7600326  
C    7.8883216   -0.8751323   -6.6354774  
H    6.8761299   -3.4623150   -5.3362122  
H    4.9601940    1.6713136   -6.0039415  
H    7.8660496    2.6895091   -7.7351236  
H    9.6830269    0.2897911   -7.8723335  
H    8.7119365   -1.5534058   -6.8254297  
H    4.4339429   -3.0067939   -4.2888292  
C    2.8187457   -0.6703163   -3.3751030  
C    1.6628945    0.0339172   -3.2649299  
C    1.5111624    0.7878481   -4.4869776  
C    2.6817412    0.4627681   -5.3241510  
N    3.4355960   -0.4257738   -4.5926554  
C    2.9084913    0.9739989   -6.5606511  
C    1.9347547    1.9068213   -7.1030670  
O    2.0491226    2.4217971   -8.2076122  
C    0.6876137    2.2655760   -6.2337337  
O   -0.1388156    3.0500156   -6.6797486  
C    0.5525682    1.6499645   -4.9159183  
H    3.7735880    0.7223309   -7.1582969  
H   -0.3139095    1.9034591   -4.3203673  
H    3.2719311   -1.3472108   -2.6691807  
C    1.1243410    0.0100105   -0.7919003  
C    0.7474072    0.0234665   -2.1148542  
C   -0.6787384    0.0234379   -2.1414698  
C   -1.1201748    0.0098411   -0.7935547  
N    0.0000000    0.0000000    0.0000000  
C   -2.4730818    0.0063307   -0.4408240  
C   -3.3971962    0.0170429   -1.4675058  
O   -4.7313520    0.0145490   -1.1793468  
C   -2.9763654    0.0303020   -2.8186325  
O   -4.0166484    0.0394464   -3.7247625  
C   -1.6418567    0.0334992   -3.1673480  
H   -2.8160166   -0.0041569    0.5845966  
H   -5.1938823    0.0230023   -2.0274386  
H   -3.6464680    0.0481700   -4.6127343  
H   -1.3497475    0.0435647   -4.2109234  
H    2.1062466    0.0053162   -0.3505405  
C    2.5528530    2.1414826    2.8079335  
C    2.0663498    1.7338582    4.0032312  
C    0.9804344    0.8229586    3.6752840  
C    0.9495562    0.7966882    2.1971295  
N    1.8690446    1.5676019    1.6831036  
C    0.0000000    0.0000000    1.4700000  
C   -0.8785127   -0.7372425    2.1869543  
O   -1.8187535   -1.5261249    1.6395491  
C   -0.8723269   -0.7321790    3.6796354  
O   -1.7010379   -1.4274584    4.2670412  
C    0.1115397    0.0933559    4.4024240  
H    2.4028853    2.0163452    4.9860947  
H   -2.2861435   -1.9184361    2.3990168  
H    0.0832434    0.0693689    5.4835595  
H    3.3664920    2.8238276    2.6198634  
