60

C    1.8577767   -4.5774431   -6.6930845  
C    1.1187839   -3.4695612   -6.3481871  
C    1.5239896   -2.4122311   -7.2156325  
C    2.5211670   -2.9387856   -8.0760412  
N    2.7010785   -4.2551773   -7.7305507  
C    3.1483172   -2.1738087   -9.0641102  
C    2.7615637   -0.8533019   -9.1860206  
O    3.3413931   -0.0614475  -10.1345866  
C    1.7686844   -0.3095955   -8.3366737  
O    1.4940631    1.0198605   -8.5825862  
C    1.1497551   -1.0636062   -7.3615220  
H    0.3794826   -3.4282280   -5.5667023  
H    3.3392797   -4.8899052   -8.1752968  
H    3.9091244   -2.5691551   -9.7229554  
H    2.9331573    0.8099762  -10.0495609  
H    0.8138221    1.3088928   -7.9666836  
H    1.8510631   -5.5716354   -6.2801740  
C   -0.0202922   -0.6967077   -5.1400949  
C   -1.0641734    0.0073898   -4.6315339  
C   -1.6428385    0.7514419   -5.7253201  
C   -0.8448103    0.4207134   -6.9213807  
N    0.1229396   -0.4613332   -6.4990735  
C   -1.0739330    0.9222826   -8.1613949  
C   -2.1802191    1.8499246   -8.3291657  
O   -2.4675344    2.3561924   -9.4059405  
C   -3.0385139    2.2145169   -7.0760867  
O   -3.9723191    2.9946743   -7.2050172  
C   -2.6944049    1.6092961   -5.7918944  
H   -0.4766435    0.6666081   -9.0255628  
H   -3.2937360    1.8667795   -4.9292078  
H    0.6565473   -1.3675748   -4.6363937  
C    1.1319248    0.0015675   -0.8009270  
C    0.7969916    0.0034959   -2.1169404  
C   -0.6453336    0.0035703   -2.1842672  
C   -1.1266831    0.0015415   -0.7896027  
N    0.0000000    0.0000000    0.0000000  
C   -2.4346129    0.0013924   -0.4276297  
C   -3.4350110    0.0031352   -1.4820184  
O   -4.6384610    0.0030897   -1.2583919  
C   -2.9478958    0.0050460   -2.9661075  
O   -3.7809377    0.0062160   -3.8623775  
C   -1.5113821    0.0053068   -3.2312125  
H    1.4821240    0.0045436   -2.9459192  
H   -2.7664565    0.0000185    0.6013447  
H    2.1104318    0.0009428   -0.3488058  
C    2.5528530    2.1414826    2.8079335  
C    2.0663498    1.7338582    4.0032312  
C    0.9804344    0.8229586    3.6752840  
C    0.9495562    0.7966882    2.1971295  
N    1.8690446    1.5676019    1.6831036  
C    0.0000000    0.0000000    1.4700000  
C   -0.8785127   -0.7372425    2.1869543  
O   -1.8187535   -1.5261249    1.6395491  
C   -0.8723269   -0.7321790    3.6796354  
O   -1.7010379   -1.4274584    4.2670412  
C    0.1115397    0.0933559    4.4024240  
H    2.4028853    2.0163452    4.9860947  
H   -2.2861435   -1.9184361    2.3990168  
H    0.0832434    0.0693689    5.4835595  
H    3.3664920    2.8238276    2.6198634  
