60

C   -6.5599413    0.0018041    0.0678360  
C   -5.5102994    0.0016774    0.9570598  
C   -6.0744728    0.0022244    2.2671392  
C   -7.4845054    0.0023860    2.1130822  
N   -7.7452453    0.0040739    0.7652585  
C   -8.3640286    0.0025989    3.1999257  
C   -7.8100400    0.0023424    4.4653400  
O   -8.6229999    0.0021826    5.5617472  
C   -6.4055862    0.0025539    4.6394897  
O   -6.0093487    0.0026772    5.9609814  
C   -5.5373146    0.0026173    3.5677487  
H   -4.4664061    0.0023492    0.6938502  
H   -8.6597437   -0.0059907    0.3510456  
H   -9.4396411    0.0028670    3.0892080  
H   -8.0412581    0.0023132    6.3330069  
H   -5.0477084    0.0027904    5.9901666  
H   -4.4661393    0.0029623    3.7322527  
C   -3.2941076    0.0012874   -2.9038237  
C   -4.0168015    0.0014137   -1.7541332  
C   -5.4101727    0.0018621   -2.1327521  
C   -5.4402197    0.0019581   -3.6078411  
N   -4.1255649    0.0019955   -4.0135163  
C   -6.5739167    0.0019522   -4.3537877  
C   -7.8496528    0.0020701   -3.6573459  
O   -8.9263767    0.0021357   -4.2395556  
C   -7.8415653    0.0022233   -2.0953791  
O   -8.9094925    0.0026300   -1.4980574  
C   -6.5557596    0.0019358   -1.4021581  
H   -3.6191800    0.0013980   -0.7548779  
H   -6.5739168    0.0018934   -5.4349496  
H   -3.8175540    0.0005036   -4.9685944  
C    0.0000000    0.0000000    0.0000000  
C    1.0541688   -0.0001722   -0.8560393  
C    0.5103135   -0.0000454   -2.1935957  
C   -0.9576374    0.0002459   -2.0455730  
N   -1.2018460   -0.0001391   -0.6915968  
C   -1.8348314    0.0008317   -3.0810607  
C   -1.2972851    0.0009737   -4.4314604  
O   -2.0050676    0.0014265   -5.4301315  
C    0.2542619    0.0004184   -4.6117571  
O    0.7184666    0.0002257   -5.7439121  
C    1.0974550    0.0000874   -3.4189130  
H    2.0940752   -0.0005483   -0.5817984  
H    2.1707276   -0.0000911   -3.5523671  
H   -2.1128194    0.0014912   -0.2706789  
C    3.2573670    0.0002920    2.9809380  
C    2.5379467    0.0001709    1.8291961  
C    1.1435042   -0.0000331    2.2038498  
C    1.1092607    0.0000083    3.6788474  
N    2.4227561   -0.0001909    4.0882609  
C   -0.0265533    0.0002524    4.4215661  
C   -1.3003036    0.0002640    3.7214979  
O   -2.3786784    0.0004133    4.3006425  
C   -1.2877726   -0.0000311    2.1595606  
O   -2.3539958   -0.0003306    1.5592035  
C    0.0000000    0.0000000    1.4700000  
H    2.9384090    0.0000368    0.8310761  
H   -0.0296291    0.0004086    5.5027230  
H    4.3270393    0.0004765    3.1139444  
H    2.7280493    0.0013407    5.0442112  
