60

C    5.1753697   -4.6278577   -4.0365742  
C    4.3604009   -3.5203517   -3.9950508  
C    5.0596594   -2.4640407   -4.6506758  
C    6.3063340   -2.9908014   -5.0752360  
N    6.3449454   -4.3063255   -4.6846938  
C    7.2566964   -2.2267608   -5.7592264  
C    6.9427037   -0.9069973   -6.0196318  
O    7.8343999   -0.1160723   -6.6847099  
C    5.7041377   -0.3630991   -5.6037649  
O    5.5404713    0.9655414   -5.9373373  
C    4.7662197   -1.1161853   -4.9287104  
H    3.3826975   -3.4786069   -3.5463337  
H    7.1034369   -4.9409938   -4.8575125  
H    8.2087474   -2.6222683   -6.0853777  
H    7.4234489    0.7549531   -6.7602034  
H    4.6792558    1.2547663   -5.6206994  
H    5.0154944   -5.6213132   -3.6538936  
C    2.8494835   -0.7287725   -3.3362167  
C    3.4912467   -0.5137431   -4.5134921  
C    2.6833698    0.4134337   -5.2701383  
C    1.5099393    0.7231864   -4.4311483  
N    1.6707636   -0.0012343   -3.2725974  
C    0.5077399    1.5643692   -4.7913044  
C    0.5901938    2.2074060   -6.0921659  
O   -0.2621883    2.9813176   -6.5078653  
C    1.8239356    1.8937367   -6.9973164  
O    1.9040948    2.4289607   -8.0947548  
C    2.8403293    0.9701078   -6.4996160  
H   -0.3442082    1.7780229   -4.1608711  
H    3.6915232    0.7583833   -7.1323605  
H    3.1383514   -1.3576862   -2.5098316  
C    1.0965514    0.0001358   -0.8010306  
C    0.0000000    0.0000000    0.0000000  
C   -1.1546565    0.0001470   -0.8669508  
C   -0.6372019    0.0003520   -2.2486278  
N    0.7342867    0.0007338   -2.1395012  
C   -1.4147744    0.0001354   -3.3608712  
C   -2.8576052   -0.0001047   -3.1854454  
O   -3.6427785   -0.0002490   -4.1244896  
C   -3.4275841   -0.0000727   -1.7311660  
O   -4.6406832    0.0000333   -1.5710049  
C   -2.4891868   -0.0001090   -0.6116739  
H   -1.0150456    0.0001617   -4.3654239  
H   -2.8919122   -0.0002919    0.3920871  
H    2.1388270    0.0000663   -0.5261650  
C    2.5128556    2.1077716    2.9199648  
C    1.9592212    1.6432552    4.0696553  
C    0.8915788    0.7479214    3.6910360  
C    0.8684491    0.7287414    2.2159470  
N    1.8754542    1.5738793    1.8102719  
C    0.0000000    0.0000000    1.4700000  
C   -0.9772830   -0.8200135    2.1664417  
O   -1.8021297   -1.5120829    1.5842315  
C   -0.9711318   -0.8147624    3.7284083  
O   -1.7894187   -1.5009653    4.3257297  
C    0.0140216    0.0115358    4.4216297  
H    2.2638494    1.8988021    5.0689105  
H    0.0117648    0.0094386    5.5031631  
H    3.3327358    2.7953732    2.7900019  
H    2.1123206    1.7707734    0.8551938  
