64

C    9.0049379    0.0003326   -2.5522789  
C   10.0819819   -0.0023847   -1.6964539  
C   11.2566982   -0.0019791   -2.5055526  
C   10.8303098    0.0013444   -3.8583675  
N    9.4575163    0.0007261   -3.8509401  
C   11.7245178    0.0029244   -4.9331596  
C   13.0737413    0.0014233   -4.6368953  
O   13.9903247    0.0032107   -5.6482731  
C   13.5187445   -0.0022662   -3.2934766  
O   14.8921677   -0.0037807   -3.1628775  
C   12.6371529   -0.0040999   -2.2326680  
H   10.0276480   -0.0055152   -0.6212649  
H    8.8727362    0.0131523   -4.6669413  
H   11.4059269    0.0053128   -5.9664537  
H   14.8603211    0.0014142   -5.2283112  
H   15.1085423   -0.0062464   -2.2254451  
H   13.0076281   -0.0071078   -1.2142294  
C    6.7068651   -0.0034178    1.2828883  
C    7.7136027   -0.0021474    0.3453674  
C    7.0885451   -0.0007420   -0.9367798  
C    5.6872998   -0.0009462   -0.7166947  
N    5.4901253   -0.0045361    0.6418804  
C    4.7577216    0.0005129   -1.7610467  
C    5.2516908    0.0025159   -3.0510728  
O    4.3881528    0.0043528   -4.1081029  
C    6.6464198    0.0023765   -3.2909676  
O    6.9801784    0.0041002   -4.6296034  
C    7.5640501    0.0006642   -2.2611729  
H    8.7687021   -0.0033295    0.5592764  
H    4.5960836    0.0050495    1.0985848  
H    4.9330440    0.0052559   -4.9058233  
H    7.9393877    0.0039071   -4.7039039  
H    6.7604660   -0.0050604    2.3581011  
C    3.3041270    0.0001177   -1.5420435  
C    2.5845370   -0.0004780   -0.3695856  
C    1.2040004   -0.0000007   -0.7283590  
C    1.1422370    0.0006038   -2.1454373  
N    2.4348634    0.0026110   -2.6077469  
C   -0.0655187    0.0008799   -2.8497918  
C   -1.2321769    0.0002326   -2.1101398  
O   -2.4392822    0.0001149   -2.7472517  
C   -1.1911211   -0.0000007   -0.6955263  
O   -2.4371526   -0.0002319   -0.1032858  
C    0.0000000    0.0000000    0.0000000  
H    3.0031534   -0.0000661    0.6222578  
H    2.7054623   -0.0071098   -3.5745266  
H   -0.1193555    0.0014846   -3.9297472  
H   -3.1132992   -0.0000646   -2.0551783  
H   -2.3200279   -0.0004070    0.8516411  
C    2.4951002    2.0940188    2.9809380  
C    1.9440701    1.6314916    1.8291961  
C    0.8759964    0.7350050    2.2038498  
C    0.8497377    0.7130254    3.6788474  
N    1.8560616    1.5571714    4.0882609  
C   -0.0205033   -0.0168748    4.4215661  
C   -0.9962600   -0.8356168    3.7214979  
O   -1.8224391   -1.5286685    4.3006425  
C   -0.9864710   -0.8277881    2.1595606  
O   -1.8030528   -1.5133726    1.5592035  
C    0.0000000    0.0000000    1.4700000  
H    2.2509283    1.8888011    0.8310761  
H   -0.0229599   -0.0187323    5.5027230  
H    3.3143982    2.7817323    3.1139444  
H    2.0889452    1.7545833    5.0442112  
