62

C   -6.7218109    2.1175765    0.3721797  
C   -6.9192597    2.9676417    1.4356037  
C   -8.3204912    2.9828257    1.7019087  
C   -8.9323705    2.1153872    0.7611213  
N   -7.9335069    1.6081838   -0.0323724  
C  -10.3112630    1.8864831    0.7287601  
C  -11.0865568    2.5450189    1.6633342  
O  -12.4384550    2.3573881    1.6766888  
C  -10.4945930    3.4147717    2.6098677  
O  -11.4001861    3.9958783    3.4733262  
C   -9.1343811    3.6412735    2.6422041  
H   -6.1483232    3.5109113    1.9547458  
H   -8.0642547    0.9548872   -0.7834313  
H  -10.7837715    1.2266817    0.0141973  
H  -12.7826221    2.9021275    2.3964621  
H  -10.9189433    4.5676223    4.0792292  
H   -8.7096179    4.3131319    3.3788590  
C   -4.2186860    2.1401322   -0.0437259  
C   -5.4804245    1.7323143   -0.3144294  
C   -5.3466892    0.8217466   -1.4411418  
C   -3.8965662    0.7958598   -1.7293371  
N   -3.2302256    1.5666944   -0.9133754  
C   -3.3460097   -0.0004262   -2.7913647  
C   -4.2050299   -0.7376506   -3.5315798  
O   -3.8298208   -1.5261789   -4.5530897  
C   -5.6737591   -0.7329690   -3.2651707  
O   -6.3965397   -1.4282085   -3.9789286  
C   -6.2140638    0.0921571   -2.1701078  
H   -4.6590779   -1.9185769   -4.8809753  
H   -7.2835615    0.0679009   -2.0094319  
H   -3.8917471    2.8223391    0.7248295  
C    0.0000000    0.0000000    0.0000000  
C    1.0662919   -0.0000103   -0.8334272  
C    0.4961868    0.0000066   -2.1718889  
C   -0.9663860   -0.0000849   -1.9540248  
N   -1.2632775   -0.0000084   -0.6828659  
C   -1.8985364   -0.0000515   -3.0477258  
C   -1.3925778    0.0004567   -4.3020543  
O   -2.1456385    0.0005412   -5.4151314  
C    0.0786229    0.0009326   -4.5544999  
O    0.4683756    0.0012594   -5.7221104  
C    1.0143162    0.0008443   -3.4159034  
H    2.1107195    0.0000631   -0.5721869  
H   -1.5042277    0.0009692   -6.1484420  
H    2.0724151    0.0013151   -3.6409746  
C    3.3041272   -0.0001177    3.0120429  
C    2.5845372    0.0004780    1.8395852  
C    1.2040006    0.0000008    2.1983588  
C    1.1422373   -0.0006037    3.6154372  
N    2.4348639   -0.0026109    4.0777464  
C   -0.0655181   -0.0008797    4.3197917  
C   -1.2321768   -0.0002324    3.5801400  
O   -2.4392816   -0.0001146    4.2172520  
C   -1.1911209    0.0000007    2.1655264  
O   -2.4371527    0.0002320    1.5732860  
C    0.0000000    0.0000000    1.4700000  
H    3.0031534    0.0000661    0.8477417  
H    2.7054629    0.0071099    5.0445261  
H   -0.1193549   -0.0014844    5.3997470  
H   -3.1132988    0.0000648    3.5251786  
H   -2.3200282    0.0004071    0.6183591  
H    4.3686625   -0.0004071    3.1724291  
