62

C    8.1197432    0.7099894   -4.4167350  
C    8.7911133    0.4601366   -5.5911727  
C    9.8465697   -0.4482618   -5.2822640  
C    9.7686830   -0.7196008   -3.8922151  
N    8.7104505    0.0011469   -3.3969528  
C   10.6569900   -1.5788416   -3.2384524  
C   11.6416770   -2.1752640   -4.0018984  
O   12.5352518   -3.0233132   -3.4142354  
C   11.7358772   -1.9167882   -5.3901118  
O   12.7701303   -2.5860567   -6.0111954  
C   10.8600496   -1.0690278   -6.0356764  
H    8.5504863    0.8817071   -6.5520944  
H   10.6030500   -1.7896825   -2.1792836  
H   13.1279648   -3.3240563   -4.1153136  
H   12.7632910   -2.3565653   -6.9454815  
H   10.9570973   -0.8902283   -7.1001438  
H    7.2671426    1.3388597   -4.2255458  
C    4.7630507    0.0004755   -1.3275395  
C    5.6985005    0.0014506   -2.3055541  
C    6.9735496    0.0008552   -1.6050201  
C    6.6111494   -0.0004092   -0.1714064  
N    5.3167472   -0.0007178   -0.0025512  
C    7.6066080   -0.0013501    0.8650049  
C    8.9050789   -0.0014310    0.4864453  
O    9.9376479   -0.0022571    1.3465859  
C    9.3027480   -0.0005441   -0.9523111  
O   10.5033618   -0.0005484   -1.2238756  
C    8.2629700    0.0004566   -1.9967172  
H    5.5425452    0.0023601   -3.3708018  
H    7.3132520   -0.0020599    1.9046451  
H   10.7311762   -0.0021128    0.7813727  
C    3.3003548    0.0005276   -1.4738982  
C    2.5232817    0.0003497   -2.6090743  
C    1.1623204   -0.0001319   -2.1820101  
C    1.1711886    0.0000583   -0.7636140  
N    2.4852302   -0.0014919   -0.3662356  
C    0.0000000    0.0000000    0.0000000  
C   -1.2020379    0.0000520   -0.6806479  
O   -2.3759249    0.0003495    0.0157742  
C   -1.2314652   -0.0005112   -2.0955511  
O   -2.5054384   -0.0008036   -2.6250184  
C   -0.0764510   -0.0007271   -2.8495195  
H    2.8919962   -0.0005619   -3.6205297  
H    2.8036267    0.0088181    0.5858667  
H   -3.0835636    0.0000348   -0.6418823  
H   -2.4360038   -0.0011526   -3.5845925  
H   -0.1304090   -0.0013420   -3.9319089  
C    0.8175213    0.6860729    2.3021913  
C    0.0000000    0.0000000    1.4700000  
C   -0.8887526   -0.7456559    2.3478473  
C   -0.4549825   -0.3816753    3.7138435  
N    0.5448156    0.4573574    3.6934124  
C   -1.0945674   -0.9182058    4.8835240  
C   -2.1210866   -1.7789155    4.6970523  
O   -2.8083856   -2.3554314    5.6976972  
C   -2.5824069   -2.1655116    3.3310774  
O   -3.5227682   -2.9541547    3.2362962  
C   -1.9100805   -1.6015804    2.1470656  
H   -0.7567140   -0.6349833    5.8697035  
H   -3.4728268   -2.9124471    5.2533954  
H   -2.2742832   -1.9066565    1.1752040  
H    1.6189533    1.3585343    2.0405121  
