62

C   -8.4538036    1.1423169   -1.6341822  
C   -7.6673854    0.0591955   -1.9517685  
C   -8.5295776   -1.0749294   -2.0223715  
C   -9.8418034   -0.6186067   -1.7364404  
N   -9.7598609    0.7318261   -1.5035591  
C  -10.9511173   -1.4694128   -1.7179299  
C  -10.7317948   -2.8051540   -1.9933766  
O  -11.7797808   -3.6796366   -1.9890290  
C   -9.4297945   -3.2796075   -2.2806133  
O   -9.3752501   -4.6347274   -2.5336320  
C   -8.3349246   -2.4408840   -2.2987831  
H  -10.5351912    1.3312404   -1.2855095  
H  -11.9537702   -1.1278697   -1.5005923  
H  -11.4123435   -4.5472111   -2.2024967  
H   -8.4616247   -4.8731448   -2.7181590  
H   -7.3496506   -2.8331892   -2.5219633  
H   -8.1861978    2.1749331   -1.4890982  
C   -4.2186865    2.1401318   -0.0437260  
C   -5.4804250    1.7323141   -0.3144295  
C   -5.3466897    0.8217462   -1.4411418  
C   -3.8965666    0.7958597   -1.7293371  
N   -3.2302259    1.5666944   -0.9133753  
C   -3.3460097   -0.0004262   -2.7913647  
C   -4.2050302   -0.7376508   -3.5315799  
O   -3.8298203   -1.5261790   -4.5530896  
C   -5.6737596   -0.7329691   -3.2651708  
O   -6.3965398   -1.4282088   -3.9789289  
C   -6.2140638    0.0921566   -2.1701080  
H   -6.3895961    2.0144736    0.1884319  
H   -4.6590779   -1.9185769   -4.8809753  
H   -3.8917480    2.8223391    0.7248296  
C    0.0000000    0.0000000    0.0000000  
C    1.0662919   -0.0000103   -0.8334272  
C    0.4961868    0.0000066   -2.1718889  
C   -0.9663860   -0.0000849   -1.9540248  
N   -1.2632775   -0.0000084   -0.6828659  
C   -1.8985364   -0.0000515   -3.0477258  
C   -1.3925778    0.0004567   -4.3020543  
O   -2.1456385    0.0005412   -5.4151314  
C    0.0786229    0.0009326   -4.5544999  
O    0.4683756    0.0012594   -5.7221104  
C    1.0143162    0.0008443   -3.4159034  
H    2.1107195    0.0000631   -0.5721869  
H   -1.5042277    0.0009692   -6.1484420  
H    2.0724151    0.0013151   -3.6409746  
C    3.3041272   -0.0001177    3.0120429  
C    2.5845372    0.0004780    1.8395852  
C    1.2040006    0.0000008    2.1983588  
C    1.1422373   -0.0006037    3.6154372  
N    2.4348639   -0.0026109    4.0777464  
C   -0.0655181   -0.0008797    4.3197917  
C   -1.2321768   -0.0002324    3.5801400  
O   -2.4392816   -0.0001146    4.2172520  
C   -1.1911209    0.0000007    2.1655264  
O   -2.4371527    0.0002320    1.5732860  
C    0.0000000    0.0000000    1.4700000  
H    3.0031534    0.0000661    0.8477417  
H    2.7054629    0.0071099    5.0445261  
H   -0.1193549   -0.0014844    5.3997470  
H   -3.1132988    0.0000648    3.5251786  
H   -2.3200282    0.0004071    0.6183591  
H    4.3686625   -0.0004071    3.1724291  
