62

C    1.1188649    0.0008221   -0.8003802  
C    0.0000000    0.0000000    0.0000000  
C   -1.1323859    0.0008896   -0.8673533  
C   -0.6382652    0.0019677   -2.1969281  
N    0.7324026    0.0038479   -2.1202233  
C   -1.4770899    0.0027312   -3.3154813  
C   -2.8395462    0.0020934   -3.0876865  
O   -3.7039184    0.0024415   -4.1440362  
C   -3.3517863    0.0013921   -1.7684342  
O   -4.7300485    0.0012355   -1.7073142  
C   -2.5248541    0.0009117   -0.6644823  
H    1.3576328   -0.0056170   -2.9057035  
H   -4.5940013    0.0021811   -3.7685148  
H   -4.9934594    0.0007251   -0.7819936  
H   -2.9462582    0.0005599    0.3339643  
H    2.1619894    0.0009359   -0.5342059  
C    0.0908008   -0.6992464   -5.1618156  
C   -0.9736275    0.0040455   -4.6965765  
C   -1.5084774    0.7463560   -5.8136025  
C   -0.6623457    0.4154826   -6.9760886  
N    0.2885861   -0.4649760   -6.5141241  
C   -0.8417373    0.9156024   -8.2248497  
C   -1.9414381    1.8417252   -8.4381333  
O   -2.1855815    2.3466256   -9.5261459  
C   -2.8501332    2.2064419   -7.2211451  
O   -3.7788887    2.9853289   -7.3885002  
C   -2.5575116    1.6028535   -5.9234911  
H   -3.1915414    1.8604119   -5.0859984  
H    0.7475173   -1.3688065   -4.6304947  
H    1.0132794   -0.8758185   -7.0736555  
C    1.1008909   -2.8088227   -9.7145796  
C    0.3736185   -1.9572513   -8.9546585  
C    0.4966910   -0.6667843   -9.6149978  
C    1.3564980   -0.9293742  -10.7890347  
N    1.7137252   -2.1832977  -10.8527042  
C    1.7208022    0.1093483  -11.7128443  
C    1.2473527    1.3537481  -11.4748349  
O    1.5074301    2.4174718  -12.2538677  
C    0.3772019    1.6503909  -10.2988236  
O   -0.0174528    2.8060441  -10.1441165  
C    0.0176259    0.5678670   -9.3656721  
H   -0.1782879   -2.1776082   -8.0569291  
H    2.3507425   -0.1108827  -12.5623057  
H    1.0350418    3.1566300  -11.8300185  
H    1.2615365   -3.8640888   -9.5610241  
C    0.8576279    0.7185626    2.2703808  
C    0.0000000    0.0000000    1.4700000  
C   -0.8668858   -0.7285659    2.3373528  
C   -0.4876752   -0.4117774    3.6669281  
N    0.5635254    0.4678311    3.5902241  
C   -1.1297612   -0.9515493    4.7854808  
C   -2.1738724   -1.8268314    4.5576857  
O   -2.8357962   -2.3827064    5.6140350  
C   -2.5667212   -2.1555554    3.2384331  
O   -3.6226318   -3.0413663    3.1773122  
C   -1.9335634   -1.6236449    2.1344818  
H    1.0363952    0.8769718    4.3757045  
H   -0.8454472   -0.7142436    5.8013813  
H   -3.5178062   -2.9546422    5.2385129  
H   -3.8247440   -3.2102924    2.2519915  
H   -2.2566033   -1.8942483    1.1360343  
H    1.6567807    1.3889844    2.0042067  
