60

C    8.4857271   -3.2565333   -3.7485638  
C    9.5935426   -2.4894098   -4.0255715  
C    9.1376263   -1.1501904   -4.2078689  
C    7.7306737   -1.1614071   -4.0281935  
N    7.3673031   -2.4562453   -3.7525597  
C    6.9454050   -0.0095700   -4.1350277  
C    7.5922683    1.1752261   -4.4282914  
O    6.8736411    2.3299011   -4.5436749  
C    8.9952239    1.2066145   -4.6114492  
O    9.4903591    2.4619120   -4.8985244  
C    9.7705069    0.0706382   -4.5064704  
H   10.6056066   -2.8508259   -4.0895849  
H    6.4315219   -2.7696423   -3.5679609  
H    7.5093346    3.0277853   -4.7488950  
H   10.4439473    2.3951862   -5.0072459  
H   10.8429906    0.1255813   -4.6522037  
H    8.4047023   -4.3114800   -3.5498657  
C    4.3047787   -2.1086497   -1.2859243  
C    5.3774559   -1.6442158   -1.9771117  
C    4.8701585   -0.7486136   -2.9897228  
C    3.4034921   -0.7291861   -2.8306570  
N    3.1250156   -1.5744515   -1.7814352  
C    2.5562217   -0.0001543   -3.6003001  
C    3.1269048    0.8199331   -4.6559101  
O    2.4474936    1.5122577   -5.4024942  
C    4.6776928    0.8144235   -4.8425423  
O    5.1696069    1.5006860   -5.7281633  
C    5.4870227   -0.0121789   -3.9505975  
H    6.4066157   -1.8999862   -1.7981561  
H    4.2768480   -2.7963881   -0.4563908  
H    2.2064273   -1.7712342   -1.4285625  
C    0.0000000    0.0000000    0.0000000  
C    1.0541688   -0.0001719   -0.8560391  
C    0.5103141   -0.0000449   -2.1935955  
C   -0.9576367    0.0002461   -2.0455733  
N   -1.2018459   -0.0001392   -0.6915970  
C   -1.8348306    0.0008319   -3.0810611  
C   -1.2972842    0.0009739   -4.4314605  
O   -2.0050664    0.0014267   -5.4301321  
C    0.2542628    0.0004190   -4.6117571  
O    0.7184677    0.0002263   -5.7439119  
C    1.0974556    0.0000880   -3.4189127  
H    2.0940752   -0.0005479   -0.5817978  
H   -2.9081050    0.0011669   -2.9507065  
H   -2.1128195    0.0014911   -0.2706793  
C    1.1319247   -0.0015655    2.2709268  
C    0.7969915   -0.0034943    3.5869401  
C   -0.6453339   -0.0035710    3.6542670  
C   -1.1266833   -0.0015433    2.2596025  
N    0.0000000    0.0000000    1.4700000  
C   -2.4346130   -0.0013964    1.8976294  
C   -3.4350110   -0.0031408    2.9520183  
O   -4.6384611   -0.0030974    2.7283916  
C   -2.9478959   -0.0050506    4.4361073  
O   -3.7809380   -0.0062218    5.3323774  
C   -1.5113823   -0.0053090    4.7012123  
H    1.4821238   -0.0045407    4.4159191  
H   -2.7664565   -0.0000232    0.8686553  
H   -1.1823530   -0.0068408    5.7314848  
H    2.1104316   -0.0009391    1.8188057  
