60

C    9.2992110   -0.0010178   -3.1401937  
C    9.8913816   -0.0023061   -1.8985013  
C   11.3020150   -0.0026232   -2.1099563  
C   11.5126075   -0.0011928   -3.5126591  
N   10.2758287   -0.0021947   -4.1084736  
C   12.7877985   -0.0007636   -4.0859622  
C   13.8701127   -0.0014902   -3.2276087  
O   15.1375782   -0.0007643   -3.7341112  
C   13.6803731   -0.0032935   -1.8251779  
O   14.8571379   -0.0042436   -1.1050621  
C   12.4226531   -0.0039912   -1.2589029  
H    9.3706811   -0.0040446   -0.9562369  
H   10.1085054    0.0089957   -5.0983516  
H   12.9550211    0.0001808   -5.1542501  
H   15.7349991   -0.0017617   -2.9749315  
H   14.6401411   -0.0054200   -0.1677705  
H   12.3085711   -0.0055596   -0.1811920  
C    5.6463485   -0.0007504   -0.7029965  
C    4.7161325   -0.0005435   -1.6923264  
C    5.4339821   -0.0003284   -2.9451344  
C    6.8689502   -0.0004568   -2.6021231  
N    6.9298894   -0.0003135   -1.2276502  
C    7.8767468   -0.0007180   -3.5109967  
C    7.5246265   -0.0006575   -4.9211552  
O    8.3596092   -0.0008154   -5.8161993  
C    6.0111294   -0.0002696   -5.3073299  
O    5.7025049    0.0000911   -6.4913955  
C    5.0159839   -0.0002905   -4.2379667  
H    3.9702004   -0.0002261   -4.5137571  
H    5.5021925   -0.0009684    0.3652304  
H    7.7763881   -0.0019093   -0.6886838  
C    3.2573665   -0.0002920   -1.5109385  
C    2.5379463   -0.0001709   -0.3591964  
C    1.1435038    0.0000331   -0.7338500  
C    1.1092599   -0.0000083   -2.2088477  
N    2.4227553    0.0001909   -2.6182613  
C   -0.0265539   -0.0002524   -2.9515660  
C   -1.3003040   -0.0002640   -2.2514977  
O   -2.3786790   -0.0004133   -2.8306421  
C   -1.2877727    0.0000311   -0.6895603  
O   -2.3539959    0.0003306   -0.0892030  
C    0.0000000    0.0000000    0.0000000  
H    2.9384091   -0.0000367    0.6389234  
H   -0.0296303   -0.0004086   -4.0327229  
H    2.7280482   -0.0013407   -3.5742119  
C    0.8681109    0.7263879    2.2709268  
C    0.6127770    0.5096195    3.5869401  
C   -0.4920590   -0.4175482    3.6542670  
C   -0.8620974   -0.7254003    2.2596025  
N    0.0000000    0.0000000    1.4700000  
C   -1.8641242   -1.5660088    1.8976294  
C   -2.6293522   -2.2103885    2.9520183  
O   -3.5512764   -2.9839180    2.7283916  
C   -2.2549728   -1.8987399    4.4361073  
O   -2.8923672   -2.4351063    5.3323774  
C   -1.1543735   -0.9755647    4.7012123  
H    1.1382914    0.9492124    4.4159191  
H   -2.1192137   -1.7782617    0.8686553  
H   -0.9013378   -0.7652422    5.7314848  
H    1.6172880    1.3558399    1.8188057  
