62

C    0.0000000    0.0000000    0.0000000  
C    0.7157253    0.7712285   -0.8862348  
C    0.3349575    0.3599928   -2.1979133  
C   -0.6244343   -0.6739225   -2.0478684  
N   -0.8032671   -0.8689095   -0.7007915  
C   -1.2204156   -1.3165195   -3.1372092  
C   -0.8412103   -0.9077341   -4.4010425  
O   -1.3921657   -1.5012715   -5.4997578  
C    0.1146993    0.1218780   -4.5711965  
O    0.3869820    0.4148937   -5.8915553  
C    0.7032601    0.7560717   -3.4969896  
H    1.4258193    1.5353675   -0.6200570  
H   -1.4335774   -1.5331889   -0.2891825  
H   -1.9521470   -2.1053040   -3.0295510  
H   -0.9947863   -1.0734075   -6.2693592  
H    1.0412974    1.1197166   -5.9180052  
C    2.8323914    2.0144584   -3.0037690  
C    1.6924573    1.8211663   -3.7159928  
C    1.6429613    2.8571005   -4.7205950  
C    2.8562154    3.6756148   -4.5339418  
N    3.5342421    3.1125177   -3.4774897  
C    3.1786254    4.7559184   -5.2893894  
C    2.2699469    5.1381161   -6.3574547  
O    2.4716063    6.0956534   -7.0928162  
C    0.9789329    4.2856831   -6.5729684  
O    0.2062602    4.5980306   -7.4688907  
C    0.7399117    3.1431928   -5.6946535  
H   -0.1561671    2.5580027   -5.8506001  
H    3.2186860    1.4472478   -2.1725423  
H    4.4058036    3.4464546   -3.1088248  
C    5.6455457    5.0410349   -4.7684513  
C    6.5608395    6.0356806   -4.6380969  
C    5.8682710    7.2794106   -4.8795945  
C    4.4643926    6.9252809   -5.1633344  
N    4.3955757    5.5536645   -5.0807416  
C    3.4861976    7.8235348   -5.4425836  
C    3.8396950    9.2331636   -5.4654094  
O    3.0302141   10.1190569   -5.7067299  
C    5.3206207    9.6309885   -5.1680877  
O    5.6301658   10.8146958   -5.1847759  
C    6.2853084    8.5725523   -4.8800913  
H    7.6023447    5.9121918   -4.4001235  
H    2.4624841    7.5427736   -5.6477497  
H    7.3086040    8.8563848   -4.6750757  
H    5.7790446    3.9766486   -4.6628632  
C    0.0000000    0.0000000    1.4700000  
C    1.0521667    0.0011902    2.3562342  
C    0.4917218    0.0011957    3.6679131  
C   -0.9187428   -0.0003148    3.5178682  
N   -1.1833171    0.0009411    2.1707914  
C   -1.7951701   -0.0010350    4.6072090  
C   -1.2375837   -0.0005224    5.8710424  
O   -2.0474215   -0.0015360    6.9697579  
C    0.1673580    0.0013566    6.0411963  
O    0.5673524    0.0020687    7.3615553  
C    1.0325770    0.0023412    4.9669890  
H    2.0953057    0.0030649    2.0900562  
H   -2.0989778   -0.0102372    1.7591824  
H   -2.8710934   -0.0020419    4.4995513  
H   -1.4634884   -0.0006497    7.7393593  
H    1.5290710    0.0033153    7.3880045  
H    2.1042148    0.0039609    5.1284455  
