66

C    3.8878169   -0.7221146   -4.5427241  
C    3.9719333   -0.4862744   -5.8954145  
C    2.9171610    0.4147690   -6.2273419  
C    2.2168608    0.6962708   -5.0263992  
N    2.8310663   -0.0116218   -4.0232754  
C    1.1122532    1.5520024   -4.9778755  
C    0.7074027    2.1344025   -6.1632375  
O   -0.3652176    2.9784457   -6.1726996  
C    1.3930192    1.8656308   -7.3717529  
O    0.8682187    2.5214018   -8.4662355  
C    2.4826536    1.0213232   -7.4204131  
H    0.5741178    1.7705382   -4.0658149  
H   -0.4758803    3.2691040   -7.0873238  
H    1.3885183    2.2856105   -9.2403767  
H    2.9875785    0.8344065   -8.3609397  
H    4.4971333   -1.3420427   -3.9076012  
C    3.3041273    0.0001179   -1.5420438  
C    2.5845372   -0.0004778   -0.3695858  
C    1.2040009   -0.0000008   -0.7283598  
C    1.1422372    0.0006037   -2.1454375  
N    2.4348637    0.0026111   -2.6077468  
C   -0.0655182    0.0008797   -2.8497921  
C   -1.2321770    0.0002322   -2.1101399  
O   -2.4392816    0.0001144   -2.7472523  
C   -1.1911211   -0.0000008   -0.6955263  
O   -2.4371524   -0.0002326   -0.1032861  
C    0.0000000    0.0000000    0.0000000  
H    3.0031535   -0.0000658    0.6222573  
H   -0.1193551    0.0014842   -3.9297475  
H   -3.1132989   -0.0000654   -2.0551787  
H   -2.3200281   -0.0004077    0.8516411  
H    4.3686625    0.0004074   -1.7024298  
C    5.4286429   -2.3642742   -6.7658160  
C    4.9699744   -1.0678985   -6.8045495  
C    5.6458778   -0.4190667   -7.8800826  
C    6.5116772   -1.3775917   -8.4662123  
N    6.3564242   -2.5471796   -7.7643732  
C    7.3356471   -1.0852916   -9.5572777  
C    7.2844444    0.1979268  -10.0661061  
O    8.0678269    0.5370986  -11.1311364  
C    6.4273113    1.1683406   -9.4947609  
O    6.4908273    2.3995891  -10.1139036  
C    5.6143690    0.8807574   -8.4182169  
H    6.8351168   -3.4081688   -7.9581058  
H    7.9978411   -1.8113241  -10.0084745  
H    7.8805726    1.4651581  -11.3232450  
H    5.8823093    2.9962625   -9.6674843  
H    4.9683691    1.6447814   -8.0017682  
H    5.1684448   -3.1725168   -6.1040005  
C    2.5285572    2.1210227    2.9438989  
C    1.9331703    1.6216660    4.0790748  
C    0.8903039    0.7472258    3.6520102  
C    0.8972198    0.7527806    2.2336141  
N    1.9028376    1.5986179    1.8362361  
C    0.0000000    0.0000000    1.4700000  
C   -0.9207814   -0.7726952    2.1506477  
O   -1.8198395   -1.5274828    1.4542253  
C   -0.9436862   -0.7911793    3.5655508  
O   -1.9197945   -1.6098497    4.0950179  
C   -0.0590329   -0.0485852    4.3195194  
H    2.2150357    1.8593692    5.0905303  
H    2.1533708    1.7953814    0.8841339  
H   -2.3621246   -1.9821033    2.1118817  
H   -1.8668290   -1.5649508    5.0545920  
H   -0.1007624   -0.0827977    5.4019087  
H    3.3491200    2.8096064    2.8367138  
