62

C    8.1075239    0.0023996   -0.9893323  
C    8.4062783    0.0025181    0.3535052  
C    9.8284134    0.0033370    0.4636478  
C   10.3480849    0.0039786   -0.8561504  
N    9.2763438    0.0014347   -1.7140446  
C   11.7193379    0.0051676   -1.1290091  
C   12.5816949    0.0060260   -0.0498811  
O   13.9304445    0.0075514   -0.2593718  
C   12.0824058    0.0050301    1.2743265  
O   13.0677964    0.0056544    2.2399072  
C   10.7297551    0.0035837    1.5442529  
H    7.6876077    0.0009643    1.1550681  
H    9.3351678    0.0117809   -2.7162488  
H   12.1217777    0.0055175   -2.1326247  
H   14.3424783    0.0076282    0.6144092  
H   12.6462146    0.0049355    3.1047030  
H   10.3769914    0.0026647    2.5689645  
C    5.5868521   -0.0000800   -1.0681557  
C    6.8043816    0.0011457   -1.6695669  
C    6.5701481    0.0006875   -3.0943372  
C    5.1058543   -0.0008879   -3.2749811  
N    4.5679461   -0.0016854   -2.0086701  
C    4.4796776   -0.0013316   -4.4789774  
C    5.3028527   -0.0004066   -5.6768576  
O    4.8337321   -0.0007719   -6.8074446  
C    6.8558133    0.0010131   -5.5091793  
O    7.5591499    0.0014937   -6.5104683  
C    7.4139943    0.0016564   -4.1592590  
H    3.4041775   -0.0023629   -4.5894721  
H    8.4901794    0.0028448   -4.0517870  
H    5.3482112   -0.0001627   -0.0169946  
C    3.1301149   -0.0010311   -1.7028252  
C    2.5367768   -0.0002767   -0.4864665  
C    1.1089904    0.0001028   -0.7656183  
C    1.0177872   -0.0004148   -2.2415132  
N    2.1993578   -0.0011611   -2.7963820  
C   -0.2459209   -0.0002877   -2.9257118  
C   -1.3675319   -0.0000605   -2.1698524  
O   -2.6129313    0.0000867   -2.6748490  
C   -1.3083584    0.0000910   -0.6783232  
O   -2.3693261    0.0004206   -0.0541692  
C    0.0000000    0.0000000    0.0000000  
H    3.0096017   -0.0001007    0.4807525  
H   -0.2829630   -0.0004687   -4.0053125  
H   -3.1967441    0.0002094   -1.8949034  
C    0.8576279    0.7185626    2.2703808  
C    0.0000000    0.0000000    1.4700000  
C   -0.8668858   -0.7285659    2.3373528  
C   -0.4876752   -0.4117774    3.6669281  
N    0.5635254    0.4678311    3.5902241  
C   -1.1297612   -0.9515493    4.7854808  
C   -2.1738724   -1.8268314    4.5576857  
O   -2.8357962   -2.3827064    5.6140350  
C   -2.5667212   -2.1555554    3.2384331  
O   -3.6226318   -3.0413663    3.1773122  
C   -1.9335634   -1.6236449    2.1344818  
H    1.0363952    0.8769718    4.3757045  
H   -0.8454472   -0.7142436    5.8013813  
H   -3.5178062   -2.9546422    5.2385129  
H   -3.8247440   -3.2102924    2.2519915  
H   -2.2566033   -1.8942483    1.1360343  
H    1.6567807    1.3889844    2.0042067  
