62

C    2.2542570   -4.5551150   -6.4403366  
C    3.2434681   -4.3435320   -7.3726249  
C    3.1416380   -2.9821804   -7.7860875  
C    2.0631085   -2.4079656   -7.0656875  
N    1.5452195   -3.3907389   -6.2591111  
C    1.6748844   -1.0738462   -7.2212416  
C    2.3886219   -0.3053128   -8.1201928  
O    2.0520927    1.0036884   -8.3106602  
C    3.4676302   -0.8602748   -8.8486002  
O    4.0781133    0.0328899   -9.7047016  
C    3.8510034   -2.1764120   -8.6958470  
H    3.9506787   -5.0801134   -7.7136458  
H    0.7765141   -3.2749056   -5.6237723  
H    2.6671990    1.3506134   -8.9698647  
H    4.7952725   -0.4213893  -10.1573787  
H    4.6814676   -2.5735923   -9.2677339  
H    1.9974631   -5.4448616   -5.8913686  
C    0.2653132   -0.7042850   -5.1440085  
C   -0.8287665    0.0000939   -4.7555305  
C   -1.2825957    0.7423470   -5.9078911  
C   -0.3566077    0.4102558   -7.0074599  
N    0.5584964   -0.4707815   -6.4790213  
C   -0.4467553    0.9099656   -8.2659782  
C   -1.5278137    1.8369015   -8.5569044  
O   -1.6939217    2.3415174   -9.6596606  
C   -2.5200360    2.2029120   -7.4074107  
O   -3.4339547    2.9824917   -7.6403699  
C   -2.3204910    1.5996618   -6.0920693  
H    0.2428630    0.6533153   -9.0581062  
H   -3.0119746    1.8581180   -5.3016419  
H    0.8822125   -1.3741501   -4.5672890  
C    1.0672569   -0.0000698   -0.8321910  
C    0.0000000    0.0000000    0.0000000  
C   -1.1601223   -0.0000736   -0.8778472  
C   -0.5938729   -0.0000768   -2.2438435  
N    0.7113367   -0.0001553   -2.2234123  
C   -1.4286985   -0.0001877   -3.4135239  
C   -2.7683113   -0.0006798   -3.2270524  
O   -3.6653902   -0.0008302   -4.2276970  
C   -3.3702024   -0.0010610   -1.8610774  
O   -4.5974910   -0.0013779   -1.7662963  
C   -2.4926825   -0.0008943   -0.6770658  
H   -4.5324245   -0.0012258   -3.7833954  
H   -2.9677772   -0.0012974    0.2947961  
H    2.1134391   -0.0000547   -0.5705119  
C    0.8676693    0.7151171    2.2619005  
C    0.5875920    0.4624972    3.5848544  
C   -0.5048400   -0.4542819    3.6114698  
C   -0.8517165   -0.7276451    2.2635546  
N    0.0000000    0.0000000    1.4700000  
C   -1.8902865   -1.5946756    1.9108239  
C   -2.5912627   -2.1969500    2.9375057  
O   -3.6148162   -3.0527051    2.6493466  
C   -2.2603868   -1.9365747    4.2886322  
O   -3.0513550   -2.6123276    5.1947621  
C   -1.2361111   -1.0811317    4.6373480  
H    1.1060808    0.8876438    4.4271209  
H   -2.1597133   -1.8070987    0.8854031  
H   -3.9636755   -3.3565188    3.4974381  
H   -2.7621927   -2.3810384    6.0827341  
H   -1.0058879   -0.9010589    5.6809233  
H    1.6167816    1.3499334    1.8205408  
