60

C    9.6446371    2.1238543   -6.9301931  
C   10.9052200    1.6252377   -6.6961474  
C   10.8053618    0.7510203   -5.5734844  
C    9.4480749    0.7559419   -5.1615691  
N    8.7712051    1.6012043   -6.0053678  
C    8.9836089    0.0031767   -4.0787927  
C    9.9060645   -0.7688515   -3.3996554  
O    9.5063417   -1.5235928   -2.3349480  
C   11.2647380   -0.7866974   -3.7952596  
O   12.0590932   -1.6047457   -3.0186387  
C   11.7237018   -0.0441181   -4.8631807  
H   11.7883434    1.8632792   -7.2639703  
H    7.7874634    1.7974452   -5.9638590  
H   10.2949744   -1.9777063   -2.0107493  
H   12.9602907   -1.5594412   -3.3523974  
H   12.7702298   -0.0778328   -5.1426796  
H    9.2997288    2.8120650   -7.6827635  
C    6.4690067    0.0019755   -4.4192259  
C    7.5790592    0.0025229   -3.6450414  
C    7.0826137    0.0021761   -2.2775468  
C    5.6103545    0.0015083   -2.4155218  
N    5.2447492    0.0013071   -3.6686472  
C    4.7390840    0.0009613   -1.2727298  
C    5.3125312    0.0006874   -0.0477837  
O    4.6211392    0.0001824    1.1046125  
C    6.7952869    0.0009745    0.1242519  
O    7.2479825    0.0008238    1.2689297  
C    7.6676524    0.0015792   -1.0635622  
H    5.3014937    0.0000719    1.8019436  
H    8.7364288    0.0016561   -0.8963867  
H    6.4103389    0.0020015   -5.4960416  
C    3.2798077    0.0005856   -1.4499661  
C    2.5571132    0.0005565   -2.5996564  
C    1.1637425    0.0001547   -2.2210366  
C    1.1336959   -0.0000200   -0.7459475  
N    2.4483509   -0.0001429   -0.3402730  
C    0.0000000    0.0000000    0.0000000  
C   -1.2757370   -0.0000187   -0.6964411  
O   -2.3524597   -0.0000640   -0.1142306  
C   -1.2676502   -0.0000874   -2.2584078  
O   -2.3355774   -0.0004102   -2.8557287  
C    0.0181551    0.0001758   -2.9516297  
H    2.9547342    0.0006074   -3.5989118  
H    0.0150776    0.0003317   -4.0331632  
H    2.7563626    0.0012823    0.6148051  
C    2.4951002    2.0940188    2.9809380  
C    1.9440701    1.6314916    1.8291961  
C    0.8759964    0.7350050    2.2038498  
C    0.8497377    0.7130254    3.6788474  
N    1.8560616    1.5571714    4.0882609  
C   -0.0205033   -0.0168748    4.4215661  
C   -0.9962600   -0.8356168    3.7214979  
O   -1.8224391   -1.5286685    4.3006425  
C   -0.9864710   -0.8277881    2.1595606  
O   -1.8030528   -1.5133726    1.5592035  
C    0.0000000    0.0000000    1.4700000  
H    2.2509283    1.8888011    0.8310761  
H   -0.0229599   -0.0187323    5.5027230  
H    3.3143982    2.7817323    3.1139444  
H    2.0889452    1.7545833    5.0442112  
