62

C    9.0743432    0.0145835   -3.5980583  
C    9.7910048    0.0176551   -4.7723045  
C   11.1723337    0.0345332   -4.4169929  
C   11.2375792    0.0409022   -3.0000845  
N    9.9461522    0.0304191   -2.5345501  
C   12.4469916    0.0569286   -2.2987619  
C   13.6117612    0.0663967   -3.0413257  
O   14.8203607    0.0817806   -2.4072417  
C   13.5672231    0.0606344   -4.4558221  
O   14.8117191    0.0719166   -5.0511757  
C   12.3744633    0.0450985   -5.1483594  
H    9.3699655    0.0099229   -5.7630924  
H    9.6780592    0.0212083   -1.5670677  
H   12.5034799    0.0620004   -1.2189538  
H   15.4926320    0.0864944   -3.1009953  
H   14.6922508    0.0670305   -6.0057998  
H   12.3717921    0.0412070   -6.2320824  
C    6.6682521    0.0023720   -4.3668309  
C    5.4175878    0.0024210   -3.7938519  
C    5.6072947    0.0015616   -2.3801296  
C    7.0065885    0.0012982   -2.1479618  
N    7.6213759   -0.0001472   -3.3754192  
C    7.5601874    0.0007876   -0.8640939  
C    6.6852682    0.0008454    0.2048751  
O    7.1721938    0.0007117    1.4799903  
C    5.2859247    0.0007310   -0.0064393  
O    4.5477721    0.0003832    1.1590973  
C    4.7390840    0.0009613   -1.2727298  
H    4.4834521    0.0018991   -4.3289999  
H    8.6257738    0.0004406   -0.6804408  
H    6.4039032    0.0004829    2.0656480  
H    3.6139330    0.0003543    0.9276922  
H    6.9558181    0.0024890   -5.4042631  
C    3.2798077    0.0005856   -1.4499661  
C    2.5571132    0.0005565   -2.5996564  
C    1.1637425    0.0001547   -2.2210366  
C    1.1336959   -0.0000200   -0.7459475  
N    2.4483509   -0.0001429   -0.3402730  
C    0.0000000    0.0000000    0.0000000  
C   -1.2757370   -0.0000187   -0.6964411  
O   -2.3524597   -0.0000640   -0.1142306  
C   -1.2676502   -0.0000874   -2.2584078  
O   -2.3355774   -0.0004102   -2.8557287  
C    0.0181551    0.0001758   -2.9516297  
H    2.9547342    0.0006074   -3.5989118  
H    0.0150776    0.0003317   -4.0331632  
H    2.7563626    0.0012823    0.6148051  
C    2.5128556    2.1077716    2.9199648  
C    1.9592212    1.6432552    4.0696553  
C    0.8915788    0.7479214    3.6910360  
C    0.8684491    0.7287414    2.2159470  
N    1.8754542    1.5738793    1.8102719  
C    0.0000000    0.0000000    1.4700000  
C   -0.9772830   -0.8200135    2.1664417  
O   -1.8021297   -1.5120829    1.5842315  
C   -0.9711318   -0.8147624    3.7284083  
O   -1.7894187   -1.5009653    4.3257297  
C    0.0140216    0.0115358    4.4216297  
H    2.2638494    1.8988021    5.0689105  
H    0.0117648    0.0094386    5.5031631  
H    3.3327358    2.7953732    2.7900019  
H    2.1123206    1.7707734    0.8551938  
