62

C    0.1979301    0.8376146   -9.3163458  
C    1.3087876    0.0362735   -9.4440820  
C    1.7637336    0.1666643  -10.7896755  
C    0.8838213    1.0686001  -11.4409755  
N   -0.0563207    1.4554444  -10.5184236  
C    1.0310910    1.4326588  -12.7828255  
C    2.0860203    0.8763144  -13.4798069  
O    2.2763890    1.1976909  -14.7926243  
C    2.9744178   -0.0258108  -12.8475587  
O    3.9738391   -0.4938240  -13.6754850  
C    2.8295774   -0.3856228  -11.5238952  
H    1.7377245   -0.5687758   -8.6637477  
H   -0.8060397    2.1009176  -10.6894989  
H    0.3637871    2.1194298  -13.2850747  
H    3.0558023    0.7067028  -15.0836764  
H    4.5291500   -1.0963845  -13.1713477  
H    3.5256946   -1.0791280  -11.0667855  
C    0.2867639   -0.7146512   -5.1244206  
C    0.5709146   -0.4618489   -6.4464705  
C   -0.4158208    0.4546580   -6.9165434  
C   -1.2826865    0.7276750   -5.8275379  
N   -0.8287665    0.0000939   -4.7555305  
C   -2.3750518    1.5943742   -5.9293157  
C   -2.5961743    2.1966676   -7.1526415  
O   -3.6484741    3.0521075   -7.3072412  
C   -1.7426096    1.9366350   -8.2511076  
O   -2.0951102    2.6123607   -9.4010997  
C   -0.6649361    1.0815188   -8.1514973  
H    1.3881332   -0.8867025   -7.0038270  
H   -3.0395766    1.8065324   -5.1031212  
H   -3.6209320    3.3559949   -8.2238419  
H   -1.4686580    2.3813155  -10.0937603  
H    0.7907211   -1.3493617   -4.4158103  
C    1.0672569   -0.0000698   -0.8321910  
C    0.0000000    0.0000000    0.0000000  
C   -1.1601223   -0.0000736   -0.8778472  
C   -0.5938729   -0.0000768   -2.2438435  
N    0.7113367   -0.0001553   -2.2234123  
C   -1.4286985   -0.0001877   -3.4135239  
C   -2.7683113   -0.0006798   -3.2270524  
O   -3.6653902   -0.0008302   -4.2276970  
C   -3.3702024   -0.0010610   -1.8610774  
O   -4.5974910   -0.0013779   -1.7662963  
C   -2.4926825   -0.0008943   -0.6770658  
H   -4.5324245   -0.0012258   -3.7833954  
H   -2.9677772   -0.0012974    0.2947961  
H    2.1134391   -0.0000547   -0.5705119  
C    2.4951002    2.0940188    2.9809380  
C    1.9440701    1.6314916    1.8291961  
C    0.8759964    0.7350050    2.2038498  
C    0.8497377    0.7130254    3.6788474  
N    1.8560616    1.5571714    4.0882609  
C   -0.0205033   -0.0168748    4.4215661  
C   -0.9962600   -0.8356168    3.7214979  
O   -1.8224391   -1.5286685    4.3006425  
C   -0.9864710   -0.8277881    2.1595606  
O   -1.8030528   -1.5133726    1.5592035  
C    0.0000000    0.0000000    1.4700000  
H    2.2509283    1.8888011    0.8310761  
H   -0.0229599   -0.0187323    5.5027230  
H    3.3143982    2.7817323    3.1139444  
H    2.0889452    1.7545833    5.0442112  
