60

C    1.3558800   -2.4145207   -7.7740476  
C    0.9223651   -1.1117540   -7.6884242  
C    1.2598703   -0.4787548   -8.9213076  
C    1.9027838   -1.4530768   -9.7270896  
N    1.9463458   -2.6164533   -8.9995767  
C    2.3727592   -1.1788309  -11.0149954  
C    2.1901230    0.1022439  -11.4983901  
O    2.6295591    0.4240943  -12.7499178  
C    1.5512883    1.0882463  -10.7093986  
O    1.4451673    2.3150723  -11.3314759  
C    1.0876368    0.8184758   -9.4386597  
H    2.3360254   -3.4854337   -9.3173876  
H    2.8637158   -1.9169623  -11.6341296  
H    2.4056759    1.3537640  -12.8872287  
H    1.0024824    2.9230442  -10.7314730  
H    0.6024045    1.5941679   -8.8578594  
H    1.2918906   -3.2152649   -7.0573376  
C    0.5437041   -0.7271836   -5.2249461  
C    0.2434238   -0.5105981   -6.5314673  
C   -0.8629405    0.4167204   -6.5610284  
C   -1.1848937    0.7248605   -5.1545481  
N   -0.2963293   -0.0005341   -4.3948471  
C   -2.1738003    1.5656764   -4.7585729  
C   -2.9746434    2.2099919   -5.7862121  
O   -3.8882481    2.9836942   -5.5312369  
C   -2.6514187    1.8980396   -7.2822127  
O   -3.3190966    2.4343497   -8.1561911  
C   -1.5606875    0.9746586   -7.5847428  
H   -2.3934256    1.7781392   -3.7214931  
H   -1.3431591    0.7641266   -8.6230494  
H    1.3078556   -1.3566696   -4.7986721  
C    3.1301146   -0.0010313   -1.7028256  
C    2.5367765   -0.0002766   -0.4864669  
C    1.1089901    0.0001027   -0.7656184  
C    1.0177865   -0.0004150   -2.2415133  
N    2.1993571   -0.0011612   -2.7963824  
C   -0.2459219   -0.0002879   -2.9257116  
C   -1.3675326   -0.0000606   -2.1698520  
O   -2.6129318    0.0000865   -2.6748483  
C   -1.3083588    0.0000910   -0.6783229  
O   -2.3693264    0.0004206   -0.0541685  
C    0.0000000    0.0000000    0.0000000  
H    3.0096016   -0.0001007    0.4807518  
H   -3.1967444    0.0002093   -1.8949026  
H    4.1849275   -0.0015114   -1.9271979  
C    2.3971438    2.0127888    3.1728260  
C    1.9431056    1.6308205    1.9564670  
C    0.8496017    0.7127664    2.2356185  
C    0.7794028    0.6545384    3.7115134  
N    1.6840587    1.4146091    4.2663826  
C   -0.1885723   -0.1578550    4.3957118  
C   -1.0476298   -0.8789867    3.6398520  
O   -2.0015663   -1.6796266    4.1448486  
C   -1.0022026   -0.8410666    2.1483229  
O   -1.8147390   -1.5232959    1.5241687  
C    0.0000000    0.0000000    1.4700000  
H    2.3054237    1.9346118    0.9892483  
H   -0.2170646   -0.1815267    5.4753125  
H   -2.4487139   -2.0549881    3.3649027  
H    3.2048689    2.6911772    3.3971983  
