62

C    4.7272237   -0.6048450   -7.4646857  
C    4.1526244    0.6391263   -7.3428688  
C    4.9160240    1.5314708   -8.1525249  
C    5.9522513    0.7686788   -8.7494387  
N    5.8096596   -0.5237700   -8.3091424  
C    6.8992173    1.3255560   -9.6142708  
C    6.7980945    2.6770270   -9.8816250  
O    7.6965092    3.2718400  -10.7195174  
C    5.7714495    3.4549465   -9.2954041  
O    5.8051002    4.7851483   -9.6597872  
C    4.8370653    2.9062945   -8.4419221  
H    6.3958199   -1.2948761   -8.5733250  
H    7.6914940    0.7496418  -10.0723320  
H    7.4489073    4.2043783  -10.7677863  
H    5.0792486    5.2391745   -9.2209206  
H    4.0622011    3.5273051   -8.0078599  
H    4.4514353   -1.5432392   -7.0148905  
C    2.9043671   -0.7136449   -3.3215830  
C    1.7334695    0.0049281   -3.2500363  
C    1.6178827    0.7351380   -4.4698861  
C    2.7571741    0.4192955   -5.2535852  
N    3.5185106   -0.4613564   -4.5259612  
C    2.9748791    0.9607488   -6.5241055  
C    2.0250227    1.8367711   -7.0125066  
O    2.1878105    2.3942851   -8.2476961  
C    0.8817962    2.1645717   -6.2454371  
O    0.0290273    3.0512960   -6.8698162  
C    0.6665122    1.6310020   -4.9918491  
H    4.3833664   -0.8701675   -4.8307216  
H    1.4229285    2.9664834   -8.3919534  
H   -0.7162336    3.2195065   -6.2850975  
H   -0.2185382    1.9009302   -4.4276651  
H    3.3507361   -1.3850621   -2.6082019  
C    1.1319246    0.0015678   -0.8009268  
C    0.7969914    0.0034958   -2.1169401  
C   -0.6453340    0.0035696   -2.1842669  
C   -1.1266832    0.0015410   -0.7896025  
N    0.0000000    0.0000000    0.0000000  
C   -2.4346129    0.0013913   -0.4276292  
C   -3.4350111    0.0031335   -1.4820181  
O   -4.6384614    0.0030875   -1.2583914  
C   -2.9478961    0.0050442   -2.9661074  
O   -3.7809382    0.0062135   -3.8623773  
C   -1.5113825    0.0053055   -3.2312122  
H   -2.7664565    0.0000174    0.6013448  
H   -1.1823533    0.0068381   -4.2614848  
H    2.1104316    0.0009435   -0.3488059  
C    0.8681109    0.7263879    2.2709268  
C    0.6127770    0.5096195    3.5869401  
C   -0.4920590   -0.4175482    3.6542670  
C   -0.8620974   -0.7254003    2.2596025  
N    0.0000000    0.0000000    1.4700000  
C   -1.8641242   -1.5660088    1.8976294  
C   -2.6293522   -2.2103885    2.9520183  
O   -3.5512764   -2.9839180    2.7283916  
C   -2.2549728   -1.8987399    4.4361073  
O   -2.8923672   -2.4351063    5.3323774  
C   -1.1543735   -0.9755647    4.7012123  
H    1.1382914    0.9492124    4.4159191  
H   -2.1192137   -1.7782617    0.8686553  
H   -0.9013378   -0.7652422    5.7314848  
H    1.6172880    1.3558399    1.8188057  
