62

C    3.5911238    0.6198066   -8.7195421  
C    4.6769229   -0.2118766   -8.8672265  
C    5.0545609   -0.1634456  -10.2418702  
C    4.1554940    0.7220669  -10.8895365  
N    3.2787327    1.1783834   -9.9368149  
C    4.2307662    1.0108679  -12.2554501  
C    5.2320651    0.3947566  -12.9806980  
O    5.3512340    0.6415253  -14.3178288  
C    6.1384781   -0.4921475  -12.3525000  
O    7.0783942   -1.0257942  -13.2098920  
C    6.0646467   -0.7777309  -11.0050888  
H    5.1391674   -0.7840333   -8.0811225  
H    2.5328454    1.8304794  -10.0993094  
H    3.5485012    1.6847367  -12.7550688  
H    6.1026200    0.1184184  -14.6261201  
H    7.6506137   -1.6129835  -12.7065264  
H    6.7728911   -1.4613682  -10.5517592  
C    3.9300170   -0.7219423   -4.5190964  
C    2.8699641   -0.0020530   -4.0185824  
C    2.3084609    0.7252952   -5.1095815  
C    3.0740002    0.4064308   -6.2603207  
N    4.0515276   -0.4731893   -5.8662066  
C    2.8029521    0.9445741   -7.5219558  
C    1.7395403    1.8203317   -7.6238416  
O    1.4306801    2.3746758   -8.8322794  
C    0.9641565    2.1511174   -6.4871012  
O   -0.0597838    3.0371510   -6.7513650  
C    1.2311458    1.6208143   -5.2421026  
H    4.7407068   -0.8835869   -6.4700174  
H    0.6670876    2.9472680   -8.6828511  
H   -0.5337215    3.2075142   -5.9316315  
H    0.6198247    1.8929813   -4.3896416  
H    4.6099243   -1.3920559   -4.0214686  
C    3.2573670   -0.0002921   -1.5109382  
C    2.5379468   -0.0001711   -0.3591962  
C    1.1435043    0.0000330   -0.7338498  
C    1.1092608   -0.0000085   -2.2088474  
N    2.4227562    0.0001906   -2.6182610  
C   -0.0265533   -0.0002525   -2.9515663  
C   -1.3003033   -0.0002641   -2.2514979  
O   -2.3786785   -0.0004132   -2.8306425  
C   -1.2877724    0.0000310   -0.6895608  
O   -2.3539956    0.0003306   -0.0892035  
C    0.0000000    0.0000000    0.0000000  
H    2.9384091   -0.0000370    0.6389240  
H   -0.0296290   -0.0004088   -4.0327231  
H    4.3270394   -0.0004767   -1.6439445  
C    0.0000000    0.0000000    1.4700000  
C    1.0541688    0.0001722    2.3260392  
C    0.5103138    0.0000454    3.6635956  
C   -0.9576371   -0.0002459    3.5155732  
N   -1.2018458    0.0001392    2.1615969  
C   -1.8348311   -0.0008317    4.5510609  
C   -1.2972847   -0.0009736    5.9014604  
O   -2.0050672   -0.0014265    6.9001319  
C    0.2542623   -0.0004184    6.0817573  
O    0.7184670   -0.0002256    7.2139121  
C    1.0974552   -0.0000873    4.8889129  
H    2.0940752    0.0005483    2.0517982  
H   -2.9081052   -0.0011668    4.4207061  
H    2.1707277    0.0000911    5.0223670  
H   -2.1128194   -0.0014912    1.7406791  
