64

C   -1.1180135   -0.0436310   -0.8003807  
C    0.0000000    0.0000000    0.0000000  
C    1.1315913    0.0424375   -0.8673523  
C    0.6378742    0.0224545   -2.1969275  
N   -0.7317178   -0.0318680   -2.1202239  
C    1.4761149    0.0537859   -3.3154807  
C    2.8375494    0.1065525   -3.0876854  
O    3.7013018    0.1392769   -4.1440340  
C    3.3493858    0.1268524   -1.7684323  
O    4.7266338    0.1797431   -1.7073115  
C    2.5230409    0.0956930   -0.6644807  
H    1.1060887    0.0386502   -4.3313807  
H    4.5907234    0.1735922   -3.7685116  
H    4.9898317    0.1903315   -0.7819909  
H    2.9441224    0.1121683    0.3339668  
H   -2.1603703   -0.0836557   -0.5342067  
C   -1.6470194   -0.0530462   -3.2702999  
C   -3.0039752   -0.1037387   -3.2835865  
C   -3.4117310   -0.1032567   -4.6687112  
C   -2.1722102   -0.0477590   -5.4670213  
N   -1.1382938   -0.0189413   -4.5597863  
C   -2.1313287   -0.0311996   -6.8233984  
C   -3.3922984   -0.0704447   -7.5451667  
O   -3.4609091   -0.0594144   -8.7672433  
C   -4.7172631   -0.1291993   -6.7200472  
O   -5.7850311   -0.1622850   -7.3167359  
C   -4.6335813   -0.1425034   -5.2617358  
H   -3.6460173   -0.1374223   -2.4214607  
H   -1.2112846    0.0095736   -7.3897607  
H   -0.1641342    0.0187914   -4.7977707  
C   -6.1487489    0.4980521   -3.3380824  
C   -5.8866964   -0.1981948   -4.4952495  
C   -7.0507706   -0.9677123   -4.7908400  
C   -7.9983305   -0.6977541   -3.7704582  
N   -7.4178103    0.1945754   -2.9036472  
C   -9.2664069   -1.2858959   -3.7411396  
C   -9.5838201   -2.1622955   -4.7606248  
O  -10.8086100   -2.7643697   -4.7808474  
C   -8.6517234   -2.4447075   -5.7873953  
O   -9.1169764   -3.3380601   -6.7301591  
C   -7.4004547   -1.8650631   -5.8168067  
H   -7.8561787    0.5783628   -2.0860157  
H   -9.9930722   -1.0844229   -2.9661759  
H  -10.8226605   -3.3284458   -5.5649943  
H   -8.4272293   -3.4738173   -7.3869866  
H   -6.7076107   -2.1008559   -6.6160857  
H   -5.5302918    1.1860183   -2.7874713  
C    0.8676693    0.7151171    2.2619005  
C    0.5875920    0.4624972    3.5848544  
C   -0.5048400   -0.4542819    3.6114698  
C   -0.8517165   -0.7276451    2.2635546  
N    0.0000000    0.0000000    1.4700000  
C   -1.8902865   -1.5946756    1.9108239  
C   -2.5912627   -2.1969500    2.9375057  
O   -3.6148162   -3.0527051    2.6493466  
C   -2.2603868   -1.9365747    4.2886322  
O   -3.0513550   -2.6123276    5.1947621  
C   -1.2361111   -1.0811317    4.6373480  
H    1.1060808    0.8876438    4.4271209  
H   -2.1597133   -1.8070987    0.8854031  
H   -3.9636755   -3.3565188    3.4974381  
H   -2.7621927   -2.3810384    6.0827341  
H   -1.0058879   -0.9010589    5.6809233  
H    1.6167816    1.3499334    1.8205408  
