60

C    2.5762393   -5.3275294   -9.2095873  
C    2.2315655   -4.4050808   -8.2489840  
C    2.0915149   -3.1486267   -8.9095201  
C    2.3649503   -3.3681836  -10.2839124  
N    2.6574966   -4.7013399  -10.4313206  
C    2.3200896   -2.3459002  -11.2366521  
C    1.9929458   -1.0789527  -10.7939341  
O    1.9344063   -0.0441292  -11.6820372  
C    1.7171809   -0.8399045   -9.4265914  
O    1.4076213    0.4743911   -9.1434947  
C    1.7615142   -1.8478837   -8.4860921  
H    2.0986346   -4.6120793   -7.2009031  
H    2.8822596   -5.1536954  -11.2989814  
H    2.5275749   -2.5066922  -12.2856024  
H    1.6928443    0.7399991  -11.1720794  
H    1.2351804    0.5498127   -8.2000018  
H    2.7719430   -6.3823162   -9.1196789  
C    2.1451926   -2.0951771   -5.9900948  
C    1.6340471   -1.6323753   -4.8202147  
C    0.5538823   -0.7357923   -5.1581773  
C    0.4770632   -0.7140558   -6.6314107  
N    1.4686355   -1.5584201   -7.0749457  
C   -0.4180300    0.0158494   -7.3439773  
C   -1.3690899    0.8348540   -6.6110028  
O   -2.2145431    1.5279312   -7.1615954  
C   -1.3057475    0.8272853   -5.0503184  
O   -2.1011642    1.5130918   -4.4224310  
C   -0.2963293   -0.0005341   -4.3948471  
H    1.9749143   -1.8895633   -3.8331594  
H   -0.4575588    0.0175261   -8.4244138  
H    2.9593495   -2.7830349   -6.1509984  
C    3.1301146   -0.0010313   -1.7028256  
C    2.5367765   -0.0002766   -0.4864669  
C    1.1089901    0.0001027   -0.7656184  
C    1.0177865   -0.0004150   -2.2415133  
N    2.1993571   -0.0011612   -2.7963824  
C   -0.2459219   -0.0002879   -2.9257116  
C   -1.3675326   -0.0000606   -2.1698520  
O   -2.6129318    0.0000865   -2.6748483  
C   -1.3083588    0.0000910   -0.6783229  
O   -2.3693264    0.0004206   -0.0541685  
C    0.0000000    0.0000000    0.0000000  
H    3.0096016   -0.0001007    0.4807518  
H   -3.1967444    0.0002093   -1.8949026  
H    4.1849275   -0.0015114   -1.9271979  
C    2.5528530    2.1414826    2.8079335  
C    2.0663498    1.7338582    4.0032312  
C    0.9804344    0.8229586    3.6752840  
C    0.9495562    0.7966882    2.1971295  
N    1.8690446    1.5676019    1.6831036  
C    0.0000000    0.0000000    1.4700000  
C   -0.8785127   -0.7372425    2.1869543  
O   -1.8187535   -1.5261249    1.6395491  
C   -0.8723269   -0.7321790    3.6796354  
O   -1.7010379   -1.4274584    4.2670412  
C    0.1115397    0.0933559    4.4024240  
H    2.4028853    2.0163452    4.9860947  
H   -2.2861435   -1.9184361    2.3990168  
H    0.0832434    0.0693689    5.4835595  
H    3.3664920    2.8238276    2.6198634  
