62

C   -0.1508794   -1.1394618   -9.5555339  
C   -0.2848505   -0.0565842   -8.7177416  
C   -0.5460448    1.0778062   -9.5420811  
C   -0.5602524    0.6218892  -10.8851612  
N   -0.3150438   -0.7285679  -10.8576733  
C   -0.7897583    1.4730373  -11.9703638  
C   -1.0092156    2.8087098  -11.6946898  
O   -1.2388367    3.6835153  -12.7169435  
C   -0.9985619    3.2827608  -10.3612814  
O   -1.2329346    4.6378626  -10.2512295  
C   -0.7719469    2.4436996   -9.2902317  
H   -0.2755919   -1.3277421  -11.6622936  
H   -0.8017232    1.1318042  -12.9963341  
H   -1.3648487    4.5509756  -12.3108675  
H   -1.2088649    4.8759976   -9.3193953  
H   -0.7695529    2.8357001   -8.2798815  
H    0.0502084   -2.1721599   -9.3273741  
C    2.3446872   -2.1385757   -5.7825615  
C    1.7992131   -1.7303702   -6.9519228  
C    0.7308355   -0.8198481   -6.5697985  
C    0.7735875   -0.7944099   -5.0919255  
N    1.7176446   -1.5654466   -4.6247547  
C   -0.1387079    0.0017019   -4.3179684  
C   -1.0519385    0.7391882   -4.9898753  
O   -1.9638772    1.5275964   -4.3958873  
C   -1.1200789    0.7349605   -6.4810156  
O   -1.9771132    1.4304200   -7.0260375  
C   -0.1732951   -0.0899943   -7.2523616  
H    2.0864381   -2.0122473   -7.9504831  
H   -2.4685598    1.9202485   -5.1309198  
H    3.1667836   -2.8208805   -5.6356219  
C    3.3041273    0.0001178   -1.5420428  
C    2.5845373   -0.0004780   -0.3695851  
C    1.2040007   -0.0000007   -0.7283589  
C    1.1422374    0.0006038   -2.1454372  
N    2.4348641    0.0026111   -2.6077464  
C   -0.0655179    0.0008799   -2.8497918  
C   -1.2321766    0.0002325   -2.1101402  
O   -2.4392814    0.0001148   -2.7472522  
C   -1.1911209   -0.0000007   -0.6955266  
O   -2.4371528   -0.0002320   -0.1032862  
C    0.0000000    0.0000000    0.0000000  
H    3.0031533   -0.0000660    0.6222584  
H    2.7054631   -0.0071097   -3.5745261  
H   -3.1132988   -0.0000648   -2.0551787  
H   -2.3200282   -0.0004072    0.8516409  
H    4.3686625    0.0004073   -1.7024290  
C    2.5128556    2.1077716    2.9199648  
C    1.9592212    1.6432552    4.0696553  
C    0.8915788    0.7479214    3.6910360  
C    0.8684491    0.7287414    2.2159470  
N    1.8754542    1.5738793    1.8102719  
C    0.0000000    0.0000000    1.4700000  
C   -0.9772830   -0.8200135    2.1664417  
O   -1.8021297   -1.5120829    1.5842315  
C   -0.9711318   -0.8147624    3.7284083  
O   -1.7894187   -1.5009653    4.3257297  
C    0.0140216    0.0115358    4.4216297  
H    2.2638494    1.8988021    5.0689105  
H    0.0117648    0.0094386    5.5031631  
H    3.3327358    2.7953732    2.7900019  
H    2.1123206    1.7707734    0.8551938  
