62

C    2.9165045   -1.9447917   -7.4523808  
C    4.0124238   -2.7758565   -7.4799543  
C    4.5387203   -2.7270788   -8.8048062  
C    3.7157241   -1.8420026   -9.5472633  
N    2.7393758   -1.3862681   -8.6965773  
C    3.9403899   -1.5530242  -10.8966359  
C    5.0156295   -2.1685064  -11.5075514  
O    5.2807891   -1.9215389  -12.8234962  
C    5.8480674   -3.0549690  -10.7836394  
O    6.8767623   -3.5880076  -11.5326392  
C    5.6268629   -3.3407264   -9.4524978  
H    4.3858599   -3.3478338   -6.6478601  
H    2.0154797   -0.7345709   -8.9399828  
H    3.3167426   -0.8794854  -11.4681359  
H    6.0617831   -2.4441975  -13.0474214  
H    7.3905675   -4.1749281  -10.9694948  
H    6.2814225   -4.0240151   -8.9241549  
C    2.0818089   -2.1200044   -5.0693005  
C    2.0013922   -1.6205814   -6.3485880  
C    0.8747656   -0.7464879   -6.3842577  
C    0.3022093   -0.7523126   -5.0865395  
N    1.0583531   -1.5979708   -4.3134120  
C   -0.8287665    0.0000939   -4.7555305  
C   -1.3918307    0.7726860   -5.7526455  
O   -2.4970634    1.5271119   -5.4837281  
C   -0.8353006    0.7914352   -7.0536989  
O   -1.5105880    1.6099591   -7.9353731  
C    0.2802631    0.0492101   -7.3810303  
H    0.8985641   -1.7948531   -3.3419769  
H   -2.7238715    1.9817207   -6.3054054  
H   -1.0706020    1.5652576   -8.7897840  
H    0.6838978    0.0836194   -8.3862032  
H    2.7873943   -2.8084005   -4.6366113  
C    1.0672569   -0.0000698   -0.8321910  
C    0.0000000    0.0000000    0.0000000  
C   -1.1601223   -0.0000736   -0.8778472  
C   -0.5938729   -0.0000768   -2.2438435  
N    0.7113367   -0.0001553   -2.2234123  
C   -1.4286985   -0.0001877   -3.4135239  
C   -2.7683113   -0.0006798   -3.2270524  
O   -3.6653902   -0.0008302   -4.2276970  
C   -3.3702024   -0.0010610   -1.8610774  
O   -4.5974910   -0.0013779   -1.7662963  
C   -2.4926825   -0.0008943   -0.6770658  
H   -4.5324245   -0.0012258   -3.7833954  
H   -2.9677772   -0.0012974    0.2947961  
H    2.1134391   -0.0000547   -0.5705119  
C    2.4951002    2.0940188    2.9809380  
C    1.9440701    1.6314916    1.8291961  
C    0.8759964    0.7350050    2.2038498  
C    0.8497377    0.7130254    3.6788474  
N    1.8560616    1.5571714    4.0882609  
C   -0.0205033   -0.0168748    4.4215661  
C   -0.9962600   -0.8356168    3.7214979  
O   -1.8224391   -1.5286685    4.3006425  
C   -0.9864710   -0.8277881    2.1595606  
O   -1.8030528   -1.5133726    1.5592035  
C    0.0000000    0.0000000    1.4700000  
H    2.2509283    1.8888011    0.8310761  
H   -0.0229599   -0.0187323    5.5027230  
H    3.3143982    2.7817323    3.1139444  
H    2.0889452    1.7545833    5.0442112  
