60

C    7.6056390   -1.1048605   -4.6076342  
C    6.7792935   -0.0052810   -4.6309911  
C    7.5832794    1.1118723   -5.0053904  
C    8.9026794    0.6287121   -5.1994643  
N    8.8815641   -0.7206892   -4.9478933  
C    9.9636883    1.4574023   -5.5767209  
C    9.6876790    2.7982125   -5.7617212  
O   10.6867897    3.6518358   -6.1306640  
C    8.3777424    3.2993028   -5.5725423  
O    8.2641692    4.6561556   -5.7947919  
C    7.3306036    2.4824065   -5.2001082  
H    9.6719550   -1.3360742   -5.0154551  
H   10.9715621    1.0953559   -5.7260999  
H   10.2848633    4.5272664   -6.2037427  
H    7.3491198    4.9132207   -5.6457774  
H    6.3379264    2.8948837   -5.0625090  
H    7.3861351   -2.1325249   -4.3737903  
C    4.3939404   -2.1065671   -1.5664977  
C    5.4031210   -1.6413498   -2.3470119  
C    4.8103418   -0.7457939   -3.3121170  
C    3.3627144   -0.7272474   -3.0278282  
N    3.1757280   -1.5729268   -1.9588325  
C    2.4521483    0.0014840   -3.7217481  
C    2.9297304    0.8221548   -4.8221798  
O    2.1884029    1.5142697   -5.5075343  
C    4.4587975    0.8175813   -5.1411452  
O    4.8725556    1.5043408   -6.0654968  
C    5.3421068   -0.0087723   -4.3221481  
H    6.4439787   -1.8965723   -2.2570666  
H    4.4376455   -2.7945224   -0.7378255  
H    2.2909014   -1.7703225   -1.5285253  
C    0.0000000    0.0000000    0.0000000  
C    1.0662923   -0.0000101   -0.8334270  
C    0.4961873    0.0000065   -2.1718887  
C   -0.9663854   -0.0000848   -1.9540250  
N   -1.2632773   -0.0000083   -0.6828660  
C   -1.8985359   -0.0000514   -3.0477261  
C   -1.3925770    0.0004566   -4.3020547  
O   -2.1456378    0.0005414   -5.4151314  
C    0.0786240    0.0009326   -4.5545000  
O    0.4683767    0.0012591   -5.7221100  
C    1.0143171    0.0008444   -3.4159031  
H    2.1107200    0.0000633   -0.5721865  
H   -2.9622181   -0.0003268   -2.8593381  
H   -1.5042265    0.0009697   -6.1484419  
C    3.2573670    0.0002920    2.9809380  
C    2.5379467    0.0001709    1.8291961  
C    1.1435042   -0.0000331    2.2038498  
C    1.1092607    0.0000083    3.6788474  
N    2.4227561   -0.0001909    4.0882609  
C   -0.0265533    0.0002524    4.4215661  
C   -1.3003036    0.0002640    3.7214979  
O   -2.3786784    0.0004133    4.3006425  
C   -1.2877726   -0.0000311    2.1595606  
O   -2.3539958   -0.0003306    1.5592035  
C    0.0000000    0.0000000    1.4700000  
H    2.9384090    0.0000368    0.8310761  
H   -0.0296291    0.0004086    5.5027230  
H    4.3270393    0.0004765    3.1139444  
H    2.7280493    0.0013407    5.0442112  
