62

C    1.4493381   -2.9237792   -9.3911958  
C    2.1690529   -2.4551436  -10.4658387  
C    1.8888895   -1.0610818  -10.5785329  
C    0.9843602   -0.7327626   -9.5364384  
N    0.7368340   -1.8869591   -8.8355963  
C    0.4908844    0.5610108   -9.3429946  
C    0.9185486    1.5412663  -10.2172833  
O    0.4681901    2.8217247  -10.0736956  
C    1.8204504    1.2332297  -11.2634679  
O    2.1510278    2.3176339  -12.0496792  
C    2.3074747   -0.0429460  -11.4550651  
H    2.8155099   -3.0456754  -11.0922251  
H    0.1392053   -1.9612949   -8.0322943  
H    0.8835908    3.3377324  -10.7768616  
H    2.7631998    2.0238197  -12.7312372  
H    2.9971100   -0.2487581  -12.2653264  
H    1.3867569   -3.9158788   -8.9779404  
C    0.2653132   -0.7042848   -5.1440086  
C   -0.8287665    0.0000939   -4.7555305  
C   -1.2825954    0.7423468   -5.9078915  
C   -0.3566072    0.4102558   -7.0074602  
N    0.5584967   -0.4707817   -6.4790217  
C   -0.4467549    0.9099655   -8.2659785  
C   -1.5278135    1.8369015   -8.5569048  
O   -1.6939210    2.3415171   -9.6596613  
C   -2.5200358    2.2029120   -7.4074112  
O   -3.4339545    2.9824917   -7.6403703  
C   -2.3204910    1.5996617   -6.0920693  
H   -3.0119743    1.8581181   -5.3016423  
H    0.8822126   -1.3741500   -4.5672890  
H    1.3206155   -0.8824729   -6.9857086  
C    1.0672569   -0.0000698   -0.8321910  
C    0.0000000    0.0000000    0.0000000  
C   -1.1601223   -0.0000736   -0.8778472  
C   -0.5938729   -0.0000768   -2.2438435  
N    0.7113367   -0.0001553   -2.2234123  
C   -1.4286985   -0.0001877   -3.4135239  
C   -2.7683113   -0.0006798   -3.2270524  
O   -3.6653902   -0.0008302   -4.2276970  
C   -3.3702024   -0.0010610   -1.8610774  
O   -4.5974910   -0.0013779   -1.7662963  
C   -2.4926825   -0.0008943   -0.6770658  
H   -4.5324245   -0.0012258   -3.7833954  
H   -2.9677772   -0.0012974    0.2947961  
H    2.1134391   -0.0000547   -0.5705119  
C    2.5285572    2.1210227    2.9438989  
C    1.9331703    1.6216660    4.0790748  
C    0.8903039    0.7472258    3.6520102  
C    0.8972198    0.7527806    2.2336141  
N    1.9028376    1.5986179    1.8362361  
C    0.0000000    0.0000000    1.4700000  
C   -0.9207814   -0.7726952    2.1506477  
O   -1.8198395   -1.5274828    1.4542253  
C   -0.9436862   -0.7911793    3.5655508  
O   -1.9197945   -1.6098497    4.0950179  
C   -0.0590329   -0.0485852    4.3195194  
H    2.2150357    1.8593692    5.0905303  
H    2.1533708    1.7953814    0.8841339  
H   -2.3621246   -1.9821033    2.1118817  
H   -1.8668290   -1.5649508    5.0545920  
H   -0.1007624   -0.0827977    5.4019087  
H    3.3491200    2.8096064    2.8367138  
