62

C    3.5911238    0.6198066   -8.7195421  
C    4.6769229   -0.2118766   -8.8672265  
C    5.0545609   -0.1634456  -10.2418702  
C    4.1554940    0.7220669  -10.8895365  
N    3.2787327    1.1783834   -9.9368149  
C    4.2307662    1.0108679  -12.2554501  
C    5.2320651    0.3947566  -12.9806980  
O    5.3512340    0.6415253  -14.3178288  
C    6.1384781   -0.4921475  -12.3525000  
O    7.0783942   -1.0257942  -13.2098920  
C    6.0646467   -0.7777309  -11.0050888  
H    5.1391674   -0.7840333   -8.0811225  
H    2.5328454    1.8304794  -10.0993094  
H    3.5485012    1.6847367  -12.7550688  
H    6.1026200    0.1184184  -14.6261201  
H    7.6506137   -1.6129835  -12.7065264  
H    6.7728911   -1.4613682  -10.5517592  
C    3.9300170   -0.7219423   -4.5190964  
C    2.8699641   -0.0020530   -4.0185824  
C    2.3084609    0.7252952   -5.1095815  
C    3.0740002    0.4064308   -6.2603207  
N    4.0515276   -0.4731893   -5.8662066  
C    2.8029521    0.9445741   -7.5219558  
C    1.7395403    1.8203317   -7.6238416  
O    1.4306801    2.3746758   -8.8322794  
C    0.9641565    2.1511174   -6.4871012  
O   -0.0597838    3.0371510   -6.7513650  
C    1.2311458    1.6208143   -5.2421026  
H    4.7407068   -0.8835869   -6.4700174  
H    0.6670876    2.9472680   -8.6828511  
H   -0.5337215    3.2075142   -5.9316315  
H    0.6198247    1.8929813   -4.3896416  
H    4.6099243   -1.3920559   -4.0214686  
C    3.2573670   -0.0002921   -1.5109382  
C    2.5379468   -0.0001711   -0.3591962  
C    1.1435043    0.0000330   -0.7338498  
C    1.1092608   -0.0000085   -2.2088474  
N    2.4227562    0.0001906   -2.6182610  
C   -0.0265533   -0.0002525   -2.9515663  
C   -1.3003033   -0.0002641   -2.2514979  
O   -2.3786785   -0.0004132   -2.8306425  
C   -1.2877724    0.0000310   -0.6895608  
O   -2.3539956    0.0003306   -0.0892035  
C    0.0000000    0.0000000    0.0000000  
H    2.9384091   -0.0000370    0.6389240  
H   -0.0296290   -0.0004088   -4.0327231  
H    4.3270394   -0.0004767   -1.6439445  
C    0.8681109    0.7263879    2.2709268  
C    0.6127770    0.5096195    3.5869401  
C   -0.4920590   -0.4175482    3.6542670  
C   -0.8620974   -0.7254003    2.2596025  
N    0.0000000    0.0000000    1.4700000  
C   -1.8641242   -1.5660088    1.8976294  
C   -2.6293522   -2.2103885    2.9520183  
O   -3.5512764   -2.9839180    2.7283916  
C   -2.2549728   -1.8987399    4.4361073  
O   -2.8923672   -2.4351063    5.3323774  
C   -1.1543735   -0.9755647    4.7012123  
H    1.1382914    0.9492124    4.4159191  
H   -2.1192137   -1.7782617    0.8686553  
H   -0.9013378   -0.7652422    5.7314848  
H    1.6172880    1.3558399    1.8188057  
