62

C    2.9735223   -3.0445978   -4.5666655  
C    4.0378508   -3.6901144   -5.1523113  
C    4.6526185   -4.4833848   -4.1387120  
C    3.9133207   -4.2799674   -2.9454028  
N    2.9020794   -3.3994676   -3.2398980  
C    4.2372498   -4.9076030   -1.7387824  
C    5.3271692   -5.7562771   -1.7368375  
O    5.6873007   -6.3952568   -0.5857399  
C    6.0775023   -5.9718107   -2.9172452  
O    7.1335774   -6.8442165   -2.7530611  
C    5.7586758   -5.3527588   -4.1078974  
H    4.3352942   -3.5994453   -6.1829904  
H    2.2079646   -3.0748413   -2.5912046  
H    3.6778922   -4.7566584   -0.8257995  
H    6.4620681   -6.9304775   -0.8014736  
H    7.5875553   -6.9343703   -3.5964946  
H    6.3520862   -5.5372138   -4.9957701  
C    1.9999919   -2.1070888   -5.1447781  
C    1.9105660   -1.6426489   -6.4177171  
C    0.7784250   -0.7475268   -6.4606992  
C    0.2115578   -0.7283873   -5.0986833  
N    0.9973787   -1.5733444   -4.3494018  
C   -0.8712826    0.0001710   -4.7267111  
C   -1.5219800    0.8200163   -5.7351661  
O   -2.5037639    1.5119150   -5.4992064  
C   -0.9387708    0.8148048   -7.1841811  
O   -1.4783605    1.5008674   -8.0417489  
C    0.2330292   -0.0112898   -7.4640111  
H    2.5631029   -1.8981137   -7.2335281  
H    0.6307982   -0.0091663   -8.4697443  
H    0.8643847   -1.7702171   -3.3744140  
C    1.0965514    0.0001359   -0.8010305  
C    0.0000000    0.0000000    0.0000000  
C   -1.1546563    0.0001470   -0.8669513  
C   -0.6372014    0.0003519   -2.2486282  
N    0.7342871    0.0007337   -2.1395014  
C   -1.4147739    0.0001352   -3.3608717  
C   -2.8576049   -0.0001048   -3.1854462  
O   -3.6427779   -0.0002494   -4.1244907  
C   -3.4275840   -0.0000725   -1.7311666  
O   -4.6406831    0.0000333   -1.5710060  
C   -2.4891867   -0.0001091   -0.6116744  
H   -2.8919122   -0.0002918    0.3920866  
H    2.1388272    0.0000663   -0.5261648  
H    1.3735872   -0.0006099   -2.9130262  
C    2.5311839    2.1237619    3.0120429  
C    1.9795631    1.6616747    1.8395852  
C    0.9223175    0.7739173    2.1983588  
C    0.8753926    0.7337535    3.6154372  
N    1.8668922    1.5631002    4.0777464  
C   -0.0496243   -0.0427881    4.3197917  
C   -0.9437528   -0.7922060    3.5801400  
O   -1.8685244   -1.5680278    4.2172520  
C   -0.9124520   -0.7656372    2.1655264  
O   -1.8671164   -1.5663939    1.5732860  
C    0.0000000    0.0000000    1.4700000  
H    2.3005065    1.9304404    0.8477417  
H    2.0679347    1.7444845    5.0445261  
H   -0.0904770   -0.0778569    5.3997470  
H   -2.3849669   -2.0011402    3.5251786  
H   -1.7775064   -1.4909735    0.6183591  
H    3.3468514    2.8078103    3.1724291  
