64

C   -7.5383386    3.0583416   -0.0510129  
C   -7.0442469    1.8347555   -0.4398301  
C   -8.1172326    0.9005912   -0.3366849  
C   -9.2508896    1.6180387    0.1237695  
N   -8.8642288    2.9248816    0.2889139  
C  -10.4922492    1.0124585    0.3407660  
C  -10.5910678   -0.3419959    0.0880477  
O  -11.7800419   -0.9834124    0.2828268  
C   -9.4711509   -1.0751069   -0.3714627  
O   -9.7298172   -2.4146293   -0.5766824  
C   -8.2461407   -0.4783941   -0.5854961  
H   -9.4601796    3.6719720    0.5966172  
H  -11.3600679    1.5536655    0.6917460  
H  -11.6318984   -1.9094582    0.0509714  
H   -8.9223357   -2.8364198   -0.8859893  
H   -7.4062408   -1.0657754   -0.9376742  
H   -7.0494919    4.0154233    0.0120963  
C   -4.5382360    2.1274888   -0.3187873  
C   -3.4269602    1.6643337   -0.9843851  
C   -3.8900485    0.7769750   -2.0006252  
C   -5.3047950    0.7381443   -1.9062260  
N   -5.6653099    1.5678667   -0.8736534  
C   -6.0984770   -0.0376819   -2.7564911  
C   -5.4522278   -0.7877416   -3.7197929  
O   -6.1789766   -1.5629110   -4.5765087  
C   -4.0415022   -0.7625028   -3.8294926  
O   -3.5480072   -1.5637588   -4.8383504  
C   -3.2578655    0.0024282   -2.9908505  
H   -2.4078388    1.9321493   -0.7637973  
H   -7.1771659   -0.0717344   -2.6896155  
H   -5.5421683   -1.9966430   -5.1592751  
H   -2.5888327   -1.4892405   -4.8442645  
H   -4.6159715    2.8116400    0.5087713  
C    0.0000000    0.0000000    0.0000000  
C    1.0521666   -0.0011982   -0.8862343  
C    0.4917215   -0.0011996   -2.1979132  
C   -0.9187429    0.0003215   -2.0478682  
N   -1.1833171   -0.0009323   -0.7007913  
C   -1.7951703    0.0010483   -3.1372089  
C   -1.2375841    0.0005313   -4.4010422  
O   -2.0474218    0.0015510   -5.4997578  
C    0.1673576   -0.0013585   -4.5711963  
O    0.5673520   -0.0020735   -5.8915554  
C    1.0325768   -0.0023493   -3.4969892  
H    2.0953056   -0.0030808   -0.6200564  
H   -2.0989778    0.0102529   -0.2891822  
H   -1.4634888    0.0006601   -6.2693595  
H    1.5290707   -0.0033271   -5.9180047  
H    2.1042146   -0.0039770   -3.6584456  
C    0.0000000    0.0000000    1.4700000  
C    1.0541688    0.0001722    2.3260392  
C    0.5103138    0.0000454    3.6635956  
C   -0.9576371   -0.0002459    3.5155732  
N   -1.2018458    0.0001392    2.1615969  
C   -1.8348311   -0.0008317    4.5510609  
C   -1.2972847   -0.0009736    5.9014604  
O   -2.0050672   -0.0014265    6.9001319  
C    0.2542623   -0.0004184    6.0817573  
O    0.7184670   -0.0002256    7.2139121  
C    1.0974552   -0.0000873    4.8889129  
H    2.0940752    0.0005483    2.0517982  
H   -2.9081052   -0.0011668    4.4207061  
H    2.1707277    0.0000911    5.0223670  
H   -2.1128194   -0.0014912    1.7406791  
