62

C   -6.3473987    1.0653354   -0.9841112  
C   -6.2017241    1.9509836    0.0584206  
C   -7.5071698    2.2060831    0.5735274  
C   -8.4169264    1.4415839   -0.2009474  
N   -7.6798831    0.7622752   -1.1389908  
C   -9.7962406    1.4482679    0.0276063  
C  -10.2656820    2.2409182    1.0569304  
O  -11.6035851    2.2843481    1.3236543  
C   -9.3737719    3.0111381    1.8405592  
O   -9.9953452    3.7484968    2.8271145  
C   -8.0129529    3.0052391    1.6154768  
H   -5.2693728    2.3633872    0.4043075  
H   -8.0531874    0.1302151   -1.8239181  
H  -10.4949103    0.8679762   -0.5591854  
H  -11.7139490    2.8891455    2.0688427  
H   -9.3228396    4.2390427    3.3095095  
H   -7.3544538    3.6057732    2.2320934  
C   -3.9847105    0.7177365   -1.8071031  
C   -3.3460097   -0.0004262   -2.7913647  
C   -4.3510980   -0.7290151   -3.4938998  
C   -5.5942328   -0.4126521   -2.8885434  
N   -5.3355655    0.4667359   -1.8665917  
C   -6.8075073   -0.9525625   -3.3258650  
C   -6.7651063   -1.8275481   -4.3939383  
O   -7.9205863   -2.3835412   -4.8616456  
C   -5.5345121   -2.1558461   -5.0109271  
O   -5.6582866   -3.0414001   -6.0615542  
C   -4.3371704   -1.6237987   -4.5798522  
H   -7.7583065   -0.7155807   -2.8686758  
H   -7.6696378   -2.9552252   -5.5988473  
H   -4.7823576   -3.2100442   -6.4219862  
H   -3.4103029   -1.8940740   -5.0721396  
H   -3.5833884    1.3880434   -1.0664358  
C    0.0000000    0.0000000    0.0000000  
C    1.0662919   -0.0000103   -0.8334272  
C    0.4961868    0.0000066   -2.1718889  
C   -0.9663860   -0.0000849   -1.9540248  
N   -1.2632775   -0.0000084   -0.6828659  
C   -1.8985364   -0.0000515   -3.0477258  
C   -1.3925778    0.0004567   -4.3020543  
O   -2.1456385    0.0005412   -5.4151314  
C    0.0786229    0.0009326   -4.5544999  
O    0.4683756    0.0012594   -5.7221104  
C    1.0143162    0.0008443   -3.4159034  
H    2.1107195    0.0000631   -0.5721869  
H   -1.5042277    0.0009692   -6.1484420  
H    2.0724151    0.0013151   -3.6409746  
C    1.0965515   -0.0001358    2.2710304  
C    0.0000000    0.0000000    1.4700000  
C   -1.1546562   -0.0001469    2.3369512  
C   -0.6372014   -0.0003519    3.7186280  
N    0.7342871   -0.0007337    3.6095011  
C   -1.4147739   -0.0001353    4.8308716  
C   -2.8576048    0.0001048    4.6554461  
O   -3.6427778    0.0002493    5.5944904  
C   -3.4275839    0.0000726    3.2011665  
O   -4.6406829   -0.0000333    3.0410059  
C   -2.4891866    0.0001091    2.0816745  
H   -1.0150448   -0.0001615    5.8354244  
H   -2.8919121    0.0002919    1.0779135  
H    2.1388271   -0.0000662    1.9961646  
H    1.3735872    0.0006099    4.3830260  
