60

C   -9.2236937    3.0271308   -1.4405511  
C   -8.0676345    2.3447879   -1.7412225  
C   -8.4281338    0.9776254   -1.9296582  
C   -9.8293585    0.8853092   -1.7297277  
N  -10.2806584    2.1472956   -1.4325118  
C  -10.5308281   -0.3193750   -1.8368030  
C   -9.8045847   -1.4514368   -2.1517374  
O  -10.4396282   -2.6539216   -2.2690550  
C   -8.4058285   -1.3796262   -2.3545729  
O   -7.8256032   -2.5931694   -2.6611594  
C   -7.7131165   -0.1915623   -2.2488359  
H   -7.0851709    2.7788217   -1.8145117  
H  -11.2368152    2.3939637   -1.2511282  
H  -11.5987090   -0.3964163   -1.6854823  
H   -9.7582654   -3.3021174   -2.4900806  
H   -6.8810043   -2.4566674   -2.7824189  
H   -9.3777089    4.0715531   -1.2297887  
C   -4.6051151    2.0113810   -0.1334484  
C   -3.4864975    1.6298262   -0.7927588  
C   -3.9518793    0.7119509   -1.8210703  
C   -5.4173875    0.6533628   -1.6328199  
N   -5.8061459    1.4130851   -0.6450558  
C   -6.2597398   -0.1589839   -2.4668592  
C   -5.6651263   -0.8797267   -3.4447650  
O   -6.3285769   -1.6802773   -4.2962297  
C   -4.1885397   -0.8414367   -3.6601392  
O   -3.7155084   -1.5233211   -4.5692574  
C   -3.3460097   -0.0004262   -2.7913647  
H   -2.4709784    1.9337813   -0.6045895  
H   -5.6384844   -2.0553379   -4.8726450  
H   -4.6853284    2.6895276    0.7012110  
C    0.0000000    0.0000000    0.0000000  
C    1.0662919   -0.0000103   -0.8334272  
C    0.4961868    0.0000066   -2.1718889  
C   -0.9663860   -0.0000849   -1.9540248  
N   -1.2632775   -0.0000084   -0.6828659  
C   -1.8985364   -0.0000515   -3.0477258  
C   -1.3925778    0.0004567   -4.3020543  
O   -2.1456385    0.0005412   -5.4151314  
C    0.0786229    0.0009326   -4.5544999  
O    0.4683756    0.0012594   -5.7221104  
C    1.0143162    0.0008443   -3.4159034  
H    2.1107195    0.0000631   -0.5721869  
H   -1.5042277    0.0009692   -6.1484420  
H    2.0724151    0.0013151   -3.6409746  
C    1.1319247   -0.0015655    2.2709268  
C    0.7969915   -0.0034943    3.5869401  
C   -0.6453339   -0.0035710    3.6542670  
C   -1.1266833   -0.0015433    2.2596025  
N    0.0000000    0.0000000    1.4700000  
C   -2.4346130   -0.0013964    1.8976294  
C   -3.4350110   -0.0031408    2.9520183  
O   -4.6384611   -0.0030974    2.7283916  
C   -2.9478959   -0.0050506    4.4361073  
O   -3.7809380   -0.0062218    5.3323774  
C   -1.5113823   -0.0053090    4.7012123  
H    1.4821238   -0.0045407    4.4159191  
H   -2.7664565   -0.0000232    0.8686553  
H   -1.1823530   -0.0068408    5.7314848  
H    2.1104316   -0.0009391    1.8188057  
