62

C    0.0000000    0.0000000    0.0000000  
C    1.0521663   -0.0011985   -0.8862346  
C    0.4917215   -0.0011999   -2.1979134  
C   -0.9187428    0.0003217   -2.0478684  
N   -1.1833171   -0.0009320   -0.7007913  
C   -1.7951702    0.0010485   -3.1372091  
C   -1.2375839    0.0005316   -4.4010427  
O   -2.0474214    0.0015510   -5.4997580  
C    0.1673579   -0.0013586   -4.5711965  
O    0.5673522   -0.0020741   -5.8915554  
C    1.0325770   -0.0023497   -3.4969894  
H    2.0953053   -0.0030813   -0.6200564  
H   -2.0989774    0.0102535   -0.2891825  
H   -1.4634888    0.0006605   -6.2693593  
H    1.5290702   -0.0033279   -5.9180048  
H    2.1042143   -0.0039778   -3.6584458  
C   -4.4484545    2.1114145   -0.3461923  
C   -5.6479905    1.6480102   -0.7825920  
C   -5.3783926    0.7523835   -1.8825943  
C   -3.9129544    0.7318199   -2.0524736  
N   -3.4082397    1.5765178   -1.0908926  
C   -3.2578654    0.0024289   -2.9908507  
C   -4.0489190   -0.8168734   -3.8939084  
O   -3.5523770   -1.5094411   -4.7725990  
C   -5.6025063   -0.8101561   -3.7322732  
O   -6.2789761   -1.4957501   -4.4869983  
C   -6.1934210    0.0167354   -2.6830244  
H   -6.6117099    1.9044774   -0.3799969  
H   -4.2368607    2.7988459    0.4566501  
H   -2.4341395    1.7725013   -0.9503009  
C   -8.4676150    1.0654576   -2.2739437  
C   -7.6564187    0.0152654   -2.5397186  
C   -8.5486106   -1.1280641   -2.6550002  
C   -9.8990606   -0.5717989   -2.4238332  
N   -9.8578979    0.7135785   -2.2000028  
C  -11.0765069   -1.3950682   -2.4544008  
C  -10.9123568   -2.7140193   -2.7049149  
O  -11.9225700   -3.5984185   -2.7627747  
C   -9.5625337   -3.3053169   -2.9426256  
O   -9.4878269   -4.5137752   -3.1645888  
C   -8.3701369   -2.4399984   -2.9060111  
H  -12.0509306   -0.9619380   -2.2817560  
H  -11.4942642   -4.4517429   -2.9565380  
H   -7.4105288   -2.9068199   -3.0833771  
H   -8.1904794    2.0959755   -2.1183712  
C    3.3003543   -0.0005276    2.9438989  
C    2.5232812   -0.0003497    4.0790748  
C    1.1623199    0.0001319    3.6520102  
C    1.1711883   -0.0000583    2.2336141  
N    2.4852299    0.0014920    1.8362361  
C    0.0000000    0.0000000    1.4700000  
C   -1.2020384   -0.0000520    2.1506477  
O   -2.3759250   -0.0003494    1.4542253  
C   -1.2314658    0.0005113    3.5655508  
O   -2.5054393    0.0008037    4.0950179  
C   -0.0764518    0.0007272    4.3195194  
H    2.8919952    0.0005619    5.0905303  
H    2.8036267   -0.0088181    0.8841339  
H   -3.0835639   -0.0000348    2.1118817  
H   -2.4360050    0.0011527    5.0545920  
H   -0.1304098    0.0013421    5.4019087  
H    4.3715549   -0.0004895    2.8367138  
