62

C    1.5397912   -1.0425190   -7.2812474  
C    2.5321990   -1.9270494   -6.9274103  
C    3.3174969   -2.1606064   -8.0950397  
C    2.7518946   -1.3847242   -9.1390831  
N    1.6730723   -0.7196498   -8.6114131  
C    3.2716572   -1.3696581  -10.4369305  
C    4.3828127   -2.1518590  -10.6852721  
O    4.9311826   -2.1740483  -11.9349971  
C    4.9612263   -2.9331607   -9.6567669  
O    6.0629697   -3.6578891  -10.0620757  
C    4.4488348   -2.9487188   -8.3762445  
H    2.6721630   -2.3525522   -5.9484564  
H    1.0804348   -0.0840961   -9.1142381  
H    2.8451307   -0.7805989  -11.2371095  
H    5.6864734   -2.7747778  -11.8911256  
H    6.3926011   -4.1571384   -9.3086188  
H    4.9132521   -3.5573129   -7.6091680  
C    0.2278214   -0.7147623   -5.1416686  
C    0.4566679   -0.4621634   -6.4744438  
C   -0.5486864    0.4544090   -6.9031137  
C   -1.3693886    0.7276736   -5.7789694  
N   -0.8712826    0.0001710   -4.7267111  
C   -2.4649412    1.5944984   -5.8352558  
C   -2.7367724    2.1966648   -7.0483844  
O   -3.7944971    3.0522187   -7.1591144  
C   -1.9297523    1.9363850   -8.1814286  
O   -2.3297834    2.6120097   -9.3158228  
C   -0.8489678    1.0811449   -8.1266972  
H   -3.0944368    1.8068453   -4.9821170  
H   -3.8051349    3.3559867   -8.0761081  
H   -1.7327643    2.3807971  -10.0339552  
H   -0.2491914    0.9011411   -9.0112001  
H    0.7607905   -1.3494470   -4.4545893  
C    1.0965514    0.0001359   -0.8010305  
C    0.0000000    0.0000000    0.0000000  
C   -1.1546563    0.0001470   -0.8669513  
C   -0.6372014    0.0003519   -2.2486282  
N    0.7342871    0.0007337   -2.1395014  
C   -1.4147739    0.0001352   -3.3608717  
C   -2.8576049   -0.0001048   -3.1854462  
O   -3.6427779   -0.0002494   -4.1244907  
C   -3.4275840   -0.0000725   -1.7311666  
O   -4.6406831    0.0000333   -1.5710060  
C   -2.4891867   -0.0001091   -0.6116744  
H   -2.8919122   -0.0002918    0.3920866  
H    2.1388272    0.0000663   -0.5261648  
H    1.3735872   -0.0006099   -2.9130262  
C    0.8175213    0.6860729    2.3021913  
C    0.0000000    0.0000000    1.4700000  
C   -0.8887526   -0.7456559    2.3478473  
C   -0.4549825   -0.3816753    3.7138435  
N    0.5448156    0.4573574    3.6934124  
C   -1.0945674   -0.9182058    4.8835240  
C   -2.1210866   -1.7789155    4.6970523  
O   -2.8083856   -2.3554314    5.6976972  
C   -2.5824069   -2.1655116    3.3310774  
O   -3.5227682   -2.9541547    3.2362962  
C   -1.9100805   -1.6015804    2.1470656  
H   -0.7567140   -0.6349833    5.8697035  
H   -3.4728268   -2.9124471    5.2533954  
H   -2.2742832   -1.9066565    1.1752040  
H    1.6189533    1.3585343    2.0405121  
