62

C    9.1408954   -0.0023554    0.7141667  
C    9.7649386   -0.0041690    1.9401498  
C   11.1696403   -0.0042822    1.6923323  
C   11.3439339   -0.0021919    0.2846591  
N   10.0921788   -0.0030139   -0.2790138  
C   12.6038923   -0.0014031   -0.3213878  
C   13.7080166   -0.0024419    0.5087255  
O   14.9619755   -0.0013875   -0.0303429  
C   13.5545582   -0.0049034    1.9155878  
O   14.7495295   -0.0060950    2.6050703  
C   12.3118853   -0.0059561    2.5141575  
H    9.2687487   -0.0063794    2.8955476  
H    9.8993441    0.0086182   -1.2642349  
H   12.7434678    0.0000444   -1.3936373  
H   15.5788050   -0.0026883    0.7131529  
H   14.5568151   -0.0077182    3.5476529  
H   12.2256755   -0.0080280    3.5944549  
C    6.6801374   -0.0033359    1.2661377  
C    7.7093289   -0.0019929    0.3802267  
C    7.1273474   -0.0004470   -0.9411859  
C    5.6642446   -0.0009741   -0.7511363  
N    5.4589565   -0.0031397    0.6092836  
C    4.7577216    0.0005129   -1.7610467  
C    5.2563291    0.0025580   -3.1263019  
O    4.5202037    0.0039399   -4.1042686  
C    6.8020686    0.0028974   -3.3510097  
O    7.2336221    0.0043060   -4.4960075  
C    7.6791157    0.0014558   -2.1828322  
H    8.7481212    0.0019070   -2.3470034  
H    6.7110430   -0.0046693    2.3436031  
H    4.5604252   -0.0024244    1.0561485  
C    3.3041270    0.0001177   -1.5420435  
C    2.5845370   -0.0004780   -0.3695856  
C    1.2040004   -0.0000007   -0.7283590  
C    1.1422370    0.0006038   -2.1454373  
N    2.4348634    0.0026110   -2.6077469  
C   -0.0655187    0.0008799   -2.8497918  
C   -1.2321769    0.0002326   -2.1101398  
O   -2.4392822    0.0001149   -2.7472517  
C   -1.1911211   -0.0000007   -0.6955263  
O   -2.4371526   -0.0002319   -0.1032858  
C    0.0000000    0.0000000    0.0000000  
H    3.0031534   -0.0000661    0.6222578  
H    2.7054623   -0.0071098   -3.5745266  
H   -0.1193555    0.0014846   -3.9297472  
H   -3.1132992   -0.0000646   -2.0551783  
H   -2.3200279   -0.0004070    0.8516411  
C    2.4951002    2.0940188    2.9809380  
C    1.9440701    1.6314916    1.8291961  
C    0.8759964    0.7350050    2.2038498  
C    0.8497377    0.7130254    3.6788474  
N    1.8560616    1.5571714    4.0882609  
C   -0.0205033   -0.0168748    4.4215661  
C   -0.9962600   -0.8356168    3.7214979  
O   -1.8224391   -1.5286685    4.3006425  
C   -0.9864710   -0.8277881    2.1595606  
O   -1.8030528   -1.5133726    1.5592035  
C    0.0000000    0.0000000    1.4700000  
H    2.2509283    1.8888011    0.8310761  
H   -0.0229599   -0.0187323    5.5027230  
H    3.3143982    2.7817323    3.1139444  
H    2.0889452    1.7545833    5.0442112  
