60

C    2.6563300   -1.8456645   -7.6481052  
C    3.7541162   -2.6648887   -7.7754000  
C    4.1818975   -2.5797891   -9.1334723  
C    3.2996531   -1.6857790   -9.7924990  
N    2.3842772   -1.2598884   -8.8622729  
C    3.4228517   -1.3629875  -11.1472746  
C    4.4556657   -1.9532156  -11.8494871  
O    4.6220345   -1.6728021  -13.1748939  
C    5.3459847   -2.8480820  -11.2096722  
O    6.3216236   -3.3531165  -12.0441865  
C    5.2248812   -3.1671917   -9.8732484  
H    4.1919808   -3.2524864   -6.9867326  
H    1.6392081   -0.6099058   -9.0365592  
H    2.7536355   -0.6824713  -11.6554574  
H    5.3888774   -2.1822511  -13.4676036  
H    6.8799720   -3.9479416  -11.5342509  
H    5.9218563   -3.8561335   -9.4105790  
C    2.0060354   -2.0933382   -5.2079950  
C    1.0681400   -1.6309435   -4.3416125  
C    0.2140993   -0.7346500   -5.0846522  
C    0.7350362   -0.7126396   -6.4648439  
N    1.8215800   -1.5565849   -6.4731475  
C    0.2009231    0.0171137   -7.4767177  
C   -0.9646761    0.8356538   -7.1870525  
O   -1.5183198    1.5285630   -8.0306496  
C   -1.5330617    0.8277888   -5.7321706  
O   -2.5138750    1.5132041   -5.4762944  
C   -0.8712826    0.0001710   -4.7267111  
H    0.9842756   -1.8882191   -3.3007521  
H    0.5983679    0.0189970   -8.4821750  
H    2.8165825   -2.7808929   -5.0286314  
C    1.0965514    0.0001359   -0.8010305  
C    0.0000000    0.0000000    0.0000000  
C   -1.1546563    0.0001470   -0.8669513  
C   -0.6372014    0.0003519   -2.2486282  
N    0.7342871    0.0007337   -2.1395014  
C   -1.4147739    0.0001352   -3.3608717  
C   -2.8576049   -0.0001048   -3.1854462  
O   -3.6427779   -0.0002494   -4.1244907  
C   -3.4275840   -0.0000725   -1.7311666  
O   -4.6406831    0.0000333   -1.5710060  
C   -2.4891867   -0.0001091   -0.6116744  
H   -2.8919122   -0.0002918    0.3920866  
H    2.1388272    0.0000663   -0.5261648  
H    1.3735872   -0.0006099   -2.9130262  
C    0.0000000    0.0000000    1.4700000  
C    1.0541688    0.0001722    2.3260392  
C    0.5103138    0.0000454    3.6635956  
C   -0.9576371   -0.0002459    3.5155732  
N   -1.2018458    0.0001392    2.1615969  
C   -1.8348311   -0.0008317    4.5510609  
C   -1.2972847   -0.0009736    5.9014604  
O   -2.0050672   -0.0014265    6.9001319  
C    0.2542623   -0.0004184    6.0817573  
O    0.7184670   -0.0002256    7.2139121  
C    1.0974552   -0.0000873    4.8889129  
H    2.0940752    0.0005483    2.0517982  
H   -2.9081052   -0.0011668    4.4207061  
H    2.1707277    0.0000911    5.0223670  
H   -2.1128194   -0.0014912    1.7406791  
