60

C    0.2914229    0.0049628   -8.8402516  
C    1.3278998   -0.6688445   -9.4437140  
C    1.3145292   -0.3044372  -10.8227099  
C    0.2387591    0.6022437  -11.0031965  
N   -0.3626010    0.7667109   -9.7801147  
C   -0.0724149    1.1694351  -12.2426536  
C    0.7169586    0.8151137  -13.3194661  
O    0.4574876    1.3397871  -14.5525138  
C    1.7945413   -0.0882344  -13.1594854  
O    2.4856442   -0.3412880  -14.3263995  
C    2.1019329   -0.6483780  -11.9370817  
H    2.0090576   -1.3412463   -8.9508722  
H   -1.1497070    1.3620803   -9.5957754  
H   -0.8910620    1.8609764  -12.3868423  
H    1.1165232    0.9665959  -15.1522347  
H    3.1960935   -0.9599248  -14.1310681  
H    2.9333309   -1.3374552  -11.8452788  
C    1.7704314   -2.0997834   -5.2515180  
C    1.5928583   -1.6333171   -6.5144322  
C    0.4607459   -0.7379013   -6.4771945  
C   -0.0100423   -0.7207978   -5.0790327  
N    0.8257126   -1.5670941   -4.3875221  
C   -1.0641734    0.0073898   -4.6315339  
C   -1.7831600    0.8289562   -5.5910244  
O   -2.7459474    1.5206786   -5.2862925  
C   -1.3021138    0.8259146   -7.0770896  
O   -1.8998116    1.5134379   -7.8939923  
C   -0.1528623    0.0000279   -7.4390070  
H    2.1870132   -1.8876247   -7.3740374  
H    2.5118287   -2.7880443   -4.8793388  
H    0.7607706   -1.7654786   -3.4059556  
C    1.1319248    0.0015675   -0.8009270  
C    0.7969916    0.0034959   -2.1169404  
C   -0.6453336    0.0035703   -2.1842672  
C   -1.1266831    0.0015415   -0.7896027  
N    0.0000000    0.0000000    0.0000000  
C   -2.4346129    0.0013924   -0.4276297  
C   -3.4350110    0.0031352   -1.4820184  
O   -4.6384610    0.0030897   -1.2583919  
C   -2.9478958    0.0050460   -2.9661075  
O   -3.7809377    0.0062160   -3.8623775  
C   -1.5113821    0.0053068   -3.2312125  
H    1.4821240    0.0045436   -2.9459192  
H   -2.7664565    0.0000185    0.6013447  
H    2.1104318    0.0009428   -0.3488058  
C    2.4951002    2.0940188    2.9809380  
C    1.9440701    1.6314916    1.8291961  
C    0.8759964    0.7350050    2.2038498  
C    0.8497377    0.7130254    3.6788474  
N    1.8560616    1.5571714    4.0882609  
C   -0.0205033   -0.0168748    4.4215661  
C   -0.9962600   -0.8356168    3.7214979  
O   -1.8224391   -1.5286685    4.3006425  
C   -0.9864710   -0.8277881    2.1595606  
O   -1.8030528   -1.5133726    1.5592035  
C    0.0000000    0.0000000    1.4700000  
H    2.2509283    1.8888011    0.8310761  
H   -0.0229599   -0.0187323    5.5027230  
H    3.3143982    2.7817323    3.1139444  
H    2.0889452    1.7545833    5.0442112  
