60

C    7.3320482   -4.2325137   -0.5366796  
C    8.4247181   -4.8949742   -1.0462733  
C    8.5403861   -4.5149655   -2.4162420  
C    7.4817874   -3.6108995   -2.6881971  
N    6.7661531   -3.4629289   -1.5260479  
C    7.2866707   -3.0309821   -3.9453423  
C    8.1765915   -3.3696528   -4.9461020  
O    8.0325623   -2.8321022   -6.1924200  
C    9.2389250   -4.2701453   -4.6943532  
O   10.0390339   -4.5069509   -5.7930303  
C    9.4318572   -4.8428375   -3.4544637  
H    9.0595883   -5.5700195   -0.4983243  
H    5.9619348   -2.8730664   -1.4108248  
H    8.7475413   -3.1956253   -6.7308628  
H   10.7310214   -5.1247261   -5.5378577  
H   10.2544505   -5.5293522   -3.2916273  
H    6.9107435   -4.2491922    0.4538669  
C    6.1923725   -2.0934462   -4.2359241  
C    5.2191576   -1.6310076   -3.4094377  
C    4.3967566   -0.7348789   -4.1875411  
C    4.9747503   -0.7130124   -5.5448313  
N    6.0607559   -1.5568755   -5.5077373  
C    4.4832122    0.0165649   -6.5781802  
C    3.3064976    0.8350543   -6.3374472  
O    2.7884368    1.5278086   -7.2034755  
C    2.6779832    0.8273398   -4.9075117  
O    1.6873114    1.5127139   -4.6928198  
C    3.2973506   -0.0000934   -3.8752374  
H    5.0920136   -1.8881512   -2.3729409  
H    4.9222071    0.0183449   -7.5662034  
H    6.6635521   -1.7542833   -6.2853714  
C    3.3321174    0.0004714   -1.3379332  
C    2.6974186    0.0000115   -2.5332308  
C    1.2800441   -0.0002119   -2.2052838  
C    1.2395035    0.0000643   -0.7271293  
N    2.4394063    0.0005458   -0.2131034  
C    0.0000000    0.0000000    0.0000000  
C   -1.1468701    0.0000634   -0.7169542  
O   -2.3742201    0.0000072   -0.1695492  
C   -1.1388767    0.0001606   -2.2096354  
O   -2.2206229    0.0000903   -2.7970413  
C    0.1454526    0.0001815   -2.9324239  
H   -2.9844344    0.0001023   -0.9290168  
H    0.1083580    0.0003680   -4.0135594  
H    4.3940040    0.0007617   -1.1498630  
C    2.5128556    2.1077716    2.9199648  
C    1.9592212    1.6432552    4.0696553  
C    0.8915788    0.7479214    3.6910360  
C    0.8684491    0.7287414    2.2159470  
N    1.8754542    1.5738793    1.8102719  
C    0.0000000    0.0000000    1.4700000  
C   -0.9772830   -0.8200135    2.1664417  
O   -1.8021297   -1.5120829    1.5842315  
C   -0.9711318   -0.8147624    3.7284083  
O   -1.7894187   -1.5009653    4.3257297  
C    0.0140216    0.0115358    4.4216297  
H    2.2638494    1.8988021    5.0689105  
H    0.0117648    0.0094386    5.5031631  
H    3.3327358    2.7953732    2.7900019  
H    2.1123206    1.7707734    0.8551938  
