64

C   -0.0225271   -0.9831640   -9.5612126  
C   -0.1581093    0.0916584   -8.7133673  
C   -0.4144157    1.2344709   -9.5275462  
C   -0.4241187    0.7917562  -10.8750758  
N   -0.1810437   -0.5592808  -10.8598829  
C   -0.6481540    1.6538472  -11.9527555  
C   -0.8666711    2.9870905  -11.6648500  
O   -1.0910294    3.8722212  -12.6793548  
C   -0.8604574    3.4480383  -10.3268277  
O   -1.0932209    4.8023558  -10.2043990  
C   -0.6392403    2.5981769   -9.2631900  
H   -0.1393825   -1.1506032  -11.6701806  
H   -0.6566674    1.3227007  -12.9820625  
H   -1.2173079    4.7358543  -12.2652827  
H   -1.0723941    5.0313128   -9.2701885  
H   -0.6401612    2.9802560   -8.2490435  
H    0.1761289   -2.0183558   -9.3424152  
C    2.5715460   -2.1234228   -6.0298477  
C    2.0605229   -1.6614591   -4.8390866  
C    0.9917285   -0.7734885   -5.1612467  
C    0.8962444   -0.7330736   -6.5758760  
N    1.8711847   -1.5624824   -7.0720513  
C   -0.0522657    0.0437219   -7.2479663  
C   -0.9203935    0.7931399   -6.4779637  
O   -1.8663528    1.5692039   -7.0828604  
C   -0.8406070    0.7663227   -5.0652602  
O   -1.7742823    1.5671138   -4.4404977  
C    0.0950446    0.0004351   -4.4015596  
H    2.4152486   -1.9304417   -3.8588769  
H    2.0389303   -1.7437287   -8.0451867  
H   -2.3586956    2.0022709   -6.3734118  
H   -1.6519910    1.4915158   -3.4892176  
H    3.3811320   -2.8075600   -6.2182240  
C    3.3321173    0.0004713   -1.3379338  
C    2.6974181    0.0000116   -2.5332314  
C    1.2800438   -0.0002119   -2.2052841  
C    1.2395034    0.0000643   -0.7271299  
N    2.4394062    0.0005460   -0.2131038  
C    0.0000000    0.0000000    0.0000000  
C   -1.1468702    0.0000634   -0.7169543  
O   -2.3742203    0.0000074   -0.1695487  
C   -1.1388770    0.0001607   -2.2096355  
O   -2.2206234    0.0000905   -2.7970411  
C    0.1454522    0.0001815   -2.9324241  
H    3.1367984   -0.0000653   -3.5160950  
H   -2.9844346    0.0001026   -0.9290167  
H    4.3940038    0.0007618   -1.1498640  
C    0.8576279    0.7185626    2.2703808  
C    0.0000000    0.0000000    1.4700000  
C   -0.8668858   -0.7285659    2.3373528  
C   -0.4876752   -0.4117774    3.6669281  
N    0.5635254    0.4678311    3.5902241  
C   -1.1297612   -0.9515493    4.7854808  
C   -2.1738724   -1.8268314    4.5576857  
O   -2.8357962   -2.3827064    5.6140350  
C   -2.5667212   -2.1555554    3.2384331  
O   -3.6226318   -3.0413663    3.1773122  
C   -1.9335634   -1.6236449    2.1344818  
H    1.0363952    0.8769718    4.3757045  
H   -0.8454472   -0.7142436    5.8013813  
H   -3.5178062   -2.9546422    5.2385129  
H   -3.8247440   -3.2102924    2.2519915  
H   -2.2566033   -1.8942483    1.1360343  
H    1.6567807    1.3889844    2.0042067  
