62

C    9.8724075   -0.0003134    4.3861296  
C    9.1494840    0.0000996    3.2157243  
C    7.7699747   -0.0004933    3.5784247  
C    7.7122439   -0.0009767    4.9956734  
N    9.0061813   -0.0028037    5.4543031  
C    6.5064977   -0.0013187    5.7034615  
C    5.3377388   -0.0008629    4.9671327  
O    4.1324518   -0.0008170    5.6076771  
C    5.3747692   -0.0007527    3.5524080  
O    4.1270577   -0.0007084    2.9637155  
C    6.5639064   -0.0006886    2.8534948  
H    9.5652770   -0.0003569    2.2226939  
H    9.2795288    0.0070330    6.4203072  
H    6.4557342   -0.0018317    6.7835652  
H    3.4564679   -0.0007721    4.9175240  
H    4.2414643   -0.0006068    2.0084591  
H   10.9373948   -0.0004744    4.5434867  
C    6.5597233   -0.0008210    1.3835008  
C    7.6114523   -0.0009113    0.5244653  
C    7.0637933   -0.0009871   -0.8115379  
C    5.5962695   -0.0009037   -0.6593392  
N    5.3559146   -0.0012037    0.6953265  
C    4.7161325   -0.0005435   -1.6923264  
C    5.2498343   -0.0004422   -3.0442502  
O    4.5392129   -0.0001860   -4.0409036  
C    6.8008622   -0.0007797   -3.2289611  
O    7.2618431   -0.0010045   -4.3624322  
C    7.6474456   -0.0008762   -2.0385208  
H    8.6521348   -0.0011060    0.7957464  
H    8.7203336   -0.0009048   -2.1750284  
H    4.4461421    0.0003272    1.1188347  
C    3.2573665   -0.0002920   -1.5109385  
C    2.5379463   -0.0001709   -0.3591964  
C    1.1435038    0.0000331   -0.7338500  
C    1.1092599   -0.0000083   -2.2088477  
N    2.4227553    0.0001909   -2.6182613  
C   -0.0265539   -0.0002524   -2.9515660  
C   -1.3003040   -0.0002640   -2.2514977  
O   -2.3786790   -0.0004133   -2.8306421  
C   -1.2877727    0.0000311   -0.6895603  
O   -2.3539959    0.0003306   -0.0892030  
C    0.0000000    0.0000000    0.0000000  
H    2.9384091   -0.0000367    0.6389234  
H   -0.0296303   -0.0004086   -4.0327229  
H    2.7280482   -0.0013407   -3.5742119  
C    2.5311839    2.1237619    3.0120429  
C    1.9795631    1.6616747    1.8395852  
C    0.9223175    0.7739173    2.1983588  
C    0.8753926    0.7337535    3.6154372  
N    1.8668922    1.5631002    4.0777464  
C   -0.0496243   -0.0427881    4.3197917  
C   -0.9437528   -0.7922060    3.5801400  
O   -1.8685244   -1.5680278    4.2172520  
C   -0.9124520   -0.7656372    2.1655264  
O   -1.8671164   -1.5663939    1.5732860  
C    0.0000000    0.0000000    1.4700000  
H    2.3005065    1.9304404    0.8477417  
H    2.0679347    1.7444845    5.0445261  
H   -0.0904770   -0.0778569    5.3997470  
H   -2.3849669   -2.0011402    3.5251786  
H   -1.7775064   -1.4909735    0.6183591  
H    3.3468514    2.8078103    3.1724291  
