64

C    3.3003553    0.0005277   -1.4738968  
C    2.5232827    0.0003497   -2.6090736  
C    1.1623211   -0.0001319   -2.1820093  
C    1.1711889    0.0000584   -0.7636135  
N    2.4852304   -0.0014918   -0.3662348  
C    0.0000000    0.0000000    0.0000000  
C   -1.2020378    0.0000520   -0.6806487  
O   -2.3759249    0.0003495    0.0157736  
C   -1.2314646   -0.0005113   -2.0955514  
O   -2.5054378   -0.0008038   -2.6250193  
C   -0.0764502   -0.0007273   -2.8495195  
H    2.8036265    0.0088181    0.5858676  
H   -3.0835636    0.0000347   -0.6418829  
H   -2.4360030   -0.0011526   -3.5845935  
H   -0.1304075   -0.0013421   -3.9319085  
H    4.3715559    0.0004894   -1.3667115  
C    5.8843143   -2.1416056   -4.3706043  
C    5.8364464   -1.7353566   -5.6606622  
C    4.7035133   -0.8249896   -5.7254229  
C    4.1682361   -0.7974904   -4.3472697  
N    4.8563813   -1.5672827   -3.5486049  
C    3.0267454   -0.0008952   -3.9901685  
C    2.4466128    0.7350847   -4.9654196  
O    1.3754315    1.5237290   -4.7739746  
C    2.9636573    0.7287617   -6.3657000  
O    2.3859623    1.4229253   -7.2021365  
C    4.1359085   -0.0966510   -6.7069413  
H    6.4893670   -2.0184248   -6.4685249  
H    1.1962591    1.9150482   -5.6479990  
H    6.5846128   -2.8231841   -3.9145273  
C    5.6397662   -3.2828088   -9.3800836  
C    5.8664988   -2.4936749  -10.4838619  
C    5.4961141   -1.1630833  -10.1275744  
C    5.0471853   -1.2020036   -8.7826305  
N    5.1456695   -2.5043277   -8.3596998  
C    4.6029359   -0.0653283   -8.1004275  
C    4.6123298    1.1325104   -8.7883751  
O    4.1892949    2.2733358   -8.1698502  
C    5.0562624    1.1915302  -10.1308575  
O    5.0049222    2.4569029  -10.6781599  
C    5.4944075    0.0705239  -10.8045781  
H    6.2504588   -2.8352562  -11.4298483  
H    4.9075983   -2.8362566   -7.4425698  
H    4.2761408    2.9839176   -8.8185387  
H    5.3214102    2.4089349  -11.5854291  
H    5.8284278    0.1465982  -11.8327418  
H    5.7900570   -4.3396244   -9.2403979  
C    2.5311839    2.1237619    3.0120429  
C    1.9795631    1.6616747    1.8395852  
C    0.9223175    0.7739173    2.1983588  
C    0.8753926    0.7337535    3.6154372  
N    1.8668922    1.5631002    4.0777464  
C   -0.0496243   -0.0427881    4.3197917  
C   -0.9437528   -0.7922060    3.5801400  
O   -1.8685244   -1.5680278    4.2172520  
C   -0.9124520   -0.7656372    2.1655264  
O   -1.8671164   -1.5663939    1.5732860  
C    0.0000000    0.0000000    1.4700000  
H    2.3005065    1.9304404    0.8477417  
H    2.0679347    1.7444845    5.0445261  
H   -0.0904770   -0.0778569    5.3997470  
H   -2.3849669   -2.0011402    3.5251786  
H   -1.7775064   -1.4909735    0.6183591  
H    3.3468514    2.8078103    3.1724291  
