60

C    1.8585670   -4.5813571   -6.6200489  
C    2.7391266   -4.3661546   -7.6548289  
C    2.5907370   -3.0040414   -8.0513474  
C    1.5971088   -2.4331135   -7.2154832  
N    1.1722127   -3.4184911   -6.3592634  
C    1.1924191   -1.0992537   -7.3242661  
C    1.8021111   -0.3276050   -8.2943236  
O    1.4450012    0.9812950   -8.4435456  
C    2.7953108   -0.8792615   -9.1381529  
O    3.3069177    0.0167620  -10.0539823  
C    3.1948482   -2.1951403   -9.0315788  
H    3.4055599   -5.1008732   -8.0732177  
H    0.4777862   -3.3052721   -5.6430692  
H    1.9835373    1.3306478   -9.1654863  
H    3.9706103   -0.4353902  -10.5837691  
H    3.9579938   -2.5897514   -9.6921619  
H    1.6647729   -5.4727267   -6.0483306  
C    0.0063634   -0.7183644   -5.1315053  
C    0.1635204   -0.4995840   -6.4624868  
C   -0.8683539    0.4283171   -6.8613241  
C   -1.6451053    0.7344066   -5.6448724  
N   -1.0641734    0.0073898   -4.6315339  
C   -2.7096569    1.5750805   -5.6036140  
C   -3.1177667    2.2213961   -6.8398410  
O   -4.0639318    2.9951407   -6.9061048  
C   -2.3096748    1.9116339   -8.1401646  
O   -2.6441266    2.4496386   -9.1870431  
C   -1.1807027    0.9881992   -8.0592840  
H   -3.2656681    1.7860227   -4.7006938  
H   -0.6262528    0.7791906   -8.9640628  
H    0.5824088   -1.3488893   -4.4738586  
C    1.1319248    0.0015675   -0.8009270  
C    0.7969916    0.0034959   -2.1169404  
C   -0.6453336    0.0035703   -2.1842672  
C   -1.1266831    0.0015415   -0.7896027  
N    0.0000000    0.0000000    0.0000000  
C   -2.4346129    0.0013924   -0.4276297  
C   -3.4350110    0.0031352   -1.4820184  
O   -4.6384610    0.0030897   -1.2583919  
C   -2.9478958    0.0050460   -2.9661075  
O   -3.7809377    0.0062160   -3.8623775  
C   -1.5113821    0.0053068   -3.2312125  
H    1.4821240    0.0045436   -2.9459192  
H   -2.7664565    0.0000185    0.6013447  
H    2.1104318    0.0009428   -0.3488058  
C    2.3971438    2.0127888    3.1728260  
C    1.9431056    1.6308205    1.9564670  
C    0.8496017    0.7127664    2.2356185  
C    0.7794028    0.6545384    3.7115134  
N    1.6840587    1.4146091    4.2663826  
C   -0.1885723   -0.1578550    4.3957118  
C   -1.0476298   -0.8789867    3.6398520  
O   -2.0015663   -1.6796266    4.1448486  
C   -1.0022026   -0.8410666    2.1483229  
O   -1.8147390   -1.5232959    1.5241687  
C    0.0000000    0.0000000    1.4700000  
H    2.3054237    1.9346118    0.9892483  
H   -0.2170646   -0.1815267    5.4753125  
H   -2.4487139   -2.0549881    3.3649027  
H    3.2048689    2.6911772    3.3971983  
