62

C   10.0365482    0.7104728   -1.6432266  
C   11.3237352    0.4597639   -1.2275770  
C   11.2378576   -0.4501084   -0.1324256  
C    9.8613615   -0.7214229    0.0763188  
N    9.1595809    0.0007549   -0.8567296  
C    9.4036748   -1.5819276    1.0787378  
C   10.3528604   -2.1796625    1.8849249  
O    9.9609503   -3.0289792    2.8789468  
C   11.7309063   -1.9212343    1.6925070  
O   12.5509179   -2.5918916    2.5763287  
C   12.1831284   -1.0722274    0.7039688  
H   12.2148928    0.8817235   -1.6597579  
H    8.3559424   -1.7927570    1.2430798  
H   10.7686984   -3.3304980    3.3147139  
H   13.4639563   -2.3623353    2.3781627  
H   13.2448887   -0.8934984    0.5806853  
H    9.6745550    1.3405076   -2.4375665  
C    6.5907968    0.0037509   -4.4182849  
C    5.3731494    0.0029998   -3.8171113  
C    5.6071059    0.0014824   -2.3922968  
C    7.0713654    0.0014397   -2.2113670  
N    7.6095209    0.0024507   -3.4775726  
C    7.6973074    0.0005985   -1.0072492  
C    6.8738986   -0.0005526    0.1904702  
O    7.3427984   -0.0014293    1.3211482  
C    5.3209699   -0.0007807    0.0224889  
O    4.6174388   -0.0020530    1.0236398  
C    4.7630507    0.0004755   -1.3275395  
H    4.4198604    0.0032745   -4.3149606  
H    6.8296430    0.0049279   -5.4693992  
H    8.5911169    0.0042329   -3.6861697  
C    3.3003548    0.0005276   -1.4738982  
C    2.5232817    0.0003497   -2.6090743  
C    1.1623204   -0.0001319   -2.1820101  
C    1.1711886    0.0000583   -0.7636140  
N    2.4852302   -0.0014919   -0.3662356  
C    0.0000000    0.0000000    0.0000000  
C   -1.2020379    0.0000520   -0.6806479  
O   -2.3759249    0.0003495    0.0157742  
C   -1.2314652   -0.0005112   -2.0955511  
O   -2.5054384   -0.0008036   -2.6250184  
C   -0.0764510   -0.0007271   -2.8495195  
H    2.8919962   -0.0005619   -3.6205297  
H    2.8036267    0.0088181    0.5858667  
H   -3.0835636    0.0000348   -0.6418823  
H   -2.4360038   -0.0011526   -3.5845925  
H   -0.1304090   -0.0013420   -3.9319089  
C    2.5528530    2.1414826    2.8079335  
C    2.0663498    1.7338582    4.0032312  
C    0.9804344    0.8229586    3.6752840  
C    0.9495562    0.7966882    2.1971295  
N    1.8690446    1.5676019    1.6831036  
C    0.0000000    0.0000000    1.4700000  
C   -0.8785127   -0.7372425    2.1869543  
O   -1.8187535   -1.5261249    1.6395491  
C   -0.8723269   -0.7321790    3.6796354  
O   -1.7010379   -1.4274584    4.2670412  
C    0.1115397    0.0933559    4.4024240  
H    2.4028853    2.0163452    4.9860947  
H   -2.2861435   -1.9184361    2.3990168  
H    0.0832434    0.0693689    5.4835595  
H    3.3664920    2.8238276    2.6198634  
