60

C   -0.0307358   -0.0004643   -4.4215602  
C    1.0189053   -0.0016745   -5.3107841  
C    0.4547307   -0.0019269   -6.6208635  
C   -0.9553011   -0.0005395   -6.4668059  
N   -1.2160420   -0.0016280   -5.1189819  
C   -1.8348247   -0.0000666   -7.5536491  
C   -1.2808357   -0.0007044   -8.8190642  
O   -2.0937964    0.0000674   -9.9154713  
C    0.1236162   -0.0024638   -8.9932144  
O    0.5198527   -0.0033255  -10.3147053  
C    0.9918880   -0.0032045   -7.9214728  
H    2.0627975   -0.0034036   -5.0475750  
H   -2.1305290    0.0095157   -4.7047714  
H   -2.9104370    0.0008455   -7.4429316  
H   -1.5120550   -0.0008701  -10.6867310  
H    1.4814922   -0.0044772  -10.3438913  
H    2.0630623   -0.0047375   -8.0859770  
C    3.2573667   -0.0002917   -1.5109384  
C    2.5379466   -0.0001708   -0.3591963  
C    1.1435040    0.0000333   -0.7338502  
C    1.1092604   -0.0000080   -2.2088477  
N    2.4227557    0.0001912   -2.6182616  
C   -0.0265537   -0.0002520   -2.9515661  
C   -1.3003040   -0.0002638   -2.2514979  
O   -2.3786786   -0.0004130   -2.8306424  
C   -1.2877728    0.0000313   -0.6895606  
O   -2.3539959    0.0003306   -0.0892032  
C    0.0000000    0.0000000    0.0000000  
H    2.9384091   -0.0000367    0.6389235  
H    2.7280487   -0.0013403   -3.5742117  
C    6.4550022   -0.0009257    1.4492347  
C    7.5628473   -0.0014711    0.6718947  
C    7.0625121   -0.0013725   -0.6941817  
C    5.5906513   -0.0008358   -0.5520181  
N    5.2286137   -0.0004913    0.7021423  
C    4.7161330   -0.0005432   -1.6923264  
C    5.2860923   -0.0003873   -2.9188992  
O    4.5914239   -0.0001196   -4.0693236  
C    6.7683519   -0.0005470   -3.0951535  
O    7.2177890   -0.0005148   -4.2411147  
C    7.6440944   -0.0008907   -1.9098265  
H    8.5924160   -0.0017984    0.9866385  
H    5.2697914   -0.0000398   -4.7685873  
H    8.7123908   -0.0008821   -2.0800424  
H    6.3993987   -0.0008024    2.5262128  
C    0.0000000    0.0000000    1.4700000  
C    1.0662921    0.0000102    2.3034270  
C    0.4961870   -0.0000064    3.6418889  
C   -0.9663858    0.0000850    3.4240247  
N   -1.2632773    0.0000084    2.1528658  
C   -1.8985362    0.0000517    4.5177257  
C   -1.3925775   -0.0004564    5.7720543  
O   -2.1456383   -0.0005410    6.8851312  
C    0.0786232   -0.0009323    6.0245000  
O    0.4683759   -0.0012588    7.1921102  
C    1.0143166   -0.0008442    4.8859032  
H    2.1107198   -0.0000632    2.0421868  
H   -2.9622183    0.0003270    4.3293377  
H   -1.5042274   -0.0009692    7.6184419  
H    2.0724152   -0.0013148    5.1109744  
