62

C    5.0775637   -0.9862697   -8.7245763  
C    5.4635640   -0.5703929   -9.9777792  
C    5.2132092    0.8321763  -10.0464949  
C    4.6699872    1.2198112   -8.7948655  
N    4.5993248    0.0912751   -8.0163859  
C    4.3029647    2.5374467   -8.5051749  
C    4.4879697    3.4810104   -9.4969612  
O    4.1468725    4.7824965   -9.2671807  
C    5.0282072    3.1136705  -10.7523586  
O    5.1503638    4.1672133  -11.6346674  
C    5.3902539    1.8139311  -11.0389341  
H    5.8739544   -1.2006299  -10.7480868  
H    3.8882849    2.8393046   -7.5532692  
H    4.3540110    5.2661760  -10.0773749  
H    5.5224356    3.8337931  -12.4568583  
H    5.8013719    1.5625413  -12.0096377  
H    5.1042154   -1.9665352   -8.2803598  
C    6.0229652   -2.1225939   -4.4623866  
C    5.0768601   -1.6606647   -3.5769639  
C    4.2270067   -0.7730859   -4.3012242  
C    4.7073242   -0.7328636   -5.6352421  
N    5.7996513   -1.5620047   -5.6981937  
C    4.1081198    0.0435404   -6.6317055  
C    3.0037397    0.7927577   -6.2750608  
O    2.3799025    1.5684387   -7.2089565  
C    2.5098139    0.7661276   -4.9491105  
O    1.4036786    1.5666796   -4.7518147  
C    3.1006054    0.0006263   -3.9654951  
H    5.0084068   -1.9294177   -2.5367340  
H    6.3439227   -1.7433061   -6.5221355  
H    1.6440966    2.0014228   -6.7568720  
H    1.1338958    1.4912304   -3.8314187  
H    6.8402641   -2.8064836   -4.3098214  
C    3.2798083    0.0005857   -1.4499652  
C    2.5571142    0.0005565   -2.5996556  
C    1.1637432    0.0001548   -2.2210361  
C    1.1336964   -0.0000200   -0.7459473  
N    2.4483512   -0.0001428   -0.3402723  
C    0.0000000    0.0000000    0.0000000  
C   -1.2757368   -0.0000186   -0.6964415  
O   -2.3524598   -0.0000639   -0.1142311  
C   -1.2676497   -0.0000872   -2.2584083  
O   -2.3355766   -0.0004101   -2.8557295  
C    0.0181558    0.0001758   -2.9516296  
H    0.0150788    0.0003319   -4.0331631  
H    4.3498547    0.0008612   -1.3200026  
H    2.7563626    0.0012823    0.6148059  
C    0.0000000    0.0000000    1.4700000  
C    1.0662921    0.0000102    2.3034270  
C    0.4961870   -0.0000064    3.6418889  
C   -0.9663858    0.0000850    3.4240247  
N   -1.2632773    0.0000084    2.1528658  
C   -1.8985362    0.0000517    4.5177257  
C   -1.3925775   -0.0004564    5.7720543  
O   -2.1456383   -0.0005410    6.8851312  
C    0.0786232   -0.0009323    6.0245000  
O    0.4683759   -0.0012588    7.1921102  
C    1.0143166   -0.0008442    4.8859032  
H    2.1107198   -0.0000632    2.0421868  
H   -2.9622183    0.0003270    4.3293377  
H   -1.5042274   -0.0009692    7.6184419  
H    2.0724152   -0.0013148    5.1109744  
