62

C    6.8376860   -1.8262263   -2.4456797  
C    7.5945807   -2.6330641   -1.6280059  
C    8.9458033   -2.5254280   -2.0720891  
C    8.9521051   -1.6310670   -3.1730003  
N    7.6557684   -1.2266585   -3.3744470  
C   10.1191675   -1.2887418   -3.8626144  
C   11.3014495   -1.8594333   -3.4328477  
O   12.4705193   -1.5594642   -4.0702695  
C   11.3154750   -2.7543114   -2.3365753  
O   12.5704958   -3.2385736   -2.0303785  
C   10.1644815   -3.0926859   -1.6559567  
H    7.2188501   -3.2270836   -0.8125540  
H    7.3522775   -0.5815560   -4.0813537  
H   10.1306416   -0.6078477   -4.7025275  
H   13.1637517   -2.0575025   -3.6178847  
H   12.4915545   -3.8348772   -1.2795163  
H   10.2063031   -3.7811198   -0.8200214  
C    4.4878226   -2.1225243   -1.5677351  
C    3.2260915   -1.6607473   -1.8631397  
C    3.3567347   -0.7724508   -2.9714996  
C    4.7330248   -0.7316536   -3.3122138  
N    5.3917970   -1.5611584   -2.4389681  
C    5.2292372    0.0455299   -4.3631890  
C    4.3194783    0.7949499   -5.0835267  
O    4.7499702    1.5713844   -6.1202723  
C    2.9423430    0.7677547   -4.7586014  
O    2.1641572    1.5685999   -5.5687981  
C    2.4521483    0.0014840   -3.7217481  
H    2.3228223   -1.9300608   -1.3429786  
H    6.2770470    0.0810834   -4.6278253  
H    3.9654403    2.0043827   -6.4812289  
H    1.2487978    1.4927308   -5.2825018  
H    4.8146445   -2.8067987   -0.8035913  
C    0.0000000    0.0000000    0.0000000  
C    1.0662923   -0.0000101   -0.8334270  
C    0.4961873    0.0000065   -2.1718887  
C   -0.9663854   -0.0000848   -1.9540250  
N   -1.2632773   -0.0000083   -0.6828660  
C   -1.8985359   -0.0000514   -3.0477261  
C   -1.3925770    0.0004566   -4.3020547  
O   -2.1456378    0.0005414   -5.4151314  
C    0.0786240    0.0009326   -4.5545000  
O    0.4683767    0.0012591   -5.7221100  
C    1.0143171    0.0008444   -3.4159031  
H    2.1107200    0.0000633   -0.5721865  
H   -2.9622181   -0.0003268   -2.8593381  
H   -1.5042265    0.0009697   -6.1484419  
C    1.0672568    0.0000697    2.3021913  
C    0.0000000    0.0000000    1.4700000  
C   -1.1601224    0.0000736    2.3478473  
C   -0.5938729    0.0000769    3.7138435  
N    0.7113367    0.0001554    3.6934124  
C   -1.4286986    0.0001879    4.8835240  
C   -2.7683114    0.0006799    4.6970523  
O   -3.6653903    0.0008304    5.6976972  
C   -3.3702025    0.0010610    3.3310774  
O   -4.5974910    0.0013779    3.2362962  
C   -2.4926826    0.0008943    2.1470656  
H   -0.9878360   -0.0000190    5.8697035  
H   -4.5324246    0.0012261    5.2533954  
H   -2.9677772    0.0012974    1.1752040  
H    2.1134392    0.0000545    2.0405121  
