62

C    7.4282239   -3.0492244   -2.2265738  
C    6.8376860   -1.8262261   -2.4456796  
C    7.8899733   -0.8905802   -2.6734037  
C    9.1108943   -1.6065596   -2.5803966  
N    8.7944983   -2.9139924   -2.3062986  
C   10.3586356   -0.9992923   -2.7511564  
C   10.3741323    0.3553712   -3.0210174  
O   11.5651652    0.9984073   -3.1969685  
C    9.1665660    1.0870332   -3.1172967  
O    9.3488027    2.4269765   -3.3905829  
C    7.9352899    0.4886554   -2.9486854  
H    9.4567708   -3.6603292   -2.1951317  
H   11.2927886   -1.5393750   -2.6813819  
H   11.3523104    1.9243088   -3.3720783  
H    8.4849591    2.8477162   -3.4391126  
H    7.0273071    1.0749522   -3.0280674  
H    6.9829909   -4.0070117   -2.0183183  
C    4.4878226   -2.1225239   -1.5677348  
C    3.2260915   -1.6607473   -1.8631397  
C    3.3567347   -0.7724505   -2.9714995  
C    4.7330253   -0.7316533   -3.3122139  
N    5.3917970   -1.5611581   -2.4389681  
C    5.2292372    0.0455300   -4.3631888  
C    4.3194782    0.7949501   -5.0835269  
O    4.7499703    1.5713841   -6.1202719  
C    2.9423430    0.7677547   -4.7586014  
O    2.1641571    1.5685991   -5.5687974  
C    2.4521483    0.0014840   -3.7217481  
H    2.3228223   -1.9300606   -1.3429785  
H    6.2770470    0.0810834   -4.6278253  
H    3.9654399    2.0043829   -6.4812287  
H    1.2487978    1.4927312   -5.2825022  
H    4.8146445   -2.8067982   -0.8035915  
C    0.0000000    0.0000000    0.0000000  
C    1.0662923   -0.0000101   -0.8334270  
C    0.4961873    0.0000065   -2.1718887  
C   -0.9663854   -0.0000848   -1.9540250  
N   -1.2632773   -0.0000083   -0.6828660  
C   -1.8985359   -0.0000514   -3.0477261  
C   -1.3925770    0.0004566   -4.3020547  
O   -2.1456378    0.0005414   -5.4151314  
C    0.0786240    0.0009326   -4.5545000  
O    0.4683767    0.0012591   -5.7221100  
C    1.0143171    0.0008444   -3.4159031  
H    2.1107200    0.0000633   -0.5721865  
H   -2.9622181   -0.0003268   -2.8593381  
H   -1.5042265    0.0009697   -6.1484419  
C    3.1301144    0.0010313    3.1728260  
C    2.5367765    0.0002768    1.9564670  
C    1.1089900   -0.0001027    2.2356185  
C    1.0177864    0.0004150    3.7115134  
N    2.1993570    0.0011613    4.2663826  
C   -0.2459220    0.0002880    4.3957118  
C   -1.3675327    0.0000606    3.6398520  
O   -2.6129319   -0.0000866    4.1448486  
C   -1.3083589   -0.0000910    2.1483229  
O   -2.3693264   -0.0004206    1.5241687  
C    0.0000000    0.0000000    1.4700000  
H    3.0096015    0.0001008    0.9892483  
H   -0.2829642    0.0004689    5.4753125  
H   -3.1967446   -0.0002093    3.3649027  
H    4.1849273    0.0015113    3.3971983  
