64

C    0.1108989   -0.7978761   -9.6363963  
C   -0.2799493    0.2786570   -8.8743054  
C   -0.2646164    1.4209362   -9.7284497  
C    0.1468294    0.9761496  -11.0109488  
N    0.3685278   -0.3755620  -10.9196055  
C    0.2744372    1.8372042  -12.1050654  
C   -0.0189394    3.1715234  -11.9008594  
O    0.0886473    4.0557175  -12.9350945  
C   -0.4306617    3.6345388  -10.6284926  
O   -0.6856648    4.9897158  -10.5859139  
C   -0.5565070    2.7856999   -9.5486036  
H    0.6599895   -0.9682665  -11.6757355  
H    0.5876951    1.5044780  -13.0850463  
H   -0.1581764    4.9203586  -12.5819113  
H   -0.9577735    5.2200689   -9.6923265  
H   -0.8738107    3.1693621   -8.5860033  
H    0.2276619   -1.8332975   -9.3657889  
C    1.5214679   -1.9563162   -5.5959997  
C    0.7564345   -1.5844071   -4.5433904  
C   -0.2212180   -0.6607928   -5.0980363  
C    0.1090023   -0.5886728   -6.5375978  
N    1.1296214   -1.3460484   -6.8354373  
C   -0.6386068    0.2327004   -7.4494713  
C   -1.6694958    0.9491473   -6.9461765  
O   -2.4518898    1.7570651   -7.6818183  
C   -2.0277820    0.8972573   -5.4980397  
O   -2.9783777    1.5758982   -5.1094078  
C   -1.2456329    0.0471727   -4.5828766  
H    0.8445934   -1.8981613   -3.5172998  
H   -3.0926581    2.1264002   -7.0476571  
H    2.3596737   -2.6348146   -5.6009236  
C    1.1243410    0.0099923   -0.7919003  
C    0.7474076    0.0234544   -2.1148543  
C   -0.6787381    0.0234490   -2.1414700  
C   -1.1201745    0.0098592   -0.7935546  
N    0.0000000    0.0000000    0.0000000  
C   -2.4730816    0.0063709   -0.4408240  
C   -3.3971958    0.0170982   -1.4675058  
O   -4.7313517    0.0146259   -1.1793471  
C   -2.9763648    0.0303504   -2.8186324  
O   -4.0166480    0.0395118   -3.7247624  
C   -1.6418562    0.0335260   -3.1673481  
H    1.4178717    0.0310972   -2.9571209  
H   -2.8160166   -0.0041111    0.5845966  
H   -5.1938818    0.0230867   -2.0274384  
H   -3.6464675    0.0482293   -4.6127343  
H    2.1062467    0.0052819   -0.3505407  
C    2.5285572    2.1210227    2.9438989  
C    1.9331703    1.6216660    4.0790748  
C    0.8903039    0.7472258    3.6520102  
C    0.8972198    0.7527806    2.2336141  
N    1.9028376    1.5986179    1.8362361  
C    0.0000000    0.0000000    1.4700000  
C   -0.9207814   -0.7726952    2.1506477  
O   -1.8198395   -1.5274828    1.4542253  
C   -0.9436862   -0.7911793    3.5655508  
O   -1.9197945   -1.6098497    4.0950179  
C   -0.0590329   -0.0485852    4.3195194  
H    2.2150357    1.8593692    5.0905303  
H    2.1533708    1.7953814    0.8841339  
H   -2.3621246   -1.9821033    2.1118817  
H   -1.8668290   -1.5649508    5.0545920  
H   -0.1007624   -0.0827977    5.4019087  
H    3.3491200    2.8096064    2.8367138  
