60

C   -4.4516595    2.1220205   -0.2154630  
C   -5.6505107    1.6231913   -0.6697669  
C   -5.3525996    0.7489266   -1.7567399  
C   -3.9437155    0.7540398   -1.9208881  
N   -3.4276992    1.5994572   -0.9703017  
C   -3.2941075    0.0012873   -2.9038235  
C   -4.0810730   -0.7709252   -3.7360196  
O   -3.4983893   -1.5256630   -4.7126791  
C   -5.4884223   -0.7889639   -3.5881684  
O   -6.1319964   -1.6071818   -4.4935272  
C   -6.1299737   -0.0463973   -2.6188732  
H   -6.6205215    1.8611249   -0.2679462  
H   -2.4522689    1.7958516   -0.8363403  
H   -4.2167866   -1.9799196   -5.1718314  
H   -7.0781684   -1.5620013   -4.3252413  
H   -7.2095094   -0.0802620   -2.5298041  
H   -4.2460853    2.8103285    0.5863659  
C    0.0000000    0.0000000    0.0000000  
C    1.0541688   -0.0001722   -0.8560392  
C    0.5103135   -0.0000454   -2.1935954  
C   -0.9576375    0.0002459   -2.0455728  
N   -1.2018462   -0.0001392   -0.6915966  
C   -1.8348315    0.0008316   -3.0810604  
C   -1.2972851    0.0009737   -4.4314603  
O   -2.0050681    0.0014265   -5.4301316  
C    0.2542617    0.0004185   -4.6117570  
O    0.7184664    0.0002257   -5.7439119  
C    1.0974549    0.0000874   -3.4189129  
H    2.0940751   -0.0005482   -0.5817983  
H   -2.1128195    0.0014911   -0.2706785  
C    4.3047786   -2.1086509   -1.2859251  
C    5.3774557   -1.6442172   -1.9771127  
C    4.8701577   -0.7486149   -2.9897237  
C    3.4034910   -0.7291871   -2.8306579  
N    3.1250152   -1.5744523   -1.7814356  
C    2.5562209   -0.0001551   -3.6003007  
C    3.1269041    0.8199321   -4.6559106  
O    2.4474928    1.5122568   -5.4024951  
C    4.6776923    0.8144222   -4.8425432  
O    5.1696068    1.5006845   -5.7281645  
C    5.4870223   -0.0121805   -3.9505988  
H    6.4066155   -1.8999876   -1.7981574  
H    6.5600124   -0.0102613   -4.0862917  
H    4.2768474   -2.7963892   -0.4563917  
H    2.2064267   -1.7712346   -1.4285630  
C    1.0672568    0.0000697    2.3021913  
C    0.0000000    0.0000000    1.4700000  
C   -1.1601224    0.0000736    2.3478473  
C   -0.5938729    0.0000769    3.7138435  
N    0.7113367    0.0001554    3.6934124  
C   -1.4286986    0.0001879    4.8835240  
C   -2.7683114    0.0006799    4.6970523  
O   -3.6653903    0.0008304    5.6976972  
C   -3.3702025    0.0010610    3.3310774  
O   -4.5974910    0.0013779    3.2362962  
C   -2.4926826    0.0008943    2.1470656  
H   -0.9878360   -0.0000190    5.8697035  
H   -4.5324246    0.0012261    5.2533954  
H   -2.9677772    0.0012974    1.1752040  
H    2.1134392    0.0000545    2.0405121  
