64

C    9.9183376   -0.7215697   -1.6666204  
C    8.9823671   -0.0028154   -2.3735986  
C    9.6874938    0.7247221   -3.3776333  
C   11.0623712    0.4071374   -3.2334841  
N   11.1677455   -0.4719349   -2.1843199  
C   12.0536163    0.9458008   -4.0593554  
C   11.6495364    1.8207719   -5.0489631  
O   12.5760973    2.3755744   -5.8836442  
C   10.2824803    2.1502779   -5.2083345  
O   10.0405407    3.0356509   -6.2383461  
C    9.3040800    1.6194615   -4.3937829  
H   12.0228088   -0.8814319   -1.8539278  
H   13.1031951    0.7078841   -3.9545680  
H   12.0888325    2.9474723   -6.4909083  
H    9.0943296    3.2051594   -6.2777654  
H    8.2650275    1.8906450   -4.5397470  
H    9.7937059   -1.3914322   -0.8331279  
C    6.5860086   -0.0008870    1.4009371  
C    7.6166242   -0.0011133    0.4897298  
C    7.0248897   -0.0012666   -0.8081341  
C    5.6184276   -0.0008354   -0.6243131  
N    5.3862298   -0.0025641    0.7287198  
C    4.7161325   -0.0005435   -1.6923264  
C    5.2432551   -0.0003826   -2.9691658  
O    4.4073062    0.0002541   -4.0481477  
C    6.6437146   -0.0011824   -3.1729577  
O    7.0119354   -0.0013266   -4.5025278  
C    7.5344416   -0.0017439   -2.1198051  
H    8.6658466   -0.0022671    0.7308191  
H    4.4806937    0.0078493    1.1621677  
H    4.9726182   -0.0000405   -4.8315292  
H    7.9727445   -0.0018528   -4.5520293  
H    6.6118216   -0.0011075    2.4771775  
C    3.2573665   -0.0002920   -1.5109385  
C    2.5379463   -0.0001709   -0.3591964  
C    1.1435038    0.0000331   -0.7338500  
C    1.1092599   -0.0000083   -2.2088477  
N    2.4227553    0.0001909   -2.6182613  
C   -0.0265539   -0.0002524   -2.9515660  
C   -1.3003040   -0.0002640   -2.2514977  
O   -2.3786790   -0.0004133   -2.8306421  
C   -1.2877727    0.0000311   -0.6895603  
O   -2.3539959    0.0003306   -0.0892030  
C    0.0000000    0.0000000    0.0000000  
H    2.9384091   -0.0000367    0.6389234  
H   -0.0296303   -0.0004086   -4.0327229  
H    2.7280482   -0.0013407   -3.5742119  
C    0.0000000    0.0000000    1.4700000  
C    1.0521667    0.0011902    2.3562342  
C    0.4917218    0.0011957    3.6679131  
C   -0.9187428   -0.0003148    3.5178682  
N   -1.1833171    0.0009411    2.1707914  
C   -1.7951701   -0.0010350    4.6072090  
C   -1.2375837   -0.0005224    5.8710424  
O   -2.0474215   -0.0015360    6.9697579  
C    0.1673580    0.0013566    6.0411963  
O    0.5673524    0.0020687    7.3615553  
C    1.0325770    0.0023412    4.9669890  
H    2.0953057    0.0030649    2.0900562  
H   -2.0989778   -0.0102372    1.7591824  
H   -2.8710934   -0.0020419    4.4995513  
H   -1.4634884   -0.0006497    7.7393593  
H    1.5290710    0.0033153    7.3880045  
H    2.1042148    0.0039609    5.1284455  
