62

C    4.0834644    0.0818328   -8.1639979  
C    5.1026441   -0.5671987   -8.8216450  
C    5.0371954   -0.1668371  -10.1891330  
C    3.9489480    0.7352329  -10.3070866  
N    3.3905644    0.8624922   -9.0594362  
C    3.5893857    1.3321454  -11.5191916  
C    4.3423037    1.0128375  -12.6324455  
O    4.0349560    1.5675126  -13.8411175  
C    5.4316050    0.1146527  -12.5349580  
O    6.0823395   -0.1018830  -13.7320375  
C    5.7867234   -0.4747986  -11.3395644  
H    5.8059885   -1.2465825   -8.3713807  
H    2.6061637    1.4462071   -8.8314601  
H    2.7609859    2.0203568  -11.6157422  
H    4.6748473    1.2157253  -14.4736113  
H    6.8039031   -0.7194660  -13.5786067  
H    6.6259715   -1.1590648  -11.2957369  
C    5.7490607   -2.1284786   -4.7144778  
C    4.8671665   -1.6645342   -3.7660657  
C    3.9696975   -0.7771949   -4.4307298  
C    4.3561282   -0.7391884   -5.7949702  
N    5.4407941   -1.5693622   -5.9325542  
C    3.6896895    0.0363916   -6.7484506  
C    2.6133592    0.7870479   -6.3169351  
O    1.9266964    1.5620108   -7.2062837  
C    2.2128025    0.7626344   -4.9598146  
O    1.1236815    1.5644119   -4.6872123  
C    2.8699641   -0.0020530   -4.0185824  
H    4.8709993   -1.9318255   -2.7232165  
H    5.9263183   -1.7522465   -6.7920894  
H    1.2244406    1.9962425   -6.7047427  
H    0.9184891    1.4904381   -3.7501808  
H    6.5744613   -2.8128719   -4.6181474  
C    3.2573670   -0.0002921   -1.5109382  
C    2.5379468   -0.0001711   -0.3591962  
C    1.1435043    0.0000330   -0.7338498  
C    1.1092608   -0.0000085   -2.2088474  
N    2.4227562    0.0001906   -2.6182610  
C   -0.0265533   -0.0002525   -2.9515663  
C   -1.3003033   -0.0002641   -2.2514979  
O   -2.3786785   -0.0004132   -2.8306425  
C   -1.2877724    0.0000310   -0.6895608  
O   -2.3539956    0.0003306   -0.0892035  
C    0.0000000    0.0000000    0.0000000  
H    2.9384091   -0.0000370    0.6389240  
H   -0.0296290   -0.0004088   -4.0327231  
H    4.3270394   -0.0004767   -1.6439445  
C    2.5128556    2.1077716    2.9199648  
C    1.9592212    1.6432552    4.0696553  
C    0.8915788    0.7479214    3.6910360  
C    0.8684491    0.7287414    2.2159470  
N    1.8754542    1.5738793    1.8102719  
C    0.0000000    0.0000000    1.4700000  
C   -0.9772830   -0.8200135    2.1664417  
O   -1.8021297   -1.5120829    1.5842315  
C   -0.9711318   -0.8147624    3.7284083  
O   -1.7894187   -1.5009653    4.3257297  
C    0.0140216    0.0115358    4.4216297  
H    2.2638494    1.8988021    5.0689105  
H    0.0117648    0.0094386    5.5031631  
H    3.3327358    2.7953732    2.7900019  
H    2.1123206    1.7707734    0.8551938  
