64

C    4.1072309   -0.7191034   -4.4475461  
C    3.0267439   -0.0008958   -3.9901693  
C    2.5087349    0.7258910   -5.1028450  
C    3.3206458    0.4084330   -6.2217500  
N    4.2827396   -0.4698441   -5.7885964  
C    3.1000334    0.9464840   -7.4932137  
C    2.0403153    1.8207013   -7.6378508  
O    1.7797478    2.3748838   -8.8576868  
C    1.2191171    2.1500691   -6.5333300  
O    0.2053889    3.0346599   -6.8386149  
C    1.4363353    1.6198567   -5.2786521  
H    4.9963749   -0.8790804   -6.3641242  
H    1.0098914    2.9463160   -8.7391489  
H   -0.3015560    3.2041262   -6.0386827  
H    0.7906454    1.8909166   -4.4515550  
H    4.7674530   -1.3883367   -3.9229585  
C    3.3003550    0.0005271   -1.4738980  
C    2.5232818    0.0003492   -2.6090740  
C    1.1623204   -0.0001324   -2.1820096  
C    1.1711884    0.0000582   -0.7636136  
N    2.4852300   -0.0014919   -0.3662355  
C    0.0000000    0.0000000    0.0000000  
C   -1.2020384    0.0000519   -0.6806474  
O   -2.3759249    0.0003495    0.0157742  
C   -1.2314655   -0.0005117   -2.0955509  
O   -2.5054387   -0.0008042   -2.6250186  
C   -0.0764509   -0.0007278   -2.8495195  
H    2.8036264    0.0088184    0.5858664  
H   -3.0835635    0.0000345   -0.6418820  
H   -2.4360043   -0.0011535   -3.5845924  
H   -0.1304089   -0.0013428   -3.9319088  
H    4.3715554    0.0004891   -1.3667124  
C    4.9496390   -2.8706482   -8.9067637  
C    4.2524778   -1.9258510   -8.1899695  
C    4.4003291   -0.6865725   -8.8805700  
C    5.2046045   -0.9391586  -10.0213007  
N    5.5223790   -2.2745980  -10.0058724  
C    5.5560196    0.0591053  -10.9349560  
C    5.0867259    1.3355466  -10.6927985  
O    5.3995828    2.3479005  -11.5531901  
C    4.2833075    1.6074360   -9.5599205  
O    3.8949745    2.9273207   -9.4577235  
C    3.9364605    0.6231674   -8.6580122  
H    3.7056470   -2.1073010   -7.2805495  
H    6.0756013   -2.7475394  -10.6974306  
H    6.1687976   -0.1269006  -11.8062221  
H    4.9779732    3.1436115  -11.2034003  
H    3.3562877    3.0254887   -8.6666583  
H    5.0848435   -3.9222509   -8.7201879  
C    2.5128556    2.1077716    2.9199648  
C    1.9592212    1.6432552    4.0696553  
C    0.8915788    0.7479214    3.6910360  
C    0.8684491    0.7287414    2.2159470  
N    1.8754542    1.5738793    1.8102719  
C    0.0000000    0.0000000    1.4700000  
C   -0.9772830   -0.8200135    2.1664417  
O   -1.8021297   -1.5120829    1.5842315  
C   -0.9711318   -0.8147624    3.7284083  
O   -1.7894187   -1.5009653    4.3257297  
C    0.0140216    0.0115358    4.4216297  
H    2.2638494    1.8988021    5.0689105  
H    0.0117648    0.0094386    5.5031631  
H    3.3327358    2.7953732    2.7900019  
H    2.1123206    1.7707734    0.8551938  
