66

C    0.4064071    0.0983733   -8.7893375  
C    1.4519442   -0.5483093   -9.4066876  
C    1.4414683   -0.1448936  -10.7748049  
C    0.3580440    0.7565327  -10.9346436  
N   -0.2504453    0.8804876   -9.7103103  
C    0.0472304    1.3558996  -12.1589576  
C    0.8448395    1.0397533  -13.2415697  
O    0.5860975    1.5969188  -14.4604350  
C    1.9301403    0.1422596  -13.1021271  
O    2.6289434   -0.0710094  -14.2723986  
C    2.2371827   -0.4496117  -11.8946757  
H    2.1371381   -1.2281274   -8.9298755  
H   -1.0439628    1.4630270   -9.5129309  
H   -0.7772257    2.0436363  -12.2873838  
H    1.2513647    1.2471054  -15.0673250  
H    3.3442853   -0.6883365  -14.0912997  
H    3.0746063   -1.1332743  -11.8184819  
C    1.9332186   -2.1183845   -5.2802478  
C    1.0132699   -1.6573354   -4.3672334  
C    0.1425864   -0.7692371   -5.0656542  
C    0.5838246   -0.7278052   -6.4130661  
N    1.6739349   -1.5567573   -6.5085374  
C   -0.0442370    0.0493840   -7.3909739  
C   -1.1378295    0.7981573   -7.0016523  
O   -1.7886902    1.5745666   -7.9163018  
C   -1.5929066    0.7703229   -5.6618962  
O   -2.6929017    1.5705682   -5.4317601  
C   -0.9736297    0.0040464   -4.6965763  
H    0.9751829   -1.9269942   -3.3256834  
H    2.1939842   -1.7372808   -7.3481452  
H   -2.5110525    2.0070696   -7.4425943  
H   -2.9357434    1.4942922   -4.5039595  
H    2.7546834   -2.8023052   -5.1521543  
C    1.1188642    0.0008222   -0.8003808  
C    0.0000000    0.0000000    0.0000000  
C   -1.1323862    0.0008899   -0.8673528  
C   -0.6382663    0.0019679   -2.1969280  
N    0.7324016    0.0038481   -2.1202242  
C   -1.4770914    0.0027318   -3.3154808  
C   -2.8395473    0.0020945   -3.0876857  
O   -3.7039201    0.0024425   -4.1440349  
C   -3.3517868    0.0013931   -1.7684331  
O   -4.7300497    0.0012366   -1.7073121  
C   -2.5248543    0.0009123   -0.6644817  
H    1.3576314   -0.0056167   -2.9057046  
H   -4.5940032    0.0021826   -3.7685128  
H   -4.9934602    0.0007259   -0.7819913  
H   -2.9462577    0.0005603    0.3339659  
H    2.1619895    0.0009355   -0.5342068  
C    2.5311839    2.1237619    3.0120429  
C    1.9795631    1.6616747    1.8395852  
C    0.9223175    0.7739173    2.1983588  
C    0.8753926    0.7337535    3.6154372  
N    1.8668922    1.5631002    4.0777464  
C   -0.0496243   -0.0427881    4.3197917  
C   -0.9437528   -0.7922060    3.5801400  
O   -1.8685244   -1.5680278    4.2172520  
C   -0.9124520   -0.7656372    2.1655264  
O   -1.8671164   -1.5663939    1.5732860  
C    0.0000000    0.0000000    1.4700000  
H    2.3005065    1.9304404    0.8477417  
H    2.0679347    1.7444845    5.0445261  
H   -0.0904770   -0.0778569    5.3997470  
H   -2.3849669   -2.0011402    3.5251786  
H   -1.7775064   -1.4909735    0.6183591  
H    3.3468514    2.8078103    3.1724291  
