62

C    1.3758383   -3.0197346  -10.2530783  
C    0.8792769   -2.3381296   -9.1661986  
C    0.7562226   -0.9707001   -9.5529727  
C    1.1960905   -0.8774677  -10.8982418  
N    1.5670398   -2.1391896  -11.2920351  
C    1.2122848    0.3277024  -11.6068261  
C    0.7762099    1.4593170  -10.9454155  
O    0.7707990    2.6622443  -11.5903574  
C    0.3339096    1.3865923   -9.6030681  
O   -0.0686240    2.5997851   -9.0839593  
C    0.3179158    0.1980486   -8.9033285  
H    0.6367376   -2.7728149   -8.2116218  
H    1.9114647   -2.3852383  -12.2024265  
H    1.5464789    0.4054420  -12.6322401  
H    0.4349855    3.3100112  -10.9571961  
H   -0.3518371    2.4626642   -8.1747889  
H    1.6100996   -4.0640808  -10.3689323  
C    1.8623198   -2.0072653   -5.4771202  
C    1.0190395   -1.6263759   -4.4895066  
C    0.0870117   -0.7080514   -5.1255131  
C    0.5265224   -0.6485023   -6.5361401  
N    1.5667223   -1.4080939   -6.7482582  
C   -0.1488129    0.1645214   -7.5097935  
C   -1.2149984    0.8849935   -7.0932569  
O   -1.9385158    1.6861030   -7.8937481  
C   -1.6831429    0.8457385   -5.6764077  
O   -2.6605019    1.5274253   -5.3677109  
C   -0.9736297    0.0040464   -4.6965763  
H    1.0282688   -1.9310392   -3.4569512  
H   -2.6258529    2.0607756   -7.3137990  
H    2.6982354   -2.6854685   -5.4118586  
C    1.1188642    0.0008222   -0.8003808  
C    0.0000000    0.0000000    0.0000000  
C   -1.1323862    0.0008899   -0.8673528  
C   -0.6382663    0.0019679   -2.1969280  
N    0.7324016    0.0038481   -2.1202242  
C   -1.4770914    0.0027318   -3.3154808  
C   -2.8395473    0.0020945   -3.0876857  
O   -3.7039201    0.0024425   -4.1440349  
C   -3.3517868    0.0013931   -1.7684331  
O   -4.7300497    0.0012366   -1.7073121  
C   -2.5248543    0.0009123   -0.6644817  
H    1.3576314   -0.0056167   -2.9057046  
H   -4.5940032    0.0021826   -3.7685128  
H   -4.9934602    0.0007259   -0.7819913  
H   -2.9462577    0.0005603    0.3339659  
H    2.1619895    0.0009355   -0.5342068  
C    0.8400945    0.7047457    2.2710304  
C    0.0000000    0.0000000    1.4700000  
C   -0.8844236   -0.7423113    2.3369512  
C   -0.4878984   -0.4098547    3.7186280  
N    0.5629682    0.4714286    3.6095011  
C   -1.0836927   -0.9095027    4.8308716  
C   -2.1891196   -1.8367527    4.6554461  
O   -2.7906899   -2.3413415    5.5944904  
C   -2.6257283   -2.2031529    3.2011665  
O   -3.5549479   -2.9829990    3.0410059  
C   -1.9068976   -1.5999348    2.0816745  
H   -0.7774656   -0.6525820    5.8354244  
H   -2.2155208   -1.8586617    1.0779135  
H    1.6384792    1.3747609    1.9961646  
H    1.0518368    0.8833920    4.3830260  
