62

C    9.9376591    0.7091253   -1.3398265  
C   11.1934451    0.4580349   -0.8374096  
C   11.0327627   -0.4511317    0.2498792  
C    9.6451097   -0.7216425    0.3646296  
N    9.0088291    0.0003153   -0.6144217  
C    9.1198161   -1.5813147    1.3340723  
C   10.0116254   -2.1790284    2.2033200  
O    9.5525325   -3.0275500    3.1688546  
C   11.3997058   -1.9213947    2.1049707  
O   12.1573214   -2.5919202    3.0429253  
C   11.9185988   -1.0732090    1.1490116  
H   12.1121710    0.8792942   -1.2081896  
H    8.0632167   -1.7915292    1.4268597  
H   10.3285967   -3.3292023    3.6587478  
H   13.0818495   -2.3629330    2.9072158  
H   12.9863832   -0.8950772    1.0981606  
H    9.6308911    1.3388571   -2.1573166  
C    6.6682521    0.0023718   -4.3668309  
C    5.4175873    0.0024209   -3.7938519  
C    5.6072942    0.0015614   -2.3801297  
C    7.0065885    0.0012979   -2.1479616  
N    7.6213759   -0.0001475   -3.3754192  
C    7.5601869    0.0007872   -0.8640939  
C    6.6852683    0.0008451    0.2048751  
O    7.1721939    0.0007113    1.4799901  
C    5.2859247    0.0007309   -0.0064394  
O    4.5477721    0.0003831    1.1590970  
C    4.7390840    0.0009613   -1.2727298  
H    4.4834516    0.0018991   -4.3290000  
H    8.6137258    0.0099132   -3.5274774  
H    6.4039032    0.0004827    2.0656480  
H    3.6139327    0.0003544    0.9276924  
H    6.9558180    0.0024887   -5.4042627  
C    3.2798077    0.0005856   -1.4499661  
C    2.5571132    0.0005565   -2.5996564  
C    1.1637425    0.0001547   -2.2210366  
C    1.1336959   -0.0000200   -0.7459475  
N    2.4483509   -0.0001429   -0.3402730  
C    0.0000000    0.0000000    0.0000000  
C   -1.2757370   -0.0000187   -0.6964411  
O   -2.3524597   -0.0000640   -0.1142306  
C   -1.2676502   -0.0000874   -2.2584078  
O   -2.3355774   -0.0004102   -2.8557287  
C    0.0181551    0.0001758   -2.9516297  
H    2.9547342    0.0006074   -3.5989118  
H    0.0150776    0.0003317   -4.0331632  
H    2.7563626    0.0012823    0.6148051  
C    2.5528530    2.1414826    2.8079335  
C    2.0663498    1.7338582    4.0032312  
C    0.9804344    0.8229586    3.6752840  
C    0.9495562    0.7966882    2.1971295  
N    1.8690446    1.5676019    1.6831036  
C    0.0000000    0.0000000    1.4700000  
C   -0.8785127   -0.7372425    2.1869543  
O   -1.8187535   -1.5261249    1.6395491  
C   -0.8723269   -0.7321790    3.6796354  
O   -1.7010379   -1.4274584    4.2670412  
C    0.1115397    0.0933559    4.4024240  
H    2.4028853    2.0163452    4.9860947  
H   -2.2861435   -1.9184361    2.3990168  
H    0.0832434    0.0693689    5.4835595  
H    3.3664920    2.8238276    2.6198634  
