60

C   -4.3291201    0.7078393   -6.0513487  
C   -5.6817540    0.4571439   -6.0518273  
C   -5.9363780   -0.4517236   -7.1212786  
C   -4.6905179   -0.7224675   -7.7429356  
N   -3.7360896   -0.0009298   -7.0698328  
C   -4.5628191   -1.5819467   -8.8382793  
C   -5.7137324   -2.1792244   -9.3145528  
O   -5.6460519   -3.0275418  -10.3816941  
C   -6.9660808   -1.9213525   -8.7079703  
O   -8.0179071   -2.5914470   -9.2978657  
C   -7.0928430   -1.0733571   -7.6275248  
H   -6.3971099    0.8784683   -5.3664474  
H   -3.6161963   -1.7923374   -9.3166541  
H   -6.5485991   -3.3288953  -10.5486095  
H   -8.8259570   -2.3623226   -8.8286505  
H   -8.0654258   -0.8950343   -7.1839461  
H   -3.7406592    1.3372635   -5.4059826  
C   -0.2963294   -0.0005341   -4.3948471  
C    0.7407565   -0.0008427   -5.2643483  
C    0.1250898   -0.0009651   -6.5824732  
C   -1.3291522   -0.0008024   -6.3145845  
N   -1.5822800   -0.0004688   -5.0339928  
C   -2.2982584   -0.0008135   -7.3756780  
C   -1.8356090   -0.0005907   -8.6466189  
O   -2.6263952   -0.0005805   -9.7332184  
C   -0.3739301   -0.0003760   -8.9493653  
O   -0.0244449   -0.0003028  -10.1296537  
C    0.6002563   -0.0004129   -7.8435231  
H    1.7935279   -0.0008810   -5.0390757  
H   -2.0105073   -0.0003708  -10.4880914  
H    1.6500152   -0.0001373   -8.1047447  
C    3.1301143   -0.0010313   -1.7028257  
C    2.5367765   -0.0002767   -0.4864669  
C    1.1089900    0.0001027   -0.7656184  
C    1.0177864   -0.0004150   -2.2415133  
N    2.1993571   -0.0011613   -2.7963824  
C   -0.2459220   -0.0002879   -2.9257116  
C   -1.3675327   -0.0000606   -2.1698519  
O   -2.6129319    0.0000866   -2.6748482  
C   -1.3083588    0.0000910   -0.6783229  
O   -2.3693264    0.0004206   -0.0541685  
C    0.0000000    0.0000000    0.0000000  
H    3.0096014   -0.0001008    0.4807517  
H   -3.1967445    0.0002093   -1.8949025  
H    4.1849272   -0.0015113   -1.9271980  
C    2.5128556    2.1077716    2.9199648  
C    1.9592212    1.6432552    4.0696553  
C    0.8915788    0.7479214    3.6910360  
C    0.8684491    0.7287414    2.2159470  
N    1.8754542    1.5738793    1.8102719  
C    0.0000000    0.0000000    1.4700000  
C   -0.9772830   -0.8200135    2.1664417  
O   -1.8021297   -1.5120829    1.5842315  
C   -0.9711318   -0.8147624    3.7284083  
O   -1.7894187   -1.5009653    4.3257297  
C    0.0140216    0.0115358    4.4216297  
H    2.2638494    1.8988021    5.0689105  
H    0.0117648    0.0094386    5.5031631  
H    3.3327358    2.7953732    2.7900019  
H    2.1123206    1.7707734    0.8551938  
