62

C    7.6600987   -2.1204517   -3.5255248  
C    6.6647882   -1.6588631   -4.3554402  
C    7.2788161   -0.7719969   -5.2887343  
C    8.6619148   -0.7318381   -4.9767213  
N    8.8590136   -1.5603291   -3.8999794  
C    9.5769730    0.0439333   -5.6947979  
C    9.0869243    0.7925716   -6.7472102  
O    9.9368523    1.5676218   -7.4820108  
C    7.7101546    0.7659945   -7.0737321  
O    7.3780296    1.5659234   -8.1475802  
C    6.8068101    0.0011169   -6.3655945  
H    5.6240099   -1.9273799   -4.2948419  
H    9.7437831   -1.7415180   -3.4614208  
H   10.6323179    0.0789942   -5.4619445  
H    9.3975129    2.0002772   -8.1566862  
H    6.4313641    1.4905557   -8.3016828  
H    7.6094191   -2.8038013   -2.6952092  
C    3.1006060    0.0006268   -3.9654947  
C    4.3965753    0.0006907   -4.3711275  
C    4.3857809    0.0007807   -5.8149828  
C    2.9671185    0.0007930   -6.2201829  
N    2.2396186    0.0002982   -5.0524356  
C    2.5349230    0.0012657   -7.5066168  
C    3.5336528    0.0015717   -8.5625879  
O    3.2452525    0.0019411   -9.7521779  
C    5.0419203    0.0013125   -8.1564675  
O    5.8918153    0.0012596   -9.0367734  
C    5.3843457    0.0010806   -6.7363982  
H    5.2614037    0.0004941   -3.7318422  
H    1.4895031    0.0013959   -7.7823117  
H    1.2375717    0.0017396   -4.9981503  
C    3.2798085    0.0005859   -1.4499648  
C    2.5571146    0.0005569   -2.5996553  
C    1.1637437    0.0001551   -2.2210359  
C    1.1336966   -0.0000198   -0.7459471  
N    2.4483513   -0.0001427   -0.3402720  
C    0.0000000    0.0000000    0.0000000  
C   -1.2757366   -0.0000185   -0.6964416  
O   -2.3524595   -0.0000640   -0.1142313  
C   -1.2676493   -0.0000870   -2.2584084  
O   -2.3355759   -0.0004098   -2.8557296  
C    0.0181563    0.0001763   -2.9516295  
H    0.0150795    0.0003323   -4.0331630  
H    4.3498549    0.0008614   -1.3200020  
H    2.7563627    0.0012824    0.6148062  
C    2.5285572    2.1210227    2.9438989  
C    1.9331703    1.6216660    4.0790748  
C    0.8903039    0.7472258    3.6520102  
C    0.8972198    0.7527806    2.2336141  
N    1.9028376    1.5986179    1.8362361  
C    0.0000000    0.0000000    1.4700000  
C   -0.9207814   -0.7726952    2.1506477  
O   -1.8198395   -1.5274828    1.4542253  
C   -0.9436862   -0.7911793    3.5655508  
O   -1.9197945   -1.6098497    4.0950179  
C   -0.0590329   -0.0485852    4.3195194  
H    2.2150357    1.8593692    5.0905303  
H    2.1533708    1.7953814    0.8841339  
H   -2.3621246   -1.9821033    2.1118817  
H   -1.8668290   -1.5649508    5.0545920  
H   -0.1007624   -0.0827977    5.4019087  
H    3.3491200    2.8096064    2.8367138  
