60

C    4.3979181   -2.1252074    3.2372844  
C    5.2141443   -1.6623911    2.2312817  
C    6.1547332   -0.7750121    2.8333210  
C    5.8610733   -0.7358202    4.2204597  
N    4.7877668   -1.5653565    4.4314098  
C    6.5905573    0.0401242    5.1263024  
C    7.6357176    0.7899329    4.6227096  
O    8.3810592    1.5652032    5.4632062  
C    7.9439566    0.7643326    3.2417136  
O    9.0126017    1.5653717    2.8957727  
C    7.2245580   -0.0007151    2.3474575  
H    5.1399695   -1.9304399    1.1912620  
H    4.3611501   -1.7473741    5.3218297  
H    6.3717032    0.0744518    6.1846625  
H    9.0481375    1.9987221    4.9151794  
H    9.1541907    1.4906139    1.9471067  
H    3.5675999   -2.8092617    3.1972810  
C    4.7390840    0.0009613   -1.2727298  
C    5.7159780    0.0017142   -2.2159966  
C    6.9782053    0.0017426   -1.5148412  
C    6.6542735    0.0009093   -0.0754461  
N    5.2807306    0.0008644    0.0037338  
C    7.5764447    0.0002870    0.9201961  
C    8.9818047    0.0006747    0.5493874  
O    9.8878536    0.0002340    1.3724151  
C    9.3478544    0.0018088   -0.9691024  
O   10.5277192    0.0024502   -1.2934180  
C    8.2653746    0.0021245   -1.9499644  
H    5.5691183    0.0023772   -3.2813817  
H    8.5272584    0.0027055   -2.9993165  
H    4.7530487   -0.0011863    0.8573115  
C    3.2798077    0.0005856   -1.4499661  
C    2.5571132    0.0005565   -2.5996564  
C    1.1637425    0.0001547   -2.2210366  
C    1.1336959   -0.0000200   -0.7459475  
N    2.4483509   -0.0001429   -0.3402730  
C    0.0000000    0.0000000    0.0000000  
C   -1.2757370   -0.0000187   -0.6964411  
O   -2.3524597   -0.0000640   -0.1142306  
C   -1.2676502   -0.0000874   -2.2584078  
O   -2.3355774   -0.0004102   -2.8557287  
C    0.0181551    0.0001758   -2.9516297  
H    2.9547342    0.0006074   -3.5989118  
H    0.0150776    0.0003317   -4.0331632  
H    2.7563626    0.0012823    0.6148051  
C    0.8681109    0.7263879    2.2709268  
C    0.6127770    0.5096195    3.5869401  
C   -0.4920590   -0.4175482    3.6542670  
C   -0.8620974   -0.7254003    2.2596025  
N    0.0000000    0.0000000    1.4700000  
C   -1.8641242   -1.5660088    1.8976294  
C   -2.6293522   -2.2103885    2.9520183  
O   -3.5512764   -2.9839180    2.7283916  
C   -2.2549728   -1.8987399    4.4361073  
O   -2.8923672   -2.4351063    5.3323774  
C   -1.1543735   -0.9755647    4.7012123  
H    1.1382914    0.9492124    4.4159191  
H   -2.1192137   -1.7782617    0.8686553  
H   -0.9013378   -0.7652422    5.7314848  
H    1.6172880    1.3558399    1.8188057  
