60

C   -8.4466171    1.1495422   -2.0098157  
C   -9.7604506    0.7476335   -1.9406877  
C   -9.7809834   -0.6549126   -2.1996139  
C   -8.4389001   -1.0569295   -2.4212476  
N   -7.6547243    0.0633916   -2.3005597  
C   -8.0825202   -2.3785538   -2.7060143  
C   -9.0994596   -3.3113921   -2.7678753  
O   -8.8073258   -4.6161785   -3.0421062  
C  -10.4446847   -2.9296397   -2.5500455  
O  -11.3413062   -3.9737571   -2.6461298  
C  -10.7970221   -1.6259576   -2.2693374  
H  -10.6008033    1.3869297   -1.7306853  
H   -7.0615208   -2.6913538   -2.8760660  
H   -9.6486640   -5.0909434   -3.0384505  
H  -12.2257904   -3.6308480   -2.4858027  
H  -11.8359194   -1.3634414   -2.1072987  
H   -8.0118974    2.1253035   -1.8761450  
C   -4.3137496    2.1424313   -0.2077327  
C   -5.5591243    1.7353215   -0.5466749  
C   -5.3648109    0.8246408   -1.6644416  
C   -3.9011718    0.7979212   -1.8733214  
N   -3.2797688    1.5684041   -1.0223196  
C   -3.2941076    0.0012878   -2.9038237  
C   -4.1120066   -0.7354730   -3.6896733  
O   -3.6822295   -1.5242475   -4.6892565  
C   -5.5930509   -0.7299484   -3.5035596  
O   -6.2763273   -1.4248009   -4.2555796  
C   -6.1916588    0.0955201   -2.4395132  
H   -6.4941452    2.0180139   -0.0940188  
H   -4.4926448   -1.9161851   -5.0617686  
H   -4.0287171    2.8244781    0.5774694  
C    0.0000000    0.0000000    0.0000000  
C    1.0541688   -0.0001723   -0.8560392  
C    0.5103136   -0.0000455   -2.1935956  
C   -0.9576373    0.0002461   -2.0455730  
N   -1.2018460   -0.0001389   -0.6915968  
C   -1.8348314    0.0008319   -3.0810607  
C   -1.2972851    0.0009739   -4.4314603  
O   -2.0050676    0.0014268   -5.4301316  
C    0.2542619    0.0004184   -4.6117572  
O    0.7184666    0.0002257   -5.7439122  
C    1.0974551    0.0000873   -3.4189129  
H    2.0940752   -0.0005484   -0.5817983  
H    2.1707276   -0.0000912   -3.5523673  
H   -2.1128194    0.0014915   -0.2706789  
C    0.0000000    0.0000000    1.4700000  
C    1.0541688    0.0001722    2.3260392  
C    0.5103138    0.0000454    3.6635956  
C   -0.9576371   -0.0002459    3.5155732  
N   -1.2018458    0.0001392    2.1615969  
C   -1.8348311   -0.0008317    4.5510609  
C   -1.2972847   -0.0009736    5.9014604  
O   -2.0050672   -0.0014265    6.9001319  
C    0.2542623   -0.0004184    6.0817573  
O    0.7184670   -0.0002256    7.2139121  
C    1.0974552   -0.0000873    4.8889129  
H    2.0940752    0.0005483    2.0517982  
H   -2.9081052   -0.0011668    4.4207061  
H    2.1707277    0.0000911    5.0223670  
H   -2.1128194   -0.0014912    1.7406791  
