64

C   -0.2037668   -0.6658602   -5.1293021  
C   -1.2456348    0.0471599   -4.5828764  
C   -1.8469016    0.7856908   -5.6447853  
C   -1.1232437    0.4804134   -6.8259083  
N   -0.1313209   -0.4022238   -6.4771140  
C   -1.4402575    1.0319879   -8.0709211  
C   -2.5074266    1.9074556   -8.1246301  
O   -2.8603152    2.4745987   -9.3149375  
C   -3.2414392    2.2247936   -6.9570094  
O   -4.2750490    3.1123640   -7.1742964  
C   -2.9290905    1.6812363   -5.7283884  
H    0.5359062   -0.8051115   -7.1099414  
H   -3.6184981    3.0445501   -9.1316930  
H   -4.7191492    3.2731423   -6.3361261  
H   -3.5093883    1.9432793   -4.8514244  
H    0.4942950   -1.3405145   -4.6639960  
C    1.1243404    0.0100049   -0.7919006  
C    0.7474068    0.0234632   -2.1148550  
C   -0.6787393    0.0234422   -2.1414701  
C   -1.1201752    0.0098474   -0.7935547  
N    0.0000000    0.0000000    0.0000000  
C   -2.4730820    0.0063439   -0.4408232  
C   -3.3971966    0.0170608   -1.4675049  
O   -4.7313524    0.0145739   -1.1793457  
C   -2.9763663    0.0303185   -2.8186316  
O   -4.0166495    0.0394681   -3.7247613  
C   -1.6418576    0.0335086   -3.1673478  
H    1.4178700    0.0311139   -2.9571214  
H   -2.8160168   -0.0041421    0.5845972  
H   -5.1938827    0.0230296   -2.0274373  
H   -3.6464696    0.0481902   -4.6127337  
H    2.1062462    0.0053056   -0.3505412  
C    0.2934309   -2.7693679   -9.6626743  
C   -0.3462381   -1.8324581   -8.8845415  
C   -0.2509783   -0.5858257   -9.5711517  
C    0.4634335   -0.8260031  -10.7727583  
N    0.7806727   -2.1614572  -10.7959829  
C    0.7444370    0.1820627  -11.6999198  
C    0.2958148    1.4557297  -11.4089083  
O    0.5424608    2.4773055  -12.2798632  
C   -0.4183324    1.7152934  -10.2149912  
O   -0.7969250    3.0339185  -10.0692553  
C   -0.6956729    0.7213492   -9.2997409  
H   -0.8219292   -2.0237565   -7.9379073  
H    1.2790356   -2.6268420  -11.5328905  
H    1.2885880    0.0055332  -12.6174920  
H    0.1493424    3.2691293  -11.8903299  
H   -1.2733946    3.1234901   -9.2382575  
H    0.4419092   -3.8228755   -9.4982504  
C    0.8175213    0.6860729    2.3021913  
C    0.0000000    0.0000000    1.4700000  
C   -0.8887526   -0.7456559    2.3478473  
C   -0.4549825   -0.3816753    3.7138435  
N    0.5448156    0.4573574    3.6934124  
C   -1.0945674   -0.9182058    4.8835240  
C   -2.1210866   -1.7789155    4.6970523  
O   -2.8083856   -2.3554314    5.6976972  
C   -2.5824069   -2.1655116    3.3310774  
O   -3.5227682   -2.9541547    3.2362962  
C   -1.9100805   -1.6015804    2.1470656  
H   -0.7567140   -0.6349833    5.8697035  
H   -3.4728268   -2.9124471    5.2533954  
H   -2.2742832   -1.9066565    1.1752040  
H    1.6189533    1.3585343    2.0405121  
