64

C   -3.9681781    0.7212692   -2.0574928  
C   -3.2578657    0.0024038   -2.9908501  
C   -4.2079312   -0.7249070   -3.7673780  
C   -5.4928337   -0.4070758   -3.2575406  
N   -5.3109899    0.4719187   -2.2188306  
C   -6.6702840   -0.9454748   -3.7852959  
C   -6.5484325   -1.8204302   -4.8472676  
O   -7.6659791   -2.3749797   -5.4009617  
C   -5.2751705   -2.1501798   -5.3696517  
O   -5.3203493   -3.0355026   -6.4267734  
C   -4.1131455   -1.6196243   -4.8493302  
H   -6.0450863    0.8815467   -1.6699334  
H   -7.6525968   -0.7073695   -3.4011482  
H   -7.3607867   -2.9469131   -6.1172116  
H   -4.4199147   -3.2051863   -6.7200807  
H   -3.1520870   -1.8909908   -5.2702876  
H   -3.6231050    1.3910304   -1.2885303  
C    0.0000000    0.0000000    0.0000000  
C    1.0521666   -0.0011902   -0.8862342  
C    0.4917215   -0.0011958   -2.1979130  
C   -0.9187431    0.0003147   -2.0478680  
N   -1.1833172   -0.0009412   -0.7007911  
C   -1.7951703    0.0010349   -3.1372087  
C   -1.2375842    0.0005222   -4.4010418  
O   -2.0474221    0.0015357   -5.4997576  
C    0.1673575   -0.0013569   -4.5711960  
O    0.5673518   -0.0020691   -5.8915554  
C    1.0325767   -0.0023415   -3.4969891  
H    2.0953058   -0.0030650   -0.6200564  
H   -2.0989777    0.0102372   -0.2891820  
H   -1.4634890    0.0006494   -6.2693593  
H    1.5290704   -0.0033156   -5.9180047  
C    2.4861699   -0.0045385   -3.7159923  
C    3.4691531   -0.0057445   -2.7857655  
C    4.7077408   -0.0077550   -3.5489145  
C    4.2744108   -0.0075892   -4.9627070  
N    2.9732083   -0.0056266   -5.0669060  
C    5.2170311   -0.0092341   -6.0473960  
C    6.5327395   -0.0105771   -5.7339562  
O    7.5212016   -0.0121913   -6.6444405  
C    7.0015507   -0.0104097   -4.3167839  
O    8.2141956   -0.0118101   -4.1053336  
C    6.0150636   -0.0087523   -3.2219029  
H    3.3664293   -0.0052318   -1.7140735  
H    4.8722761   -0.0092776   -7.0711408  
H    8.3418870   -0.0128291   -6.1194379  
H    6.3952607   -0.0085686   -2.2091444  
C    0.0000000    0.0000000    1.4700000  
C    1.0521667    0.0011902    2.3562342  
C    0.4917218    0.0011957    3.6679131  
C   -0.9187428   -0.0003148    3.5178682  
N   -1.1833171    0.0009411    2.1707914  
C   -1.7951701   -0.0010350    4.6072090  
C   -1.2375837   -0.0005224    5.8710424  
O   -2.0474215   -0.0015360    6.9697579  
C    0.1673580    0.0013566    6.0411963  
O    0.5673524    0.0020687    7.3615553  
C    1.0325770    0.0023412    4.9669890  
H    2.0953057    0.0030649    2.0900562  
H   -2.0989778   -0.0102372    1.7591824  
H   -2.8710934   -0.0020419    4.4995513  
H   -1.4634884   -0.0006497    7.7393593  
H    1.5290710    0.0033153    7.3880045  
H    2.1042148    0.0039609    5.1284455  
