64

C    6.0156371   -2.4192941   -2.4495604  
C    7.2965717   -2.6300594   -1.9943114  
C    8.0024998   -1.4008421   -2.1533403  
C    7.0931119   -0.4682542   -2.7147849  
N    5.8966118   -1.1197794   -2.8836617  
C    7.4483448    0.8518017   -3.0081296  
C    8.7451380    1.2375265   -2.7293441  
O    9.1449840    2.5150902   -2.9957398  
C    9.6671755    0.3214472   -2.1694665  
O   10.9194982    0.8571679   -1.9502959  
C    9.3174982   -0.9810504   -1.8800678  
H    7.6758585   -3.5561890   -1.5975496  
H    6.7599820    1.5674106   -3.4362209  
H   10.0720848    2.5720121   -2.7302044  
H   11.4805906    0.1737177   -1.5712510  
H   10.0454909   -1.6600201   -1.4516925  
H    5.1779011   -3.0935219   -2.5002878  
C    3.4064263   -0.7320625   -2.9766959  
C    4.6700292   -0.5172673   -3.4253010  
C    4.5733625    0.4097445   -4.5280884  
C    3.1395862    0.7196553   -4.6863013  
N    2.4861704   -0.0045255   -3.7159919  
C    2.6336011    1.5607522   -5.6234456  
C    3.5631609    2.2035229   -6.5373928  
O    3.2058138    2.9773390   -7.4159216  
C    5.0860051    1.8896826   -6.3882094  
O    5.8780974    2.4246821   -7.1521632  
C    5.5107674    0.9661680   -5.3391381  
H    1.5784189    1.7745252   -5.7224478  
H    6.5669304    0.7543238   -5.2423611  
H    3.0700428   -1.3608030   -2.1683513  
C    0.0000000    0.0000000    0.0000000  
C    1.0521669   -0.0011848   -0.8862341  
C    0.4917221   -0.0011931   -2.1979130  
C   -0.9187427    0.0003100   -2.0478683  
N   -1.1833170   -0.0009472   -0.7007915  
C   -1.7951698    0.0010259   -3.1372090  
C   -1.2375835    0.0005161   -4.4010425  
O   -2.0474208    0.0015256   -5.4997580  
C    0.1673584   -0.0013557   -4.5711962  
O    0.5673529   -0.0020659   -5.8915551  
C    1.0325773   -0.0023359   -3.4969890  
H    2.0953059   -0.0030542   -0.6200560  
H   -2.0989777    0.0102265   -0.2891825  
H   -2.8710930    0.0020274   -3.0295514  
H   -1.4634881    0.0006427   -6.2693593  
H    1.5290715   -0.0033076   -5.9180042  
C    3.3041272   -0.0001177    3.0120429  
C    2.5845372    0.0004780    1.8395852  
C    1.2040006    0.0000008    2.1983588  
C    1.1422373   -0.0006037    3.6154372  
N    2.4348639   -0.0026109    4.0777464  
C   -0.0655181   -0.0008797    4.3197917  
C   -1.2321768   -0.0002324    3.5801400  
O   -2.4392816   -0.0001146    4.2172520  
C   -1.1911209    0.0000007    2.1655264  
O   -2.4371527    0.0002320    1.5732860  
C    0.0000000    0.0000000    1.4700000  
H    3.0031534    0.0000661    0.8477417  
H    2.7054629    0.0071099    5.0445261  
H   -0.1193549   -0.0014844    5.3997470  
H   -3.1132988    0.0000648    3.5251786  
H   -2.3200282    0.0004071    0.6183591  
H    4.3686625   -0.0004071    3.1724291  
