62

C    0.1108283   -3.2266312  -10.3101225  
C    0.0463444   -2.5207894   -9.1310988  
C   -0.2115507   -1.1604086   -9.4738159  
C   -0.2954504   -1.0962557  -10.8883018  
N   -0.0931192   -2.3677657  -11.3646864  
C   -0.5415358    0.0947308  -11.5780709  
C   -0.7062213    1.2417991  -10.8262128  
O   -0.9490804    2.4319235  -11.4488180  
C   -0.6256799    1.1981081   -9.4139734  
O   -0.8114108    2.4237466   -8.8084504  
C   -0.3826699    0.0235705   -8.7328456  
H    0.1710633   -2.9352073   -8.1453526  
H   -0.1060268   -2.6337273  -12.3327136  
H   -0.6065092    0.1503106  -12.6559816  
H   -1.0302508    3.0940537  -10.7500619  
H   -0.7415359    2.3062040   -7.8561354  
H    0.2875872   -4.2745148  -10.4823309  
C    2.2783848   -2.0910257   -5.9524491  
C    1.7853127   -1.6292412   -4.7744381  
C    0.6997750   -0.7327360   -5.0949402  
C    0.6001070   -0.7099364   -6.5667883  
N    1.5849254   -1.5536735   -7.0262771  
C   -0.3061439    0.0202236   -7.2648431  
C   -1.2459581    0.8383996   -6.5165965  
O   -2.1000519    1.5316274   -7.0534957  
C   -1.1584127    0.8296992   -4.9570889  
O   -1.9441938    1.5148020   -4.3164307  
C   -0.1387079    0.0017019   -4.3179684  
H    2.1415245   -1.8870541   -3.7929803  
H    3.0901479   -2.7785183   -6.1264730  
H    1.7699542   -1.7505092   -7.9927487  
C    3.3041273    0.0001178   -1.5420428  
C    2.5845373   -0.0004780   -0.3695851  
C    1.2040007   -0.0000007   -0.7283589  
C    1.1422374    0.0006038   -2.1454372  
N    2.4348641    0.0026111   -2.6077464  
C   -0.0655179    0.0008799   -2.8497918  
C   -1.2321766    0.0002325   -2.1101402  
O   -2.4392814    0.0001148   -2.7472522  
C   -1.1911209   -0.0000007   -0.6955266  
O   -2.4371528   -0.0002320   -0.1032862  
C    0.0000000    0.0000000    0.0000000  
H    3.0031533   -0.0000660    0.6222584  
H    2.7054631   -0.0071097   -3.5745261  
H   -3.1132988   -0.0000648   -2.0551787  
H   -2.3200282   -0.0004072    0.8516409  
H    4.3686625    0.0004073   -1.7024290  
C    0.8400945    0.7047457    2.2710304  
C    0.0000000    0.0000000    1.4700000  
C   -0.8844236   -0.7423113    2.3369512  
C   -0.4878984   -0.4098547    3.7186280  
N    0.5629682    0.4714286    3.6095011  
C   -1.0836927   -0.9095027    4.8308716  
C   -2.1891196   -1.8367527    4.6554461  
O   -2.7906899   -2.3413415    5.5944904  
C   -2.6257283   -2.2031529    3.2011665  
O   -3.5549479   -2.9829990    3.0410059  
C   -1.9068976   -1.5999348    2.0816745  
H   -0.7774656   -0.6525820    5.8354244  
H   -2.2155208   -1.8586617    1.0779135  
H    1.6384792    1.3747609    1.9961646  
H    1.0518368    0.8833920    4.3830260  
