62

C    3.6708299   -2.1264865   -4.4633589  
C    4.9122221   -1.6286606   -4.7852006  
C    4.7343565   -0.7537660   -5.8976404  
C    3.3514676   -0.7574784   -6.2131241  
N    2.7349448   -1.6027035   -5.3242420  
C    2.8126089   -0.0037922   -7.2602046  
C    3.6856291    0.7679308   -8.0021330  
O    3.2126251    1.5235366   -9.0357387  
C    5.0687655    0.7845755   -7.7030105  
O    5.8071844    1.6024645   -8.5331533  
C    5.6010984    0.0410873   -6.6703572  
H    5.8328948   -1.8676503   -4.2809794  
H    1.7505693   -1.7982065   -5.2965880  
H    3.9768622    1.9772511   -9.4143538  
H    6.7295800    1.5563248   -8.2635947  
H    6.6647113    0.0738904   -6.4651023  
H    3.3791537   -2.8148518   -3.6887390  
C   -0.8712823    0.0001712   -4.7267111  
C    0.4339910   -0.0007924   -5.1611391  
C    0.3982147   -0.0008750   -6.5870849  
C   -0.9677830    0.0003575   -6.9691518  
N   -1.7116540   -0.0009829   -5.8153444  
C   -1.3793555    0.0009339   -8.3053389  
C   -0.3940115    0.0005606   -9.2734678  
O   -0.7402460    0.0014435  -10.5937458  
C    0.9742899   -0.0010408   -8.9121275  
O    1.8341074   -0.0016430   -9.9910415  
C    1.3810435   -0.0018835   -7.5941454  
H    1.3048042   -0.0024708   -4.5281506  
H   -2.7146164    0.0100072   -5.7714419  
H   -2.4188447    0.0017287   -8.6031023  
H    0.0868493    0.0006900  -11.0929228  
H    2.7374600   -0.0027016   -9.6600480  
C    1.0965515    0.0001358   -0.8010304  
C    0.0000000    0.0000000    0.0000000  
C   -1.1546562    0.0001470   -0.8669514  
C   -0.6372012    0.0003520   -2.2486282  
N    0.7342873    0.0007338   -2.1395014  
C   -1.4147737    0.0001354   -3.3608717  
C   -2.8576047   -0.0001047   -3.1854463  
O   -3.6427778   -0.0002491   -4.1244908  
C   -3.4275837   -0.0000725   -1.7311667  
O   -4.6406828    0.0000333   -1.5710061  
C   -2.4891866   -0.0001090   -0.6116745  
H   -2.8919121   -0.0002919    0.3920865  
H    2.1388272    0.0000662   -0.5261647  
H    1.3735873   -0.0006098   -2.9130261  
C    0.8400945    0.7047457    2.2710304  
C    0.0000000    0.0000000    1.4700000  
C   -0.8844236   -0.7423113    2.3369512  
C   -0.4878984   -0.4098547    3.7186280  
N    0.5629682    0.4714286    3.6095011  
C   -1.0836927   -0.9095027    4.8308716  
C   -2.1891196   -1.8367527    4.6554461  
O   -2.7906899   -2.3413415    5.5944904  
C   -2.6257283   -2.2031529    3.2011665  
O   -3.5549479   -2.9829990    3.0410059  
C   -1.9068976   -1.5999348    2.0816745  
H   -0.7774656   -0.6525820    5.8354244  
H   -2.2155208   -1.8586617    1.0779135  
H    1.6384792    1.3747609    1.9961646  
H    1.0518368    0.8833920    4.3830260  
