62

C    4.6807935   -3.0330185   -0.2248289  
C    3.8483253   -3.6829523    0.6566754  
C    4.6771948   -4.4755839    1.5047963  
C    6.0174673   -4.2668035    1.0900590  
N    5.9837067   -3.3871119    0.0366737  
C    7.1058384   -4.8919281    1.7060604  
C    6.8363262   -5.7430897    2.7601309  
O    7.8619453   -6.3792525    3.3976370  
C    5.5057451   -5.9645473    3.1882987  
O    5.4017928   -6.8394357    4.2499519  
C    4.4315314   -5.3483946    2.5808894  
H    2.7755298   -3.5972557    0.6842323  
H    6.7867030   -3.0432492   -0.4582368  
H    8.1296757   -4.7371164    1.3946228  
H    7.4599520   -6.9173847    4.0919571  
H    4.4715231   -6.9335473    4.4765463  
H    3.4234430   -5.5376685    2.9307633  
C    4.3630985   -2.0949034   -1.3110658  
C    3.1522516   -1.6320801   -1.7156888  
C    3.3924174   -0.7354490   -2.8216762  
C    4.8529073   -0.7137072   -3.0297350  
N    5.3832068   -1.5581148   -2.0817647  
C    5.4827044    0.0162383   -3.9848463  
C    4.6677385    0.8352842   -4.8666226  
O    5.1406420    1.5283997   -5.7578315  
C    3.1189441    0.8277105   -4.6641776  
O    2.4225428    1.5135518   -5.4003219  
C    2.5562217   -0.0001543   -3.6003001  
H    2.1995754   -1.8892845   -1.2880585  
H    6.5552965    0.0179184   -4.1206912  
H    6.3605512   -1.7557290   -1.9686522  
C    0.0000000    0.0000000    0.0000000  
C    1.0541688   -0.0001719   -0.8560391  
C    0.5103141   -0.0000449   -2.1935955  
C   -0.9576367    0.0002461   -2.0455733  
N   -1.2018459   -0.0001392   -0.6915970  
C   -1.8348306    0.0008319   -3.0810611  
C   -1.2972842    0.0009739   -4.4314605  
O   -2.0050664    0.0014267   -5.4301321  
C    0.2542628    0.0004190   -4.6117571  
O    0.7184677    0.0002263   -5.7439119  
C    1.0974556    0.0000880   -3.4189127  
H    2.0940752   -0.0005479   -0.5817978  
H   -2.9081050    0.0011669   -2.9507065  
H   -2.1128195    0.0014911   -0.2706793  
C    1.1188642   -0.0008217    2.2703808  
C    0.0000000    0.0000000    1.4700000  
C   -1.1323862   -0.0008904    2.3373528  
C   -0.6382662   -0.0019682    3.6669281  
N    0.7324016   -0.0038477    3.5902241  
C   -1.4770914   -0.0027325    4.7854808  
C   -2.8395474   -0.0020958    4.5576857  
O   -3.7039201   -0.0024443    5.6140350  
C   -3.3517868   -0.0013946    3.2384331  
O   -4.7300496   -0.0012389    3.1773122  
C   -2.5248543   -0.0009135    2.1344818  
H    1.3576314    0.0056174    4.3757045  
H   -1.1067570   -0.0036993    5.8013813  
H   -4.5940033   -0.0021850    5.2385129  
H   -4.9934601   -0.0007286    2.2519915  
H   -2.9462578   -0.0005617    1.1360343  
H    2.1619896   -0.0009344    2.0042067  
