62

C    9.0469771   -0.0039984   -3.8087258  
C    9.6934338   -0.0044578   -2.5944109  
C   11.0933466   -0.0049808   -2.8679891  
C   11.2417541   -0.0045246   -4.2786278  
N    9.9798570   -0.0058834   -4.8192115  
C   12.4903671   -0.0045445   -4.9077164  
C   13.6095530   -0.0047269   -4.0980237  
O   14.8534001   -0.0044038   -4.6600356  
C   13.4819635   -0.0055572   -2.6885779  
O   14.6893990   -0.0060622   -2.0211611  
C   12.2504948   -0.0058112   -2.0672823  
H    9.2148777   -0.0055256   -1.6300583  
H    9.7689583    0.0046330   -5.8007370  
H   12.6102236   -0.0043424   -5.9823499  
H   15.4837810   -0.0049044   -3.9279941  
H   14.5140292   -0.0065845   -1.0751960  
H   12.1841434   -0.0066333   -0.9855823  
C    5.6039774   -0.0017519   -1.1379128  
C    4.5679461   -0.0016854   -2.0086701  
C    5.1852102   -0.0025558   -3.3260480  
C    6.6391264   -0.0029689   -3.0563963  
N    6.8907016   -0.0025813   -1.7754983  
C    7.6095176   -0.0038927   -4.1163141  
C    7.1484091   -0.0047707   -5.3878142  
O    7.9405116   -0.0056807   -6.4734539  
C    5.6870988   -0.0047546   -5.6923317  
O    5.3390439   -0.0054591   -6.8730423  
C    4.7115722   -0.0037537   -4.5876724  
H    7.3255395   -0.0061822   -7.2290736  
H    3.6621309   -0.0038907   -4.8501666  
H    5.5656913   -0.0012540   -0.0601801  
C    3.1301149   -0.0010311   -1.7028252  
C    2.5367768   -0.0002767   -0.4864665  
C    1.1089904    0.0001028   -0.7656183  
C    1.0177872   -0.0004148   -2.2415132  
N    2.1993578   -0.0011611   -2.7963820  
C   -0.2459209   -0.0002877   -2.9257118  
C   -1.3675319   -0.0000605   -2.1698524  
O   -2.6129313    0.0000867   -2.6748490  
C   -1.3083584    0.0000910   -0.6783232  
O   -2.3693261    0.0004206   -0.0541692  
C    0.0000000    0.0000000    0.0000000  
H    3.0096017   -0.0001007    0.4807525  
H   -0.2829630   -0.0004687   -4.0053125  
H   -3.1967441    0.0002094   -1.8949034  
C    0.8576279    0.7185626    2.2703808  
C    0.0000000    0.0000000    1.4700000  
C   -0.8668858   -0.7285659    2.3373528  
C   -0.4876752   -0.4117774    3.6669281  
N    0.5635254    0.4678311    3.5902241  
C   -1.1297612   -0.9515493    4.7854808  
C   -2.1738724   -1.8268314    4.5576857  
O   -2.8357962   -2.3827064    5.6140350  
C   -2.5667212   -2.1555554    3.2384331  
O   -3.6226318   -3.0413663    3.1773122  
C   -1.9335634   -1.6236449    2.1344818  
H    1.0363952    0.8769718    4.3757045  
H   -0.8454472   -0.7142436    5.8013813  
H   -3.5178062   -2.9546422    5.2385129  
H   -3.8247440   -3.2102924    2.2519915  
H   -2.2566033   -1.8942483    1.1360343  
H    1.6567807    1.3889844    2.0042067  
