60

C   10.9550836   -2.1222261    0.0943326  
C    9.7223347   -1.6606510   -0.3053463  
C    9.9447103   -0.7739433   -1.4002886  
C   11.3445293   -0.7338630   -1.6257352  
N   11.9283661   -1.5622464   -0.6997041  
C   11.9264233    0.0417497   -2.6330151  
C   11.0797602    0.7903072   -3.4273706  
O   11.5949812    1.5652021   -4.4259199  
C    9.6804131    0.7638064   -3.2177479  
O    8.9723370    1.5636389   -4.0908108  
C    9.1056899   -0.0009146   -2.2240571  
H    8.7789578   -1.9290746    0.1384798  
H   12.9128062   -1.7434580   -0.6221148  
H   12.9925820    0.0767498   -2.8098830  
H   10.8432160    1.9978245   -4.8513054  
H    8.0363639    1.4883320   -3.8813167  
H   11.2172049   -2.8054761    0.8839032  
C    6.5597224   -0.0008209    1.3835014  
C    7.6114515   -0.0009111    0.5244666  
C    7.0637929   -0.0009868   -0.8115369  
C    5.5962696   -0.0009036   -0.6593385  
N    5.3559136   -0.0012035    0.6953269  
C    4.7161325   -0.0005435   -1.6923264  
C    5.2498343   -0.0004421   -3.0442497  
O    4.5392134   -0.0001859   -4.0409037  
C    6.8008623   -0.0007795   -3.2289604  
O    7.2618442   -0.0010042   -4.3624314  
C    7.6474458   -0.0008759   -2.0385198  
H    8.6521340   -0.0011057    0.7957479  
H    6.5627892   -0.0007236    2.4614074  
H    4.4461412    0.0003273    1.1188351  
C    3.2573665   -0.0002920   -1.5109385  
C    2.5379463   -0.0001709   -0.3591964  
C    1.1435038    0.0000331   -0.7338500  
C    1.1092599   -0.0000083   -2.2088477  
N    2.4227553    0.0001909   -2.6182613  
C   -0.0265539   -0.0002524   -2.9515660  
C   -1.3003040   -0.0002640   -2.2514977  
O   -2.3786790   -0.0004133   -2.8306421  
C   -1.2877727    0.0000311   -0.6895603  
O   -2.3539959    0.0003306   -0.0892030  
C    0.0000000    0.0000000    0.0000000  
H    2.9384091   -0.0000367    0.6389234  
H   -0.0296303   -0.0004086   -4.0327229  
H    2.7280482   -0.0013407   -3.5742119  
C    0.8681109    0.7263879    2.2709268  
C    0.6127770    0.5096195    3.5869401  
C   -0.4920590   -0.4175482    3.6542670  
C   -0.8620974   -0.7254003    2.2596025  
N    0.0000000    0.0000000    1.4700000  
C   -1.8641242   -1.5660088    1.8976294  
C   -2.6293522   -2.2103885    2.9520183  
O   -3.5512764   -2.9839180    2.7283916  
C   -2.2549728   -1.8987399    4.4361073  
O   -2.8923672   -2.4351063    5.3323774  
C   -1.1543735   -0.9755647    4.7012123  
H    1.1382914    0.9492124    4.4159191  
H   -2.1192137   -1.7782617    0.8686553  
H   -0.9013378   -0.7652422    5.7314848  
H    1.6172880    1.3558399    1.8188057  
