62

C   -0.8516992   -0.5370542   -9.4229390  
C   -1.1788610    0.6938442   -8.9030145  
C   -1.1958570    1.6147181   -9.9921901  
C   -0.8688616    0.8820013  -11.1618589  
N   -0.6641514   -0.4207599  -10.7803826  
C   -0.7926757    1.4718647  -12.4271819  
C   -1.0515989    2.8260111  -12.5133486  
O   -0.9914506    3.4524196  -13.7245476  
C   -1.3791771    3.5742227  -11.3576279  
O   -1.6090918    4.9113445  -11.6078015  
C   -1.4542527    2.9930190  -10.1089918  
H   -0.4279535   -1.1761022  -11.3981593  
H   -0.5438294    0.9189740  -13.3224994  
H   -1.2026796    4.3810606  -13.5624601  
H   -1.8236818    5.3439459  -10.7756899  
H   -1.7073437    3.5917512   -9.2418461  
H   -0.7358921   -1.4884655   -8.9326705  
C    0.6885596   -0.7240816   -5.1615363  
C    0.3679863   -0.5066236   -6.4630814  
C   -0.7389728    0.4203823   -6.4747905  
C   -1.0391602    0.7273879   -5.0632572  
N   -0.1387079    0.0017019   -4.3179684  
C   -2.0220498    1.5676130   -4.6513664  
C   -2.8389243    2.2124441   -5.6659819  
O   -3.7486888    2.9856822   -5.3962920  
C   -2.5388529    1.9016926   -7.1670468  
O   -3.2201631    2.4384450   -8.0301652  
C   -1.4526772    0.9788645   -7.4871443  
H    0.8516418   -0.9456581   -7.3174464  
H   -2.2256239    1.7792448   -3.6108473  
H    1.4594144   -1.3536511   -4.7476343  
C    3.3041273    0.0001178   -1.5420428  
C    2.5845373   -0.0004780   -0.3695851  
C    1.2040007   -0.0000007   -0.7283589  
C    1.1422374    0.0006038   -2.1454372  
N    2.4348641    0.0026111   -2.6077464  
C   -0.0655179    0.0008799   -2.8497918  
C   -1.2321766    0.0002325   -2.1101402  
O   -2.4392814    0.0001148   -2.7472522  
C   -1.1911209   -0.0000007   -0.6955266  
O   -2.4371528   -0.0002320   -0.1032862  
C    0.0000000    0.0000000    0.0000000  
H    3.0031533   -0.0000660    0.6222584  
H    2.7054631   -0.0071097   -3.5745261  
H   -3.1132988   -0.0000648   -2.0551787  
H   -2.3200282   -0.0004072    0.8516409  
H    4.3686625    0.0004073   -1.7024290  
C    0.8175213    0.6860729    2.3021913  
C    0.0000000    0.0000000    1.4700000  
C   -0.8887526   -0.7456559    2.3478473  
C   -0.4549825   -0.3816753    3.7138435  
N    0.5448156    0.4573574    3.6934124  
C   -1.0945674   -0.9182058    4.8835240  
C   -2.1210866   -1.7789155    4.6970523  
O   -2.8083856   -2.3554314    5.6976972  
C   -2.5824069   -2.1655116    3.3310774  
O   -3.5227682   -2.9541547    3.2362962  
C   -1.9100805   -1.6015804    2.1470656  
H   -0.7567140   -0.6349833    5.8697035  
H   -3.4728268   -2.9124471    5.2533954  
H   -2.2742832   -1.9066565    1.1752040  
H    1.6189533    1.3585343    2.0405121  
