62

C    5.0302330   -4.3026657   -3.6641167  
C    5.7059222   -4.9124961   -4.6956293  
C    5.1072697   -4.4619703   -5.9094009  
C    4.0627429   -3.5711087   -5.5526718  
N    4.0420509   -3.4984852   -4.1819364  
C    3.2555523   -2.9340594   -6.4999842  
C    3.5075905   -3.2009612   -7.8316816  
O    2.7496411   -2.6055290   -8.7981114  
C    4.5450216   -4.0871574   -8.2074609  
O    4.6703254   -4.2496202   -9.5717364  
C    5.3415533   -4.7161844   -7.2734428  
H    6.5283300   -5.5986124   -4.5866201  
H    3.4124762   -2.9345564   -3.6400863  
H    3.0873789   -2.9244972   -9.6451393  
H    5.3925277   -4.8625824   -9.7399777  
H    6.1285163   -5.3900446   -7.5913732  
H    5.1740742   -4.3788227   -2.5999422  
C    2.1709843   -2.0097061   -6.1391748  
C    1.7780130   -1.6284992   -4.9015021  
C    0.6718283   -0.7104846   -5.1253424  
C    0.5282247   -0.6514440   -6.5958784  
N    1.4042466   -1.4110426   -7.1955321  
C   -0.4727377    0.1611588   -7.2305732  
C   -1.2932051    0.8817142   -6.4324705  
O   -2.2712225    1.6824660   -6.8888906  
C   -1.1735669    0.8429683   -4.9450744  
O   -1.9541224    1.5247033   -4.2808521  
C   -0.1387079    0.0017019   -4.3179684  
H    2.1880843   -1.9327664   -3.9536948  
H   -0.5549505    0.1854289   -8.3074023  
H   -2.6790395    2.0573116   -6.0874366  
C    3.3041273    0.0001178   -1.5420428  
C    2.5845373   -0.0004780   -0.3695851  
C    1.2040007   -0.0000007   -0.7283589  
C    1.1422374    0.0006038   -2.1454372  
N    2.4348641    0.0026111   -2.6077464  
C   -0.0655179    0.0008799   -2.8497918  
C   -1.2321766    0.0002325   -2.1101402  
O   -2.4392814    0.0001148   -2.7472522  
C   -1.1911209   -0.0000007   -0.6955266  
O   -2.4371528   -0.0002320   -0.1032862  
C    0.0000000    0.0000000    0.0000000  
H    3.0031533   -0.0000660    0.6222584  
H    2.7054631   -0.0071097   -3.5745261  
H   -3.1132988   -0.0000648   -2.0551787  
H   -2.3200282   -0.0004072    0.8516409  
H    4.3686625    0.0004073   -1.7024290  
C    2.4951002    2.0940188    2.9809380  
C    1.9440701    1.6314916    1.8291961  
C    0.8759964    0.7350050    2.2038498  
C    0.8497377    0.7130254    3.6788474  
N    1.8560616    1.5571714    4.0882609  
C   -0.0205033   -0.0168748    4.4215661  
C   -0.9962600   -0.8356168    3.7214979  
O   -1.8224391   -1.5286685    4.3006425  
C   -0.9864710   -0.8277881    2.1595606  
O   -1.8030528   -1.5133726    1.5592035  
C    0.0000000    0.0000000    1.4700000  
H    2.2509283    1.8888011    0.8310761  
H   -0.0229599   -0.0187323    5.5027230  
H    3.3143982    2.7817323    3.1139444  
H    2.0889452    1.7545833    5.0442112  
