62

C    2.1913915   -2.1152471   -8.3153612  
C    3.1838601   -2.9652471   -8.7454466  
C    3.1306835   -2.9799980  -10.1707722  
C    2.0771125   -2.1123747  -10.5569637  
N    1.5266219   -1.6054825   -9.4060352  
C    1.7378066   -1.8830457  -11.8937766  
C    2.4757105   -2.5413386  -12.8583121  
O    2.1869897   -2.3532910  -14.1790271  
C    3.5304373   -3.4112700  -12.4928159  
O    4.1699415   -3.9920938  -13.5684658  
C    3.8655495   -3.6381910  -11.1742061  
H    3.8619469   -3.5087522   -8.1099981  
H    0.7653697   -0.9521488   -9.3656482  
H    0.9358476   -1.2231014  -12.1946723  
H    2.8117491   -2.8979212  -14.6753327  
H    4.8679372   -4.5639836  -13.2347771  
H    4.6783855   -4.3101772  -10.9247868  
C    2.3446874   -2.1385762   -5.7825610  
C    1.7992132   -1.7303704   -6.9519218  
C    0.7308356   -0.8198485   -6.5697985  
C    0.7735876   -0.7944101   -5.0919255  
N    1.7176445   -1.5654467   -4.6247547  
C   -0.1387079    0.0017019   -4.3179684  
C   -1.0519384    0.7391881   -4.9898748  
O   -1.9638773    1.5275963   -4.3958877  
C   -1.1200787    0.7349603   -6.4810152  
O   -1.9771128    1.4304197   -7.0260375  
C   -0.1732949   -0.0899946   -7.2523616  
H   -2.4685598    1.9202485   -5.1309198  
H   -0.2553884   -0.0654081   -8.3307329  
H    3.1667835   -2.8208807   -5.6356215  
C    3.3041273    0.0001178   -1.5420428  
C    2.5845373   -0.0004780   -0.3695851  
C    1.2040007   -0.0000007   -0.7283589  
C    1.1422374    0.0006038   -2.1454372  
N    2.4348641    0.0026111   -2.6077464  
C   -0.0655179    0.0008799   -2.8497918  
C   -1.2321766    0.0002325   -2.1101402  
O   -2.4392814    0.0001148   -2.7472522  
C   -1.1911209   -0.0000007   -0.6955266  
O   -2.4371528   -0.0002320   -0.1032862  
C    0.0000000    0.0000000    0.0000000  
H    3.0031533   -0.0000660    0.6222584  
H    2.7054631   -0.0071097   -3.5745261  
H   -3.1132988   -0.0000648   -2.0551787  
H   -2.3200282   -0.0004072    0.8516409  
H    4.3686625    0.0004073   -1.7024290  
C    0.8681109    0.7263879    2.2709268  
C    0.6127770    0.5096195    3.5869401  
C   -0.4920590   -0.4175482    3.6542670  
C   -0.8620974   -0.7254003    2.2596025  
N    0.0000000    0.0000000    1.4700000  
C   -1.8641242   -1.5660088    1.8976294  
C   -2.6293522   -2.2103885    2.9520183  
O   -3.5512764   -2.9839180    2.7283916  
C   -2.2549728   -1.8987399    4.4361073  
O   -2.8923672   -2.4351063    5.3323774  
C   -1.1543735   -0.9755647    4.7012123  
H    1.1382914    0.9492124    4.4159191  
H   -2.1192137   -1.7782617    0.8686553  
H   -0.9013378   -0.7652422    5.7314848  
H    1.6172880    1.3558399    1.8188057  
