64

C    7.4383002   -3.0514285   -7.0130057  
C    6.9128533   -1.8283877   -6.6658103  
C    7.3483941   -0.8932900   -7.6509471  
C    8.1431189   -1.6096322   -8.5821795  
N    8.1787355   -2.9167429   -8.1640770  
C    8.7399702   -1.0029387   -9.6914496  
C    8.5304902    0.3515127   -9.8639532  
O    9.0897242    0.9939910  -10.9304862  
C    7.7409830    1.0835302   -8.9454521  
O    7.6269723    2.4231997   -9.2546942  
C    7.1520919    0.4857189   -7.8507578  
H    8.6590301   -3.6632297   -8.6331779  
H    9.3469073   -1.5433001  -10.4047787  
H    8.8224526    1.9198341  -10.8623354  
H    7.0786722    2.8442092   -8.5855748  
H    6.5527907    1.0722778   -7.1642702  
H    7.3446694   -4.0088981   -6.5298452  
C    6.2380164   -2.1231803   -4.2495876  
C    5.2558084   -1.6611809   -3.4044311  
C    4.4368138   -0.7737767   -4.1636163  
C    4.9722984   -0.7337287   -5.4764673  
N    6.0663543   -1.5628009   -5.4937160  
C    4.4150850    0.0424761   -6.4971575  
C    3.2967536    0.7916694   -6.1869599  
O    2.7123220    1.5671591   -7.1461625  
C    2.7480081    0.7652114   -4.8827381  
O    1.6345600    1.5657141   -4.7318326  
C    3.2973506   -0.0000934   -3.8752374  
H    5.1440869   -1.9297760   -2.3679137  
H    4.8185283    0.0774551   -7.4997595  
H    1.9582890    2.0001610   -6.7251999  
H    1.3266647    1.4903898   -3.8234657  
H    7.0482930   -2.8069874   -4.0629902  
C    3.3321174    0.0004714   -1.3379332  
C    2.6974186    0.0000115   -2.5332308  
C    1.2800441   -0.0002119   -2.2052838  
C    1.2395035    0.0000643   -0.7271293  
N    2.4394063    0.0005458   -0.2131034  
C    0.0000000    0.0000000    0.0000000  
C   -1.1468701    0.0000634   -0.7169542  
O   -2.3742201    0.0000072   -0.1695492  
C   -1.1388767    0.0001606   -2.2096354  
O   -2.2206229    0.0000903   -2.7970413  
C    0.1454526    0.0001815   -2.9324239  
H   -2.9844344    0.0001023   -0.9290168  
H    0.1083580    0.0003680   -4.0135594  
H    4.3940040    0.0007617   -1.1498630  
C    2.5311839    2.1237619    3.0120429  
C    1.9795631    1.6616747    1.8395852  
C    0.9223175    0.7739173    2.1983588  
C    0.8753926    0.7337535    3.6154372  
N    1.8668922    1.5631002    4.0777464  
C   -0.0496243   -0.0427881    4.3197917  
C   -0.9437528   -0.7922060    3.5801400  
O   -1.8685244   -1.5680278    4.2172520  
C   -0.9124520   -0.7656372    2.1655264  
O   -1.8671164   -1.5663939    1.5732860  
C    0.0000000    0.0000000    1.4700000  
H    2.3005065    1.9304404    0.8477417  
H    2.0679347    1.7444845    5.0445261  
H   -0.0904770   -0.0778569    5.3997470  
H   -2.3849669   -2.0011402    3.5251786  
H   -1.7775064   -1.4909735    0.6183591  
H    3.3468514    2.8078103    3.1724291  
