60

C   -3.9003973    0.7075443   -7.8625165  
C   -5.1390102    0.4564006   -8.4058689  
C   -4.9426337   -0.4523338   -9.4876442  
C   -3.5519122   -0.7225383   -9.5569999  
N   -2.9481726   -0.0008210   -8.5573799  
C   -2.9949865   -1.5817523  -10.5090358  
C   -3.8577383   -2.1793147  -11.4072329  
O   -3.3671079   -3.0273925  -12.3575271  
C   -5.2483472   -1.9219814  -11.3542880  
O   -5.9747114   -2.5923046  -12.3167871  
C   -5.7984319   -1.0742477  -10.4155227  
H   -6.0694672    0.8773483   -8.0652139  
H   -1.9358734   -1.7917318  -10.5672581  
H   -4.1266567   -3.3290114  -12.8726755  
H   -6.9032339   -2.3635435  -12.2113369  
H   -6.8673432   -0.8963376  -10.3995927  
H   -3.6206855    1.3370324   -7.0351926  
C   -0.8712823    0.0001712   -4.7267111  
C    0.4275912    0.0003833   -5.1068522  
C    0.3927410    0.0003247   -6.5612539  
C   -1.0467465   -0.0000492   -6.8995726  
N   -1.7925763   -0.0000599   -5.8282525  
C   -1.5084818   -0.0001658   -8.2604131  
C   -0.5746209    0.0004688   -9.2387989  
O   -0.8627925    0.0004378  -10.5514293  
C    0.8856683    0.0012296   -8.9294213  
O    1.6794953    0.0016587   -9.8701972  
C    1.3340964    0.0012909   -7.5255565  
H    1.3014267    0.0006482   -4.4779747  
H    0.0042906    0.0010052  -10.9956357  
H    2.4004347    0.0019677   -7.3434774  
C    1.0965515    0.0001358   -0.8010304  
C    0.0000000    0.0000000    0.0000000  
C   -1.1546562    0.0001470   -0.8669514  
C   -0.6372012    0.0003520   -2.2486282  
N    0.7342873    0.0007338   -2.1395014  
C   -1.4147737    0.0001354   -3.3608717  
C   -2.8576047   -0.0001047   -3.1854463  
O   -3.6427778   -0.0002491   -4.1244908  
C   -3.4275837   -0.0000725   -1.7311667  
O   -4.6406828    0.0000333   -1.5710061  
C   -2.4891866   -0.0001090   -0.6116745  
H   -2.8919121   -0.0002919    0.3920865  
H    2.1388272    0.0000662   -0.5261647  
H    1.3735873   -0.0006098   -2.9130261  
C    2.4951002    2.0940188    2.9809380  
C    1.9440701    1.6314916    1.8291961  
C    0.8759964    0.7350050    2.2038498  
C    0.8497377    0.7130254    3.6788474  
N    1.8560616    1.5571714    4.0882609  
C   -0.0205033   -0.0168748    4.4215661  
C   -0.9962600   -0.8356168    3.7214979  
O   -1.8224391   -1.5286685    4.3006425  
C   -0.9864710   -0.8277881    2.1595606  
O   -1.8030528   -1.5133726    1.5592035  
C    0.0000000    0.0000000    1.4700000  
H    2.2509283    1.8888011    0.8310761  
H   -0.0229599   -0.0187323    5.5027230  
H    3.3143982    2.7817323    3.1139444  
H    2.0889452    1.7545833    5.0442112  
