60

C    6.0524692   -0.7172883    2.9004737  
C    7.1066610    0.0009523    2.3854224  
C    7.6829930    0.7289784    3.4682053  
C    6.9321235    0.4122077    4.6291440  
N    5.9486888   -0.4668708    4.2487577  
C    7.2200493    0.9515192    5.8865342  
C    8.2855676    1.8263136    5.9736072  
O    8.6106280    2.3817265    7.1772962  
C    9.0464747    2.1550120    4.8265257  
O   10.0746397    3.0403079    5.0764631  
C    8.7628308    1.6235554    3.5857084  
H    5.2669889   -0.8758778    4.8619292  
H    6.6515244    0.7142241    6.7751694  
H    9.3727898    2.9533726    7.0173156  
H   10.5380770    3.2092524    4.2504558  
H    9.3633164    1.8941265    2.7250773  
H    5.3654960   -1.3872804    2.4124806  
C    4.7390840    0.0009613   -1.2727298  
C    5.6949931    0.0015506   -2.2307576  
C    6.9549534    0.0016801   -1.5034347  
C    6.5623380    0.0012139   -0.0777990  
N    5.2646567    0.0007106    0.0636644  
C    7.5356720    0.0011400    0.9794176  
C    8.8418533    0.0011261    0.6283828  
O    9.8560149    0.0010676    1.5101523  
C    9.2698380    0.0012197   -0.8016485  
O   10.4759225    0.0013251   -1.0477805  
C    8.2523630    0.0013382   -1.8677951  
H    5.5615837    0.0017690   -3.2990633  
H   10.6613103    0.0010471    0.9618351  
H    8.6033668    0.0012881   -2.8910384  
C    3.2798077    0.0005856   -1.4499661  
C    2.5571132    0.0005565   -2.5996564  
C    1.1637425    0.0001547   -2.2210366  
C    1.1336959   -0.0000200   -0.7459475  
N    2.4483509   -0.0001429   -0.3402730  
C    0.0000000    0.0000000    0.0000000  
C   -1.2757370   -0.0000187   -0.6964411  
O   -2.3524597   -0.0000640   -0.1142306  
C   -1.2676502   -0.0000874   -2.2584078  
O   -2.3355774   -0.0004102   -2.8557287  
C    0.0181551    0.0001758   -2.9516297  
H    2.9547342    0.0006074   -3.5989118  
H    0.0150776    0.0003317   -4.0331632  
H    2.7563626    0.0012823    0.6148051  
C    0.0000000    0.0000000    1.4700000  
C    1.0662921    0.0000102    2.3034270  
C    0.4961870   -0.0000064    3.6418889  
C   -0.9663858    0.0000850    3.4240247  
N   -1.2632773    0.0000084    2.1528658  
C   -1.8985362    0.0000517    4.5177257  
C   -1.3925775   -0.0004564    5.7720543  
O   -2.1456383   -0.0005410    6.8851312  
C    0.0786232   -0.0009323    6.0245000  
O    0.4683759   -0.0012588    7.1921102  
C    1.0143166   -0.0008442    4.8859032  
H    2.1107198   -0.0000632    2.0421868  
H   -2.9622183    0.0003270    4.3293377  
H   -1.5042274   -0.0009692    7.6184419  
H    2.0724152   -0.0013148    5.1109744  
