64

C    2.8233682   -0.7205532   -3.3382294  
C    3.4268672   -0.4842899   -4.5516693  
C    2.5842319    0.4170854   -5.2672726  
C    1.4720823    0.6983442   -4.4330401  
N    1.6478443   -0.0100055   -3.2702994  
C    0.4355942    1.5542942   -4.8175280  
C    0.5235655    2.1371665   -6.0668070  
O   -0.4609061    2.9814402   -6.4922838  
C    1.6251323    1.8686433   -6.9137210  
O    1.5672602    2.5248823   -8.1258862  
C    2.6478793    1.0241206   -6.5351767  
H   -0.4148265    1.7726469   -4.1864108  
H   -0.2071935    3.2724202   -7.3778499  
H    2.3476186    2.2892328   -8.6368799  
H    3.4787742    0.8374032   -7.2054214  
H    3.1377269   -1.3408174   -2.5163967  
C    1.1188647    0.0008252   -0.8003807  
C    0.0000000    0.0000000    0.0000000  
C   -1.1323854    0.0008867   -0.8673533  
C   -0.6382658    0.0019661   -2.1969280  
N    0.7324021    0.0038501   -2.1202238  
C   -1.4770906    0.0027278   -3.3154811  
C   -2.8395469    0.0020868   -3.0876860  
O   -3.7039189    0.0024327   -4.1440356  
C   -3.3517866    0.0013841   -1.7684334  
O   -4.7300490    0.0012234   -1.7073130  
C   -2.5248543    0.0009055   -0.6644820  
H   -1.1067559    0.0036958   -4.3313815  
H   -4.5940023    0.0021703   -3.7685138  
H   -4.9934599    0.0007124   -0.7819922  
H   -2.9462580    0.0005524    0.3339655  
H    2.1619899    0.0009412   -0.5342062  
C    5.1326888   -4.5397363   -4.1017712  
C    6.3142928   -4.3081835   -4.7670997  
C    6.2921867   -2.9472231   -5.1935950  
C    5.0617175   -2.3938141   -4.7558621  
N    4.3810049   -3.3880822   -4.0980788  
C    4.6998385   -1.0658295   -5.0013986  
C    5.5965758   -0.2821483   -5.7013147  
O    5.2937252    1.0217169   -5.9682059  
C    6.8291158   -0.8162695   -6.1467100  
O    7.6131782    0.0901366   -6.8300979  
C    7.1866591   -2.1263460   -5.9050750  
H    7.0955272   -5.0315502   -4.9264943  
H    3.4795506   -3.2874818   -3.6676825  
H    6.0440038    1.3813196   -6.4591565  
H    8.4262366   -0.3503936   -7.0955641  
H    8.1375026   -2.5074498   -6.2588209  
H    4.7660047   -5.4356701   -3.6308096  
C    0.8681109    0.7263879    2.2709268  
C    0.6127770    0.5096195    3.5869401  
C   -0.4920590   -0.4175482    3.6542670  
C   -0.8620974   -0.7254003    2.2596025  
N    0.0000000    0.0000000    1.4700000  
C   -1.8641242   -1.5660088    1.8976294  
C   -2.6293522   -2.2103885    2.9520183  
O   -3.5512764   -2.9839180    2.7283916  
C   -2.2549728   -1.8987399    4.4361073  
O   -2.8923672   -2.4351063    5.3323774  
C   -1.1543735   -0.9755647    4.7012123  
H    1.1382914    0.9492124    4.4159191  
H   -2.1192137   -1.7782617    0.8686553  
H   -0.9013378   -0.7652422    5.7314848  
H    1.6172880    1.3558399    1.8188057  
