64

C   -0.1274100   -0.5965733   -9.6136577  
C    0.5547175   -0.5391808  -10.8069202  
C    0.4875252    0.8115477  -11.2603707  
C   -0.2543148    1.5384679  -10.2943531  
N   -0.6141455    0.6530452   -9.3088765  
C   -0.5187620    2.9059677  -10.4160083  
C   -0.0250790    3.5514677  -11.5330514  
O   -0.2538147    4.8864989  -11.7015303  
C    0.7169819    2.8433449  -12.5081028  
O    1.1396578    3.6267478  -13.5621271  
C    0.9780167    1.4942075  -12.3888728  
H    1.0399903   -1.3690323  -11.2915336  
H   -1.0836400    3.4657080   -9.6833386  
H    0.1707620    5.1334159  -12.5334150  
H    1.6326775    3.0723064  -14.1746070  
H    1.5491435    0.9785656  -13.1520278  
H   -0.3064721   -1.4303162   -8.9565668  
C   -0.2208272   -0.6524174   -5.1346212  
C   -1.2456329    0.0471727   -4.5828766  
C   -1.8635340    0.7999335   -5.6488904  
C   -1.1093178    0.4792270   -6.8757136  
N   -0.1268907   -0.4059225   -6.4959280  
C   -1.3831927    0.9908181   -8.1024867  
C   -2.4948519    1.9194408   -8.2225247  
O   -2.8209722    2.4343803   -9.2840256  
C   -3.3072320    2.2735255   -6.9362639  
O   -4.2451137    3.0544077   -7.0249357  
C   -2.9168444    1.6579632   -5.6703520  
H   -3.4845595    1.9082095   -4.7844627  
H    0.4738210   -1.3271519   -4.6612429  
H    0.5523182   -0.8120321   -7.1130151  
C    1.1243410    0.0099923   -0.7919003  
C    0.7474076    0.0234544   -2.1148543  
C   -0.6787381    0.0234490   -2.1414700  
C   -1.1201745    0.0098592   -0.7935546  
N    0.0000000    0.0000000    0.0000000  
C   -2.4730816    0.0063709   -0.4408240  
C   -3.3971958    0.0170982   -1.4675058  
O   -4.7313517    0.0146259   -1.1793471  
C   -2.9763648    0.0303504   -2.8186324  
O   -4.0166480    0.0395118   -3.7247624  
C   -1.6418562    0.0335260   -3.1673481  
H    1.4178717    0.0310972   -2.9571209  
H   -2.8160166   -0.0041111    0.5845966  
H   -5.1938818    0.0230867   -2.0274384  
H   -3.6464675    0.0482293   -4.6127343  
H    2.1062467    0.0052819   -0.3505407  
C    2.5285572    2.1210227    2.9438989  
C    1.9331703    1.6216660    4.0790748  
C    0.8903039    0.7472258    3.6520102  
C    0.8972198    0.7527806    2.2336141  
N    1.9028376    1.5986179    1.8362361  
C    0.0000000    0.0000000    1.4700000  
C   -0.9207814   -0.7726952    2.1506477  
O   -1.8198395   -1.5274828    1.4542253  
C   -0.9436862   -0.7911793    3.5655508  
O   -1.9197945   -1.6098497    4.0950179  
C   -0.0590329   -0.0485852    4.3195194  
H    2.2150357    1.8593692    5.0905303  
H    2.1533708    1.7953814    0.8841339  
H   -2.3621246   -1.9821033    2.1118817  
H   -1.8668290   -1.5649508    5.0545920  
H   -0.1007624   -0.0827977    5.4019087  
H    3.3491200    2.8096064    2.8367138  
