64

C    2.4523280   -0.0038178   -8.2006198  
C    3.5159644   -0.0065418   -7.3281882  
C    4.7030887   -0.0086026   -8.1189672  
C    4.2977378   -0.0067073   -9.4782362  
N    2.9249951   -0.0057673   -9.4921039  
C    5.2085101   -0.0076523  -10.5390306  
C    6.5529732   -0.0102565  -10.2218701  
O    7.4851346   -0.0109300  -11.2189102  
C    6.9770830   -0.0125521   -8.8717069  
O    8.3483109   -0.0154309   -8.7198166  
C    6.0791411   -0.0118948   -7.8246997  
H    3.4449574   -0.0080938   -6.2539681  
H    2.3529554    0.0061667  -10.3170942  
H    4.9059871   -0.0063629  -11.5771435  
H    8.3485107   -0.0131148  -10.7855025  
H    8.5501177   -0.0168176   -7.7791389  
H    6.4337718   -0.0138832   -6.8006338  
C    0.0950448    0.0004350   -4.4015596  
C    1.1162030   -0.0007528   -5.3233526  
C    0.5111092   -0.0004519   -6.6150419  
C   -0.8933807    0.0012343   -6.4167195  
N   -1.1116071   -0.0002160   -5.0613621  
C   -1.8066467    0.0022678   -7.4753655  
C   -1.2927263    0.0018935   -8.7575764  
O   -2.1397630    0.0032124   -9.8278748  
C    0.1055545   -0.0001572   -8.9758059  
O    0.4600374   -0.0006988  -10.3091049  
C    1.0070997   -0.0014508   -7.9319006  
H    2.1678558   -0.0028227   -5.0931014  
H   -2.0126134    0.0110221   -4.6185948  
H   -2.8782451    0.0034101   -7.3308769  
H   -1.5825641    0.0023752  -10.6170477  
H    1.4202831   -0.0020783  -10.3685178  
C    3.3321173    0.0004714   -1.3379336  
C    2.6974184    0.0000115   -2.5332313  
C    1.2800437   -0.0002119   -2.2052840  
C    1.2395034    0.0000643   -0.7271298  
N    2.4394063    0.0005459   -0.2131037  
C    0.0000000    0.0000000    0.0000000  
C   -1.1468702    0.0000634   -0.7169544  
O   -2.3742202    0.0000072   -0.1695489  
C   -1.1388770    0.0001606   -2.2096356  
O   -2.2206231    0.0000903   -2.7970412  
C    0.1454523    0.0001814   -2.9324241  
H    3.1367986   -0.0000653   -3.5160949  
H   -2.9844345    0.0001025   -0.9290168  
H    4.3940040    0.0007618   -1.1498638  
C    0.8676693    0.7151171    2.2619005  
C    0.5875920    0.4624972    3.5848544  
C   -0.5048400   -0.4542819    3.6114698  
C   -0.8517165   -0.7276451    2.2635546  
N    0.0000000    0.0000000    1.4700000  
C   -1.8902865   -1.5946756    1.9108239  
C   -2.5912627   -2.1969500    2.9375057  
O   -3.6148162   -3.0527051    2.6493466  
C   -2.2603868   -1.9365747    4.2886322  
O   -3.0513550   -2.6123276    5.1947621  
C   -1.2361111   -1.0811317    4.6373480  
H    1.1060808    0.8876438    4.4271209  
H   -2.1597133   -1.8070987    0.8854031  
H   -3.9636755   -3.3565188    3.4974381  
H   -2.7621927   -2.3810384    6.0827341  
H   -1.0058879   -0.9010589    5.6809233  
H    1.6167816    1.3499334    1.8205408  
