60

C    9.5786845   -0.7039717   -3.0653441  
C   10.9228483   -0.4521592   -3.2146148  
C   11.0576233    0.4558289   -4.3063992  
C    9.7507705    0.7249098   -4.7877076  
N    8.8767184    0.0032695   -4.0131849  
C    9.5027397    1.5831675   -5.8631909  
C   10.5938219    2.1809106   -6.4635409  
O   10.4085532    3.0280843   -7.5175736  
C   11.9054556    1.9246914   -5.9979394  
O   12.8855035    2.5950537   -6.7004088  
C   12.1509090    1.0779018   -4.9371731  
H   11.7095461   -0.8721939   -2.6115629  
H    8.5091061    1.7922882   -6.2348947  
H   11.2870256    3.3300134   -7.7828861  
H   13.7404127    2.3670751   -6.3225727  
H   13.1664933    0.9008346   -4.6029352  
H    9.0652537   -1.3332244   -2.3586704  
C    5.5868522   -0.0000782   -1.0681555  
C    6.8043822    0.0011469   -1.6695666  
C    6.5701482    0.0006863   -3.0943367  
C    5.1058548   -0.0008899   -3.2749812  
N    4.5679461   -0.0016854   -2.0086701  
C    4.4796781   -0.0013359   -4.4789772  
C    5.3028527   -0.0004129   -5.6768576  
O    4.8337330   -0.0007802   -6.8074448  
C    6.8558139    0.0010077   -5.5091789  
O    7.5591501    0.0014867   -6.5104674  
C    7.4139954    0.0016536   -4.1592585  
H    7.7577673    0.0020655   -1.1719033  
H    3.4041779   -0.0023678   -4.5894724  
H    5.3482113   -0.0001589   -0.0169941  
C    3.1301149   -0.0010311   -1.7028252  
C    2.5367768   -0.0002767   -0.4864665  
C    1.1089904    0.0001028   -0.7656183  
C    1.0177872   -0.0004148   -2.2415132  
N    2.1993578   -0.0011611   -2.7963820  
C   -0.2459209   -0.0002877   -2.9257118  
C   -1.3675319   -0.0000605   -2.1698524  
O   -2.6129313    0.0000867   -2.6748490  
C   -1.3083584    0.0000910   -0.6783232  
O   -2.3693261    0.0004206   -0.0541692  
C    0.0000000    0.0000000    0.0000000  
H    3.0096017   -0.0001007    0.4807525  
H   -0.2829630   -0.0004687   -4.0053125  
H   -3.1967441    0.0002094   -1.8949034  
C    0.0000000    0.0000000    1.4700000  
C    1.0541688    0.0001722    2.3260392  
C    0.5103138    0.0000454    3.6635956  
C   -0.9576371   -0.0002459    3.5155732  
N   -1.2018458    0.0001392    2.1615969  
C   -1.8348311   -0.0008317    4.5510609  
C   -1.2972847   -0.0009736    5.9014604  
O   -2.0050672   -0.0014265    6.9001319  
C    0.2542623   -0.0004184    6.0817573  
O    0.7184670   -0.0002256    7.2139121  
C    1.0974552   -0.0000873    4.8889129  
H    2.0940752    0.0005483    2.0517982  
H   -2.9081052   -0.0011668    4.4207061  
H    2.1707277    0.0000911    5.0223670  
H   -2.1128194   -0.0014912    1.7406791  
