60

C    6.7115463   -2.1200499    1.9637428  
C    7.6461531   -1.6213324    2.8413862  
C    8.4929609   -0.7483208    2.0961576  
C    8.0223760   -0.7540477    0.7580832  
N    6.9410759   -1.5986111    0.7120374  
C    8.6213016   -0.0025467   -0.2574580  
C    9.7150203    0.7690223    0.0840641  
O   10.3376676    1.5225361   -0.8685857  
C   10.1995870    0.7876570    1.4135995  
O   11.2961835    1.6051092    1.5941340  
C    9.6093937    0.0463248    2.4159093  
H    7.7104211   -1.8585351    3.8895265  
H    6.3926032   -1.7951660   -0.1055961  
H   11.0658148    1.9765266   -0.4247858  
H   11.5600131    1.5604027    2.5182549  
H   10.0029833    0.0806207    3.4250619  
H    5.9002461   -2.8075657    2.1312910  
C    4.5679461   -0.0016854   -2.0086701  
C    5.6245801   -0.0018691   -1.1556757  
C    6.8197127   -0.0025277   -1.9659180  
C    6.3695112   -0.0026848   -3.3709478  
N    4.9943549   -0.0025530   -3.3281074  
C    7.1998322   -0.0028670   -4.4443873  
C    8.6325205   -0.0031374   -4.1995651  
O    9.4620789   -0.0033768   -5.0996406  
C    9.1316833   -0.0032294   -2.7194836  
O   10.3356445   -0.0037633   -2.5009908  
C    8.1403754   -0.0027345   -1.6465622  
H    5.5727011   -0.0017590   -0.0814681  
H    6.8490268   -0.0028498   -5.4670534  
H    4.3931139   -0.0010546   -4.1315712  
C    3.1301149   -0.0010311   -1.7028252  
C    2.5367768   -0.0002767   -0.4864665  
C    1.1089904    0.0001028   -0.7656183  
C    1.0177872   -0.0004148   -2.2415132  
N    2.1993578   -0.0011611   -2.7963820  
C   -0.2459209   -0.0002877   -2.9257118  
C   -1.3675319   -0.0000605   -2.1698524  
O   -2.6129313    0.0000867   -2.6748490  
C   -1.3083584    0.0000910   -0.6783232  
O   -2.3693261    0.0004206   -0.0541692  
C    0.0000000    0.0000000    0.0000000  
H    3.0096017   -0.0001007    0.4807525  
H   -0.2829630   -0.0004687   -4.0053125  
H   -3.1967441    0.0002094   -1.8949034  
C    0.8681109    0.7263879    2.2709268  
C    0.6127770    0.5096195    3.5869401  
C   -0.4920590   -0.4175482    3.6542670  
C   -0.8620974   -0.7254003    2.2596025  
N    0.0000000    0.0000000    1.4700000  
C   -1.8641242   -1.5660088    1.8976294  
C   -2.6293522   -2.2103885    2.9520183  
O   -3.5512764   -2.9839180    2.7283916  
C   -2.2549728   -1.8987399    4.4361073  
O   -2.8923672   -2.4351063    5.3323774  
C   -1.1543735   -0.9755647    4.7012123  
H    1.1382914    0.9492124    4.4159191  
H   -2.1192137   -1.7782617    0.8686553  
H   -0.9013378   -0.7652422    5.7314848  
H    1.6172880    1.3558399    1.8188057  
