62

C    1.8585094   -4.2802628    1.5328843  
C    2.2798037   -3.4764243    0.4990461  
C    3.6993515   -3.5974081    0.4294245  
C    4.0912036   -4.4964442    1.4541739  
N    2.9493296   -4.8906828    2.1063379  
C    5.4245721   -4.8515836    1.6795513  
C    6.3797381   -4.2891348    0.8552417  
O    7.6966827   -4.6017147    1.0312105  
C    6.0085307   -3.3897729   -0.1724600  
O    7.0750584   -2.9148901   -0.9075435  
C    4.6933491   -3.0387594   -0.3951994  
H    1.6424961   -2.8757888   -0.1271080  
H    2.9131650   -5.5361724    2.8744609  
H    5.7297622   -5.5361012    2.4589715  
H    8.1864956   -4.1076680    0.3609375  
H    6.7379861   -2.3147632   -1.5797295  
H    0.8663623   -4.4653652    1.9075046  
C    4.3489003   -2.1006738   -1.4732768  
C    3.1285974   -1.6364578   -1.8466932  
C    3.3412599   -0.7405808   -2.9589047  
C    4.7959153   -0.7207993   -3.2046241  
N    5.3494458   -1.5655063   -2.2702989  
C    5.4017633    0.0079523   -4.1760004  
C    4.5653390    0.8276900   -5.0367904  
O    5.0159492    1.5198389   -5.9402175  
C    3.0222816    0.8221878   -4.7944084  
O    2.3079739    1.5086269   -5.5126188  
C    2.4861704   -0.0045255   -3.7159919  
H    2.1869569   -1.8922660   -1.3944885  
H    6.4704902    0.0081996   -4.3395029  
H    6.3291330   -1.7643306   -2.1823805  
C    0.0000000    0.0000000    0.0000000  
C    1.0521669   -0.0011848   -0.8862341  
C    0.4917221   -0.0011931   -2.1979130  
C   -0.9187427    0.0003100   -2.0478683  
N   -1.1833170   -0.0009472   -0.7007915  
C   -1.7951698    0.0010259   -3.1372090  
C   -1.2375835    0.0005161   -4.4010425  
O   -2.0474208    0.0015256   -5.4997580  
C    0.1673584   -0.0013557   -4.5711962  
O    0.5673529   -0.0020659   -5.8915551  
C    1.0325773   -0.0023359   -3.4969890  
H    2.0953059   -0.0030542   -0.6200560  
H   -2.0989777    0.0102265   -0.2891825  
H   -2.8710930    0.0020274   -3.0295514  
H   -1.4634881    0.0006427   -6.2693593  
H    1.5290715   -0.0033076   -5.9180042  
C    1.0672568    0.0000697    2.3021913  
C    0.0000000    0.0000000    1.4700000  
C   -1.1601224    0.0000736    2.3478473  
C   -0.5938729    0.0000769    3.7138435  
N    0.7113367    0.0001554    3.6934124  
C   -1.4286986    0.0001879    4.8835240  
C   -2.7683114    0.0006799    4.6970523  
O   -3.6653903    0.0008304    5.6976972  
C   -3.3702025    0.0010610    3.3310774  
O   -4.5974910    0.0013779    3.2362962  
C   -2.4926826    0.0008943    2.1470656  
H   -0.9878360   -0.0000190    5.8697035  
H   -4.5324246    0.0012261    5.2533954  
H   -2.9677772    0.0012974    1.1752040  
H    2.1134392    0.0000545    2.0405121  
