64

C   -0.3630157   -0.6140292   -9.5629354  
C   -0.0608063   -0.5418857  -10.9030599  
C   -0.2619284    0.8124670  -11.3029079  
C   -0.6901397    1.5262939  -10.1544254  
N   -0.7426916    0.6299248   -9.1159754  
C   -0.9826408    2.8932704  -10.1790807  
C   -0.8399793    3.5516994  -11.3850230  
O   -1.1119678    4.8868396  -11.4652453  
C   -0.4142599    2.8567514  -12.5420139  
O   -0.3214178    3.6520923  -13.6654705  
C   -0.1257865    1.5081390  -12.5184861  
H    0.2635257   -1.3644816  -11.5171751  
H   -1.3095754    3.4430661   -9.3072782  
H   -0.9506190    5.1437310  -12.3824362  
H   -0.0279686    3.1060903  -14.4012522  
H    0.1980573    1.0027500  -13.4208082  
H   -0.3391524   -1.4547019   -8.8908805  
C    0.8693955   -0.7179709   -5.2245448  
C    0.0139741    0.0003876   -4.4216236  
C   -0.8554509    0.7289888   -5.2864016  
C   -0.4799918    0.4124312   -6.6170959  
N    0.5715135   -0.4670796   -6.5435098  
C   -1.1253131    0.9522978   -7.7337394  
C   -2.1688620    1.8274390   -7.5028483  
O   -2.8338459    2.3833978   -8.5572304  
C   -2.5579900    2.1559323   -6.1824361  
O   -3.6138137    3.0416249   -6.1181834  
C   -1.9216392    1.6239280   -5.0803672  
H    1.0421889   -0.8760581   -7.3303915  
H   -3.5148435    2.9552085   -8.1796864  
H   -3.8133101    3.2103965   -5.1922671  
H   -2.2418651    1.8943541   -4.0809657  
H    1.6693714   -1.3883481   -4.9607424  
C    3.2798085    0.0005853   -1.4499648  
C    2.5571144    0.0005562   -2.5996554  
C    1.1637436    0.0001546   -2.2210360  
C    1.1336965   -0.0000201   -0.7459470  
N    2.4483513   -0.0001430   -0.3402717  
C    0.0000000    0.0000000    0.0000000  
C   -1.2757367   -0.0000188   -0.6964414  
O   -2.3524597   -0.0000640   -0.1142313  
C   -1.2676494   -0.0000875   -2.2584081  
O   -2.3355762   -0.0004102   -2.8557294  
C    0.0181562    0.0001757   -2.9516296  
H    2.9547357    0.0006072   -3.5989105  
H    4.3498550    0.0008609   -1.3200021  
H    2.7563627    0.0012824    0.6148063  
C    2.5285572    2.1210227    2.9438989  
C    1.9331703    1.6216660    4.0790748  
C    0.8903039    0.7472258    3.6520102  
C    0.8972198    0.7527806    2.2336141  
N    1.9028376    1.5986179    1.8362361  
C    0.0000000    0.0000000    1.4700000  
C   -0.9207814   -0.7726952    2.1506477  
O   -1.8198395   -1.5274828    1.4542253  
C   -0.9436862   -0.7911793    3.5655508  
O   -1.9197945   -1.6098497    4.0950179  
C   -0.0590329   -0.0485852    4.3195194  
H    2.2150357    1.8593692    5.0905303  
H    2.1533708    1.7953814    0.8841339  
H   -2.3621246   -1.9821033    2.1118817  
H   -1.8668290   -1.5649508    5.0545920  
H   -0.1007624   -0.0827977    5.4019087  
H    3.3491200    2.8096064    2.8367138  
