64

C    1.2327745   -0.1846465   -4.5828762  
C   -0.0121076   -0.0503272   -5.1526956  
C    0.1713897   -0.0845217   -6.5668243  
C    1.5610781   -0.2431309   -6.8024817  
N    2.1766033   -0.2985018   -5.5766431  
C    2.1066103   -0.3171278   -8.0876698  
C    1.2333177   -0.2297167   -9.1543918  
O    1.7125847   -0.2965407  -10.4306570  
C   -0.1564537   -0.0709303   -8.9395908  
O   -0.8941434    0.0006339  -10.1032204  
C   -0.6953023    0.0024168   -7.6719989  
H   -0.9383777    0.0599653   -4.6152460  
H    3.1621403   -0.4180714   -5.4269728  
H    0.9470307   -0.2160543  -11.0143638  
H   -1.8212732    0.1074347   -9.8694946  
H   -1.7638645    0.1243703   -7.5386544  
C   -1.1185488    0.1144179   -0.7919004  
C   -0.7454164    0.0593506   -2.1148542  
C    0.6719811   -0.0983714   -2.1414697  
C    1.1122123   -0.1336867   -0.7935541  
N    0.0000000    0.0000000    0.0000000  
C    2.4572055   -0.2798473   -0.4408241  
C    3.3744640   -0.3927129   -1.4675056  
O    4.7007088   -0.5378097   -1.1793471  
C    2.9547492   -0.3593415   -2.8186324  
O    3.9876371   -0.4834986   -3.7247621  
C    1.6280764   -0.2149047   -3.1673479  
H   -1.4126126    0.1259062   -2.9571202  
H    2.7991959   -0.3073573    0.5845964  
H    5.1594660   -0.5973730   -2.0274379  
H    3.6187640   -0.4512218   -4.6127338  
H   -2.0939096    0.2276952   -0.3505408  
C    3.5452968   -0.4812239   -8.3409558  
C    4.5938317   -0.5913874   -7.4572667  
C    5.7809918   -0.7324621   -8.2353087  
C    5.3912571   -0.7007385   -9.5987702  
N    4.0271431   -0.5490851   -9.6272559  
C    6.3064455   -0.8132541  -10.6497497  
C    7.6393840   -0.9601713  -10.3182885  
O    8.5752553   -1.0740780  -11.3052961  
C    8.0478071   -0.9944531   -8.9637283  
O    9.4088879   -1.1463731   -8.7972312  
C    7.1454689   -0.8837825   -7.9263931  
H    4.5128704   -0.5735011   -6.3838993  
H    3.4677612   -0.4832827  -10.4583656  
H    6.0157881   -0.7899584  -11.6909888  
H    9.4289890   -1.1664472  -10.8627218  
H    9.6003601   -1.1597509   -7.8544888  
H    7.4879720   -0.9136519   -6.8986395  
C    0.0000000    0.0000000    1.4700000  
C    1.0662921    0.0000102    2.3034270  
C    0.4961870   -0.0000064    3.6418889  
C   -0.9663858    0.0000850    3.4240247  
N   -1.2632773    0.0000084    2.1528658  
C   -1.8985362    0.0000517    4.5177257  
C   -1.3925775   -0.0004564    5.7720543  
O   -2.1456383   -0.0005410    6.8851312  
C    0.0786232   -0.0009323    6.0245000  
O    0.4683759   -0.0012588    7.1921102  
C    1.0143166   -0.0008442    4.8859032  
H    2.1107198   -0.0000632    2.0421868  
H   -2.9622183    0.0003270    4.3293377  
H   -1.5042274   -0.0009692    7.6184419  
H    2.0724152   -0.0013148    5.1109744  
