60

C    5.2020758   -1.1549641   -7.1280912  
C    5.9694461   -0.7543712   -8.1972665  
C    5.7638453    0.6482857   -8.3550054  
C    4.8535922    1.0517231   -7.3447559  
N    4.5310989   -0.0678945   -6.6187593  
C    4.4228214    2.3738389   -7.1990301  
C    4.9202384    3.3057171   -8.0891756  
O    4.5329817    4.6109271   -7.9918523  
C    5.8290031    2.9225430   -9.1041337  
O    6.2328016    3.9658350   -9.9114950  
C    6.2541928    1.6183755   -9.2486550  
H    6.5990078   -1.3945928   -8.7912039  
H    3.7291321    2.6877203   -6.4312574  
H    4.9903942    5.0848700   -8.6985467  
H    6.8446276    3.6219825  -10.5695514  
H    6.9508384    1.3547648  -10.0358481  
H    5.0791752   -2.1303692   -6.6894124  
C    4.4889028   -2.1447424   -2.6754910  
C    4.8757512   -1.7386739   -3.9071713  
C    3.8306322   -0.8272354   -4.3470645  
C    2.8651835   -0.7989833   -3.2273797  
N    3.2457607   -1.5692932   -2.2446421  
C    1.6707636   -0.0012343   -3.2725974  
C    1.4510173    0.7351290   -4.3856182  
O    0.3782657    1.5248307   -4.5634278  
C    2.4067068    0.7280664   -5.5322517  
O    2.1427796    1.4226354   -6.5136474  
C    3.6247816   -0.0985266   -5.4618020  
H    5.7610391   -2.0225076   -4.4501080  
H    0.5021836    1.9161679   -5.4469735  
H    4.9956251   -2.8269104   -2.0115237  
C    1.0965514    0.0001358   -0.8010306  
C    0.0000000    0.0000000    0.0000000  
C   -1.1546565    0.0001470   -0.8669508  
C   -0.6372019    0.0003520   -2.2486278  
N    0.7342867    0.0007338   -2.1395012  
C   -1.4147744    0.0001354   -3.3608712  
C   -2.8576052   -0.0001047   -3.1854454  
O   -3.6427785   -0.0002490   -4.1244896  
C   -3.4275841   -0.0000727   -1.7311660  
O   -4.6406832    0.0000333   -1.5710049  
C   -2.4891868   -0.0001090   -0.6116739  
H   -1.0150456    0.0001617   -4.3654239  
H   -2.8919122   -0.0002919    0.3920871  
H    2.1388270    0.0000663   -0.5261650  
C    0.0000000    0.0000000    1.4700000  
C    1.0662921    0.0000102    2.3034270  
C    0.4961870   -0.0000064    3.6418889  
C   -0.9663858    0.0000850    3.4240247  
N   -1.2632773    0.0000084    2.1528658  
C   -1.8985362    0.0000517    4.5177257  
C   -1.3925775   -0.0004564    5.7720543  
O   -2.1456383   -0.0005410    6.8851312  
C    0.0786232   -0.0009323    6.0245000  
O    0.4683759   -0.0012588    7.1921102  
C    1.0143166   -0.0008442    4.8859032  
H    2.1107198   -0.0000632    2.0421868  
H   -2.9622183    0.0003270    4.3293377  
H   -1.5042274   -0.0009692    7.6184419  
H    2.0724152   -0.0013148    5.1109744  
