64

C    5.9562971   -1.0678178   -2.7577252  
C    6.1237631   -1.9539254   -1.7188628  
C    7.5229013   -2.2097199   -1.6112421  
C    8.1645184   -1.4451519   -2.6190565  
N    7.1841811   -0.7651349   -3.2981246  
C    9.5499552   -1.4524161   -2.8069428  
C   10.3013991   -2.2457283   -1.9618595  
O   11.6584884   -2.2897430   -2.1010845  
C    9.6795299   -3.0160275   -0.9505563  
O   10.5637835   -3.7540789   -0.1911367  
C    8.3127899   -3.0095563   -0.7648010  
H    5.3344721   -2.3661809   -1.1138360  
H    7.3394630   -0.1328674   -4.0623932  
H   10.0450499   -0.8720754   -3.5732902  
H   11.9831782   -2.8949416   -1.4216899  
H   10.0629825   -4.2446319    0.4677719  
H    7.8648598   -3.6101676    0.0182077  
C    3.4561763   -0.7190145   -2.8481106  
C    2.5562217   -0.0001543   -3.6003001  
C    3.3101154    0.7284359   -4.5674613  
C    4.6762622    0.4113550   -4.3552630  
N    4.7296901   -0.4684438   -3.3027817  
C    5.7071396    0.9510665   -5.1303709  
C    5.3524130    1.8265877   -6.1382449  
O    6.3191172    2.3824164   -6.9253605  
C    3.9948298    2.1556050   -6.3652492  
O    3.8040501    3.0416300   -7.4053970  
C    2.9773420    1.6237544   -5.6008013  
H    6.7503139    0.7135386   -4.9736252  
H    5.8624174    2.9545454   -7.5557237  
H    2.8608931    3.2107477   -7.4917577  
H    1.9467145    1.8945846   -5.7981250  
H    3.2905204   -1.3895464   -2.0223359  
C    0.0000000    0.0000000    0.0000000  
C    1.0541688   -0.0001719   -0.8560391  
C    0.5103141   -0.0000449   -2.1935955  
C   -0.9576367    0.0002461   -2.0455733  
N   -1.2018459   -0.0001392   -0.6915970  
C   -1.8348306    0.0008319   -3.0810611  
C   -1.2972842    0.0009739   -4.4314605  
O   -2.0050664    0.0014267   -5.4301321  
C    0.2542628    0.0004190   -4.6117571  
O    0.7184677    0.0002263   -5.7439119  
C    1.0974556    0.0000880   -3.4189127  
H    2.0940752   -0.0005479   -0.5817978  
H   -2.9081050    0.0011669   -2.9507065  
H   -2.1128195    0.0014911   -0.2706793  
C    3.3003543   -0.0005276    2.9438989  
C    2.5232812   -0.0003497    4.0790748  
C    1.1623199    0.0001319    3.6520102  
C    1.1711883   -0.0000583    2.2336141  
N    2.4852299    0.0014920    1.8362361  
C    0.0000000    0.0000000    1.4700000  
C   -1.2020384   -0.0000520    2.1506477  
O   -2.3759250   -0.0003494    1.4542253  
C   -1.2314658    0.0005113    3.5655508  
O   -2.5054393    0.0008037    4.0950179  
C   -0.0764518    0.0007272    4.3195194  
H    2.8919952    0.0005619    5.0905303  
H    2.8036267   -0.0088181    0.8841339  
H   -3.0835639   -0.0000348    2.1118817  
H   -2.4360050    0.0011527    5.0545920  
H   -0.1304098    0.0013421    5.4019087  
H    4.3715549   -0.0004895    2.8367138  
