62

C    8.7625634   -0.0019537   -3.0427300  
C    9.8890284   -0.0025251   -2.2530824  
C   11.0130700   -0.0026867   -3.1312220  
C   10.5062624   -0.0019048   -4.4560130  
N    9.1363894   -0.0034257   -4.3662106  
C   11.3343552   -0.0015223   -5.5825343  
C   12.6989269   -0.0016297   -5.3677748  
O   13.5531607   -0.0009191   -6.4323391  
C   13.2237546   -0.0027810   -4.0534798  
O   14.6025390   -0.0031622   -4.0055387  
C   12.4074142   -0.0034321   -2.9416734  
H    9.8993203   -0.0038977   -1.1765670  
H    8.5036822    0.0072491   -5.1456650  
H   10.9543245   -0.0010704   -6.5948484  
H   14.4467934   -0.0014351   -6.0653440  
H   14.8747835   -0.0039194   -3.0827787  
H   12.8383439   -0.0044937   -1.9473007  
C    6.7636933   -0.0010971    0.9023171  
C    5.4671766   -0.0014229    0.4424135  
C    5.5308677   -0.0015887   -0.9825579  
C    6.9040854   -0.0016365   -1.3378039  
N    7.6252192    0.0006176   -0.1696525  
C    7.3417429   -0.0020967   -2.6656758  
C    6.3755446   -0.0028233   -3.6529133  
O    6.7475671   -0.0036472   -4.9661589  
C    5.0004300   -0.0024126   -3.3184347  
O    4.1619032   -0.0028166   -4.4139786  
C    4.5679461   -0.0016854   -2.0086701  
H    4.5841349   -0.0004230    1.0582292  
H    8.6271391   -0.0094387   -0.1061168  
H    5.9304038   -0.0037547   -5.4814343  
H    3.2522420   -0.0025257   -4.1007373  
H    7.1420548   -0.0005064    1.9101872  
C    3.1301149   -0.0010311   -1.7028252  
C    2.5367768   -0.0002767   -0.4864665  
C    1.1089904    0.0001028   -0.7656183  
C    1.0177872   -0.0004148   -2.2415132  
N    2.1993578   -0.0011611   -2.7963820  
C   -0.2459209   -0.0002877   -2.9257118  
C   -1.3675319   -0.0000605   -2.1698524  
O   -2.6129313    0.0000867   -2.6748490  
C   -1.3083584    0.0000910   -0.6783232  
O   -2.3693261    0.0004206   -0.0541692  
C    0.0000000    0.0000000    0.0000000  
H    3.0096017   -0.0001007    0.4807525  
H   -0.2829630   -0.0004687   -4.0053125  
H   -3.1967441    0.0002094   -1.8949034  
C    2.4951002    2.0940188    2.9809380  
C    1.9440701    1.6314916    1.8291961  
C    0.8759964    0.7350050    2.2038498  
C    0.8497377    0.7130254    3.6788474  
N    1.8560616    1.5571714    4.0882609  
C   -0.0205033   -0.0168748    4.4215661  
C   -0.9962600   -0.8356168    3.7214979  
O   -1.8224391   -1.5286685    4.3006425  
C   -0.9864710   -0.8277881    2.1595606  
O   -1.8030528   -1.5133726    1.5592035  
C    0.0000000    0.0000000    1.4700000  
H    2.2509283    1.8888011    0.8310761  
H   -0.0229599   -0.0187323    5.5027230  
H    3.3143982    2.7817323    3.1139444  
H    2.0889452    1.7545833    5.0442112  
