62

C   -0.1496414   -0.0015607   -4.3176960  
C    0.8570959   -0.0030492   -5.2552167  
C    0.2320387   -0.0039076   -6.5373647  
C   -1.1692057   -0.0025861   -6.3172802  
N   -1.3663825   -0.0031293   -4.9587013  
C   -2.0987838   -0.0026541   -7.3616343  
C   -1.6048135   -0.0037752   -8.6516614  
O   -2.4683514   -0.0035423   -9.7086939  
C   -0.2100859   -0.0054778   -8.8915536  
O    0.1236734   -0.0068611  -10.2301901  
C    0.7075439   -0.0056849   -7.8617574  
H    1.9121943   -0.0045702   -5.0413049  
H   -2.2604161    0.0081046   -4.5020195  
H   -3.1680123   -0.0017952   -7.2005417  
H   -1.9234601   -0.0047516  -10.5064140  
H    1.0828823   -0.0079358  -10.3044898  
H    1.7698140   -0.0071880   -8.0763687  
C    3.3003545    0.0005278   -1.4738987  
C    2.5232815    0.0003501   -2.6090748  
C    1.1623200   -0.0001315   -2.1820103  
C    1.1711882    0.0000584   -0.7636141  
N    2.4852301   -0.0014918   -0.3662361  
C    0.0000000    0.0000000    0.0000000  
C   -1.2020383    0.0000521   -0.6806477  
O   -2.3759251    0.0003495    0.0157743  
C   -1.2314654   -0.0005110   -2.0955510  
O   -2.5054386   -0.0008035   -2.6250179  
C   -0.0764515   -0.0007269   -2.8495195  
H    2.8919955   -0.0005615   -3.6205303  
H    2.8036266    0.0088181    0.5858663  
H   -3.0835640    0.0000348   -0.6418818  
H   -2.4360048   -0.0011523   -3.5845921  
C    5.6692770    0.0013341   -2.3388896  
C    4.7630504    0.0004759   -1.3275403  
C    5.5107321   -0.0007783   -0.0923053  
C    6.9370631   -0.0005497   -0.4696243  
N    6.9650290    0.0003511   -1.8451630  
C    7.9663624   -0.0010975    0.4148234  
C    7.6481552   -0.0021965    1.8330186  
O    8.5043597   -0.0028173    2.7077846  
C    6.1443527   -0.0027087    2.2553723  
O    5.8642076   -0.0039400    3.4464967  
C    5.1238533   -0.0017576    1.2101774  
H    9.0057223   -0.0007865    0.1170974  
H    4.0849832   -0.0019148    1.5109639  
H    5.4995497    0.0023853   -3.4033525  
H    7.7983612    0.0022634   -2.4042702  
C    0.0000000    0.0000000    1.4700000  
C    1.0662921    0.0000102    2.3034270  
C    0.4961870   -0.0000064    3.6418889  
C   -0.9663858    0.0000850    3.4240247  
N   -1.2632773    0.0000084    2.1528658  
C   -1.8985362    0.0000517    4.5177257  
C   -1.3925775   -0.0004564    5.7720543  
O   -2.1456383   -0.0005410    6.8851312  
C    0.0786232   -0.0009323    6.0245000  
O    0.4683759   -0.0012588    7.1921102  
C    1.0143166   -0.0008442    4.8859032  
H    2.1107198   -0.0000632    2.0421868  
H   -2.9622183    0.0003270    4.3293377  
H   -1.5042274   -0.0009692    7.6184419  
H    2.0724152   -0.0013148    5.1109744  
