64

C   -1.0714891    0.3408123   -0.7919010  
C   -0.7175115    0.2105797   -2.1148549  
C    0.6376482   -0.2337551   -2.1414699  
C    1.0613451   -0.3583782   -0.7935544  
N    0.0000000    0.0000000    0.0000000  
C    2.3479973   -0.7765847   -0.4408233  
C    3.2227707   -1.0747019   -1.4675046  
O    4.4912882   -1.4880315   -1.1793450  
C    2.8187588   -0.9561781   -2.8186313  
O    3.8044064   -1.2890013   -3.7247605  
C    1.5496868   -0.5434067   -3.1673474  
H    2.6771277   -0.8734716    0.5845979  
H    4.9281600   -1.6401807   -2.0274359  
H    3.4499365   -1.1819497   -4.6127328  
H    1.2689836   -0.4619556   -4.2109230  
H   -2.0030520    0.6512177   -0.3505420  
C   -3.6884934    3.3785238   -2.9109880  
C   -2.7393042    2.5864165   -2.3491336  
C   -2.4480560    1.5393839   -3.2997819  
C   -3.3115435    1.7882297   -4.4699338  
N   -4.0389763    2.9170361   -4.1707222  
C   -3.3339229    1.0175741   -5.5867569  
C   -2.4486256   -0.1339363   -5.6397505  
O   -2.3950807   -0.8892673   -6.6014722  
C   -1.5256759   -0.4166032   -4.4117166  
O   -0.7763149   -1.3833658   -4.4447244  
C   -1.5906809    0.4858985   -3.2649310  
H   -2.2941184    2.7202104   -1.3793282  
H   -3.9748773    1.2176909   -6.4341303  
H   -4.7182276    3.3415183   -4.7752714  
C   -3.2128017    5.5557219    0.9649874  
C   -3.0893020    4.6593089   -0.0711876  
C   -3.9982777    5.0725548   -1.0898098  
C   -4.6542937    6.2370109   -0.6148226  
N   -4.1553126    6.5017896    0.6363877  
C   -5.6207942    6.9181048   -1.3609963  
C   -5.9304773    6.4146886   -2.6095340  
O   -6.8668288    7.0409329   -3.3802986  
C   -5.2870760    5.2538379   -3.1007346  
O   -5.7049452    4.8776928   -4.3605933  
C   -4.3336991    4.5812554   -2.3650511  
H   -2.4264880    3.8111841   -0.0900408  
H   -4.4254606    7.2748025    1.2172944  
H   -6.1245286    7.8060425   -1.0045973  
H   -6.9296783    6.5333664   -4.1998655  
H   -5.2219596    4.0863071   -4.6175705  
H   -2.7041806    5.5942703    1.9130262  
C    2.5311839    2.1237619    3.0120429  
C    1.9795631    1.6616747    1.8395852  
C    0.9223175    0.7739173    2.1983588  
C    0.8753926    0.7337535    3.6154372  
N    1.8668922    1.5631002    4.0777464  
C   -0.0496243   -0.0427881    4.3197917  
C   -0.9437528   -0.7922060    3.5801400  
O   -1.8685244   -1.5680278    4.2172520  
C   -0.9124520   -0.7656372    2.1655264  
O   -1.8671164   -1.5663939    1.5732860  
C    0.0000000    0.0000000    1.4700000  
H    2.3005065    1.9304404    0.8477417  
H    2.0679347    1.7444845    5.0445261  
H   -0.0904770   -0.0778569    5.3997470  
H   -2.3849669   -2.0011402    3.5251786  
H   -1.7775064   -1.4909735    0.6183591  
H    3.3468514    2.8078103    3.1724291  
