64

C   -0.1481906    0.0893643   -8.7392251  
C    0.6200856   -0.5581982   -9.6788429  
C    0.1379805   -0.1561726  -10.9596821  
C   -0.9341428    0.7453518  -10.7366771  
N   -1.0826577    0.8706995   -9.3776885  
C   -1.6485165    1.3435473  -11.7790880  
C   -1.2735638    1.0261073  -13.0701417  
O   -1.9371802    1.5820943  -14.1253690  
C   -0.2067200    0.1284942  -13.3129420  
O    0.0452297   -0.0861342  -14.6522705  
C    0.4982934   -0.4622221  -12.2850625  
H    1.4278320   -1.2376959   -9.4671317  
H   -1.7593527    1.4536308   -8.9191511  
H   -2.4667178    2.0313518  -11.6157643  
H   -1.5222305    1.2315032  -14.9242230  
H    0.7791944   -0.7034492  -14.7285695  
H    1.3106360   -1.1460087  -12.5018886  
C    2.4962704   -2.1241894   -5.9704916  
C    1.9479397   -1.6619894   -4.7965360  
C    0.8895863   -0.7743924   -5.1524285  
C    0.8386261   -0.7344382   -6.5693735  
N    1.8288919   -1.5637499   -7.0343817  
C   -0.0884708    0.0419068   -7.2712053  
C   -0.9805686    0.7913397   -6.5291209  
O   -1.9072292    1.5669749   -7.1637119  
C   -0.9452410    0.7649786   -5.1145987  
O   -1.8982992    1.5657228   -4.5197602  
C   -0.0307352   -0.0004646   -4.4215603  
H    2.2717310   -1.9305789   -3.8055709  
H    2.0272020   -1.7452532   -8.0017033  
H   -2.4217452    2.0001341   -6.4702341  
H   -1.8059652    1.4904497   -3.5650810  
H    3.3115490   -2.8081776   -6.1330989  
C    3.2573670   -0.0002920   -1.5109380  
C    2.5379468   -0.0001709   -0.3591961  
C    1.1435043    0.0000332   -0.7338500  
C    1.1092609   -0.0000082   -2.2088477  
N    2.4227562    0.0001909   -2.6182613  
C   -0.0265532   -0.0002522   -2.9515663  
C   -1.3003035   -0.0002639   -2.2514981  
O   -2.3786784   -0.0004131   -2.8306429  
C   -1.2877725    0.0000312   -0.6895608  
O   -2.3539958    0.0003307   -0.0892036  
C    0.0000000    0.0000000    0.0000000  
H    2.9384091   -0.0000369    0.6389239  
H    4.3270394   -0.0004765   -1.6439446  
H    2.7280494   -0.0013406   -3.5742113  
C    2.5285572    2.1210227    2.9438989  
C    1.9331703    1.6216660    4.0790748  
C    0.8903039    0.7472258    3.6520102  
C    0.8972198    0.7527806    2.2336141  
N    1.9028376    1.5986179    1.8362361  
C    0.0000000    0.0000000    1.4700000  
C   -0.9207814   -0.7726952    2.1506477  
O   -1.8198395   -1.5274828    1.4542253  
C   -0.9436862   -0.7911793    3.5655508  
O   -1.9197945   -1.6098497    4.0950179  
C   -0.0590329   -0.0485852    4.3195194  
H    2.2150357    1.8593692    5.0905303  
H    2.1533708    1.7953814    0.8841339  
H   -2.3621246   -1.9821033    2.1118817  
H   -1.8668290   -1.5649508    5.0545920  
H   -0.1007624   -0.0827977    5.4019087  
H    3.3491200    2.8096064    2.8367138  
