60

C    5.5836005   -0.0003155   -1.0808165  
C    4.5679461   -0.0016852   -2.0086700  
C    5.1807163   -0.0020959   -3.2967355  
C    6.5840017   -0.0012106   -3.0900577  
N    6.7941554    0.0018109   -1.7334282  
C    7.5035526   -0.0016219   -4.1432504  
C    6.9972724   -0.0032584   -5.4284959  
O    7.8506655   -0.0040785   -6.4937341  
C    5.6003141   -0.0037866   -5.6550441  
O    5.2537722   -0.0050289   -6.9904278  
C    4.6925710   -0.0031080   -4.6165223  
H    7.6925277   -0.0074985   -1.2852979  
H    8.5742727   -0.0008079   -3.9923869  
H    7.2981730   -0.0048901   -7.2862088  
H    4.2938960   -0.0053403   -7.0555537  
H    3.6282969   -0.0033561   -4.8209686  
H    5.5402817    0.0007588   -0.0051399  
C    3.1301152   -0.0010311   -1.7028251  
C    2.5367770   -0.0002766   -0.4864665  
C    1.1089905    0.0001028   -0.7656183  
C    1.0177873   -0.0004148   -2.2415130  
N    2.1993580   -0.0011610   -2.7963820  
C   -0.2459208   -0.0002877   -2.9257119  
C   -1.3675318   -0.0000605   -2.1698523  
O   -2.6129310    0.0000866   -2.6748492  
C   -1.3083584    0.0000911   -0.6783232  
O   -2.3693259    0.0004206   -0.0541692  
C    0.0000000    0.0000000    0.0000000  
H    3.0096019   -0.0001007    0.4807529  
H   -3.1967440    0.0002093   -1.8949035  
C    0.5157037   -0.7055388   -5.2240925  
C   -0.2963281   -0.0005339   -4.3948471  
C   -1.2098539    0.7417638   -5.2310893  
C   -0.8609880    0.4090168   -6.6254931  
N    0.1928765   -0.4724046   -6.5523137  
C   -1.4945002    0.9085671   -7.7167387  
C   -2.5931288    1.8360109   -7.5036704  
O   -3.2264737    2.3405321   -8.4216214  
C   -2.9795601    2.2027198   -6.0353378  
O   -3.9026296    2.9827311   -5.8435419  
C   -2.2228501    1.5995822   -4.9410493  
H   -1.2229368    0.6514326   -8.7311576  
H   -2.4968353    1.8585230   -3.9273406  
H    1.3229483   -1.3756267   -4.9766502  
H    0.6548740   -0.8845703   -7.3420761  
C    2.5128556    2.1077716    2.9199648  
C    1.9592212    1.6432552    4.0696553  
C    0.8915788    0.7479214    3.6910360  
C    0.8684491    0.7287414    2.2159470  
N    1.8754542    1.5738793    1.8102719  
C    0.0000000    0.0000000    1.4700000  
C   -0.9772830   -0.8200135    2.1664417  
O   -1.8021297   -1.5120829    1.5842315  
C   -0.9711318   -0.8147624    3.7284083  
O   -1.7894187   -1.5009653    4.3257297  
C    0.0140216    0.0115358    4.4216297  
H    2.2638494    1.8988021    5.0689105  
H    0.0117648    0.0094386    5.5031631  
H    3.3327358    2.7953732    2.7900019  
H    2.1123206    1.7707734    0.8551938  
