62

C    1.1243406    0.0100271   -0.7919009  
C    0.7474067    0.0234775   -2.1148547  
C   -0.6787391    0.0234277   -2.1414699  
C   -1.1201748    0.0098244   -0.7935551  
N    0.0000000    0.0000000    0.0000000  
C   -2.4730817    0.0062939   -0.4408239  
C   -3.3971961    0.0169924   -1.4675061  
O   -4.7313523    0.0144787   -1.1793462  
C   -2.9763663    0.0302582   -2.8186321  
O   -4.0166494    0.0393869   -3.7247617  
C   -1.6418577    0.0334749   -3.1673480  
H    1.4178701    0.0311413   -2.9571216  
H   -2.8160163   -0.0041987    0.5845971  
H   -5.1938826    0.0229252   -2.0274381  
H   -3.6464693    0.0481160   -4.6127338  
H    2.1062464    0.0053472   -0.3505415  
C   -0.1936615   -0.6738984   -5.1271222  
C   -0.0848611   -0.4442883   -6.4611075  
C   -1.1308009    0.4861604   -6.8148175  
C   -1.8631077    0.7819431   -5.5686114  
N   -1.2456351    0.0471339   -4.5828768  
C   -2.9257429    1.6215964   -5.4820504  
C   -3.3785490    2.2776124   -6.6974291  
O   -4.3267464    3.0512799   -6.7231432  
C   -2.6179578    1.9788537   -8.0286122  
O   -2.9902637    2.5250802   -9.0583145  
C   -1.4864951    1.0554967   -7.9961199  
H   -3.4487728    1.8249014   -4.5579205  
H   -0.9650934    0.8541393   -8.9220355  
H    0.4060201   -1.3093520   -4.4958769  
C    1.7727108   -4.4676854   -6.9366559  
C    1.0038459   -3.4572044   -6.4683023  
C    1.3276328   -2.3173102   -7.3122826  
C    2.3370467   -2.8318890   -8.2624800  
N    2.6019103   -4.0918495   -8.0472191  
C    2.9200119   -1.9991011   -9.2782073  
C    2.5127889   -0.7109132   -9.3420439  
O    2.9724815    0.1779974  -10.2390177  
C    1.4955108   -0.1620415   -8.3975615  
O    1.1720114    1.0199411   -8.5136917  
C    0.9123628   -1.0363468   -7.3643852  
H    0.3034072   -3.4822871   -5.6510921  
H    3.6557441   -2.4014824   -9.9591614  
H    2.4983164    1.0041889  -10.0347411  
H    1.8254731   -5.4832925   -6.5778647  
C    2.5311839    2.1237619    3.0120429  
C    1.9795631    1.6616747    1.8395852  
C    0.9223175    0.7739173    2.1983588  
C    0.8753926    0.7337535    3.6154372  
N    1.8668922    1.5631002    4.0777464  
C   -0.0496243   -0.0427881    4.3197917  
C   -0.9437528   -0.7922060    3.5801400  
O   -1.8685244   -1.5680278    4.2172520  
C   -0.9124520   -0.7656372    2.1655264  
O   -1.8671164   -1.5663939    1.5732860  
C    0.0000000    0.0000000    1.4700000  
H    2.3005065    1.9304404    0.8477417  
H    2.0679347    1.7444845    5.0445261  
H   -0.0904770   -0.0778569    5.3997470  
H   -2.3849669   -2.0011402    3.5251786  
H   -1.7775064   -1.4909735    0.6183591  
H    3.3468514    2.8078103    3.1724291  
