62

C    0.0000000    0.0000000    0.0000000  
C   -1.0384262    0.1694848   -0.8862350  
C   -0.4851965    0.0798387   -2.1979135  
C    0.9068634   -0.1472776   -2.0478676  
N    1.1682310   -0.1883605   -0.7007904  
C    1.7718900   -0.2881861   -3.1372077  
C    1.2215673   -0.1984861   -4.4010418  
O    2.0208149   -0.3290320   -5.4997568  
C   -0.1649821    0.0281106   -4.5711967  
O   -0.5597107    0.0927987   -5.8915557  
C   -1.0189024    0.1674873   -3.4969900  
H   -2.0678325    0.3382013   -0.6200579  
H    2.0703115   -0.3458685   -0.2891812  
H    2.8337974   -0.4612904   -3.0295497  
H    1.4445442   -0.2347484   -6.2693587  
H   -1.5088453    0.2478706   -5.9180056  
C   -3.9576066    2.7667360   -1.4710687  
C   -2.8271121    2.1138558   -1.8449727  
C   -3.1800234    1.2646402   -2.9581309  
C   -4.6191014    1.4778421   -3.2038744  
N   -5.0306830    2.3991790   -2.2686587  
C   -5.3334610    0.8562924   -4.1760221  
C   -4.6386437   -0.0856826   -5.0376764  
O   -5.1939229   -0.6959797   -5.9418356  
C   -3.1145810   -0.3271049   -4.7952848  
O   -2.5190332   -1.1181279   -5.5142190  
C   -2.4534256    0.4021802   -3.7159942  
H   -1.8567700    2.2154177   -1.3924959  
H   -6.3884631    1.0270157   -4.3395270  
H   -5.9660186    2.7519228   -2.1805321  
C   -4.1478944    3.7466874   -0.3920014  
C   -3.2243300    4.2192530    0.4770726  
C   -3.9490689    5.1558984    1.3220275  
C   -5.3356250    5.1246213    0.8091258  
N   -5.4582828    4.3002863   -0.1955710  
C   -6.3788981    5.9262810    1.3870609  
C   -6.0519540    6.7226829    2.4302226  
O   -6.9245093    7.5232757    3.0656278  
C   -4.6616119    6.7760562    2.9708349  
O   -4.4358113    7.5238324    3.9221848  
C   -3.6090882    5.9442322    2.3607640  
H   -2.1802316    3.9637171    0.5373731  
H   -7.3833743    5.8837285    0.9919323  
H   -6.3990774    7.9618610    3.7589653  
H   -2.6148042    6.0115288    2.7815968  
C    3.3041272   -0.0001177    3.0120429  
C    2.5845372    0.0004780    1.8395852  
C    1.2040006    0.0000008    2.1983588  
C    1.1422373   -0.0006037    3.6154372  
N    2.4348639   -0.0026109    4.0777464  
C   -0.0655181   -0.0008797    4.3197917  
C   -1.2321768   -0.0002324    3.5801400  
O   -2.4392816   -0.0001146    4.2172520  
C   -1.1911209    0.0000007    2.1655264  
O   -2.4371527    0.0002320    1.5732860  
C    0.0000000    0.0000000    1.4700000  
H    3.0031534    0.0000661    0.8477417  
H    2.7054629    0.0071099    5.0445261  
H   -0.1193549   -0.0014844    5.3997470  
H   -3.1132988    0.0000648    3.5251786  
H   -2.3200282    0.0004071    0.6183591  
H    4.3686625   -0.0004071    3.1724291  
