64

C    3.9410088    0.8471221   -7.3699950  
C    5.0453150    0.0450963   -7.1975703  
C    5.8430819    0.1767511   -8.3726593  
C    5.1693864    1.0801282   -9.2340361  
N    4.0172065    1.4665794   -8.5954814  
C    5.6697432    1.4456785  -10.4873535  
C    6.8722453    0.8893712  -10.8781082  
O    7.4063669    1.2121723  -12.0919972  
C    7.5592048   -0.0141788  -10.0328263  
O    8.7432135   -0.4819566  -10.5644735  
C    7.0660473   -0.3754626   -8.7963815  
H    5.2500762   -0.5612086   -6.3318563  
H    3.3406481    2.1128221   -8.9596523  
H    5.1610516    2.1335523  -11.1486139  
H    8.2349958    0.7209442  -12.1650371  
H    9.1435084   -1.0855377   -9.9311826  
H    7.6145555   -1.0700384   -8.1709367  
C    2.9067044   -0.7102173   -3.3086448  
C    3.5336407   -0.4560502   -4.5064837  
C    2.7086168    0.4617620   -5.2217155  
C    1.5825617    0.7341316   -4.4033387  
N    1.7334695    0.0049281   -3.2500363  
C    0.5573849    1.6017761   -4.7919188  
C    0.6711745    2.2056971   -6.0290560  
O   -0.3012920    3.0621150   -6.4578575  
C    1.7869433    1.9463330   -6.8600841  
O    1.7545736    2.6236982   -8.0615304  
C    2.7985449    1.0902856   -6.4775001  
H    4.4698349   -0.8808543   -4.8259755  
H   -0.3035280    1.8134484   -4.1728668  
H   -0.0298857    3.3670767   -7.3334152  
H    2.5431342    2.3930078   -8.5620876  
H    3.2029011   -1.3461542   -2.4920601  
C    1.1319246    0.0015678   -0.8009268  
C    0.7969914    0.0034958   -2.1169401  
C   -0.6453340    0.0035696   -2.1842669  
C   -1.1266832    0.0015410   -0.7896025  
N    0.0000000    0.0000000    0.0000000  
C   -2.4346129    0.0013913   -0.4276292  
C   -3.4350111    0.0031335   -1.4820181  
O   -4.6384614    0.0030875   -1.2583914  
C   -2.9478961    0.0050442   -2.9661074  
O   -3.7809382    0.0062135   -3.8623773  
C   -1.5113825    0.0053055   -3.2312122  
H   -2.7664565    0.0000174    0.6013448  
H   -1.1823533    0.0068381   -4.2614848  
H    2.1104316    0.0009435   -0.3488059  
C    2.5285572    2.1210227    2.9438989  
C    1.9331703    1.6216660    4.0790748  
C    0.8903039    0.7472258    3.6520102  
C    0.8972198    0.7527806    2.2336141  
N    1.9028376    1.5986179    1.8362361  
C    0.0000000    0.0000000    1.4700000  
C   -0.9207814   -0.7726952    2.1506477  
O   -1.8198395   -1.5274828    1.4542253  
C   -0.9436862   -0.7911793    3.5655508  
O   -1.9197945   -1.6098497    4.0950179  
C   -0.0590329   -0.0485852    4.3195194  
H    2.2150357    1.8593692    5.0905303  
H    2.1533708    1.7953814    0.8841339  
H   -2.3621246   -1.9821033    2.1118817  
H   -1.8668290   -1.5649508    5.0545920  
H   -0.1007624   -0.0827977    5.4019087  
H    3.3491200    2.8096064    2.8367138  
