62

C   -8.4348866    1.1158632   -2.2656130  
C   -7.6564181    0.0152630   -2.5397184  
C   -8.5377916   -1.1006180   -2.6519238  
C   -9.8529716   -0.6156655   -2.4350137  
N   -9.7543760    0.7335323   -2.2014292  
C  -10.9796332   -1.4427590   -2.4716192  
C  -10.7749278   -2.7837854   -2.7322375  
O  -11.8401332   -3.6358955   -2.7797731  
C   -9.4702774   -3.2866527   -2.9509345  
O   -9.4316606   -4.6434918   -3.1975917  
C   -8.3583122   -2.4713324   -2.9147037  
H  -10.5269548    1.3499568   -2.0250090  
H  -11.9846360   -1.0793426   -2.3070010  
H  -11.4807611   -4.5117791   -2.9719805  
H   -8.5150398   -4.9018099   -3.3342709  
H   -7.3714426   -2.8851521   -3.0859309  
H   -8.1531692    2.1430877   -2.1093961  
C   -4.4484552    2.1114132   -0.3461920  
C   -5.6479912    1.6480085   -0.7825916  
C   -5.3783932    0.7523819   -1.8825939  
C   -3.9129550    0.7318187   -2.0524731  
N   -3.4082403    1.5765167   -1.0908924  
C   -3.2578655    0.0024282   -2.9908505  
C   -4.0489186   -0.8168743   -3.8939083  
O   -3.5523768   -1.5094417   -4.7725987  
C   -5.6025059   -0.8101576   -3.7322731  
O   -6.2789756   -1.4957519   -4.4869982  
C   -6.1934212    0.0167335   -2.6830241  
H   -6.6117108    1.9044755   -0.3799967  
H   -4.2368622    2.7988447    0.4566508  
H   -2.4341398    1.7725006   -0.9503004  
C    0.0000000    0.0000000    0.0000000  
C    1.0521666   -0.0011982   -0.8862343  
C    0.4917215   -0.0011996   -2.1979132  
C   -0.9187429    0.0003215   -2.0478682  
N   -1.1833171   -0.0009323   -0.7007913  
C   -1.7951703    0.0010483   -3.1372089  
C   -1.2375841    0.0005313   -4.4010422  
O   -2.0474218    0.0015510   -5.4997578  
C    0.1673576   -0.0013585   -4.5711963  
O    0.5673520   -0.0020735   -5.8915554  
C    1.0325768   -0.0023493   -3.4969892  
H    2.0953056   -0.0030808   -0.6200564  
H   -2.0989778    0.0102529   -0.2891822  
H   -1.4634888    0.0006601   -6.2693595  
H    1.5290707   -0.0033271   -5.9180047  
H    2.1042146   -0.0039770   -3.6584456  
C    1.1319247   -0.0015655    2.2709268  
C    0.7969915   -0.0034943    3.5869401  
C   -0.6453339   -0.0035710    3.6542670  
C   -1.1266833   -0.0015433    2.2596025  
N    0.0000000    0.0000000    1.4700000  
C   -2.4346130   -0.0013964    1.8976294  
C   -3.4350110   -0.0031408    2.9520183  
O   -4.6384611   -0.0030974    2.7283916  
C   -2.9478959   -0.0050506    4.4361073  
O   -3.7809380   -0.0062218    5.3323774  
C   -1.5113823   -0.0053090    4.7012123  
H    1.4821238   -0.0045407    4.4159191  
H   -2.7664565   -0.0000232    0.8686553  
H   -1.1823530   -0.0068408    5.7314848  
H    2.1104316   -0.0009391    1.8188057  
