62

C    3.8737767   -0.3889034   -9.0819156  
C    3.3845708    0.8278798   -8.6664819  
C    3.7216445    1.7784900   -9.6751061  
C    4.4217058    1.0776256  -10.6903052  
N    4.4981999   -0.2356015  -10.2976213  
C    4.9072424    1.7020127  -11.8432070  
C    4.6817019    3.0585736  -11.9737909  
O    5.1339708    3.7180327  -13.0799466  
C    3.9855869    3.7753122  -10.9715319  
O    3.8417032    5.1193189  -11.2477351  
C    3.5065471    3.1600405   -9.8337772  
H    4.9304861   -0.9741156  -10.8226993  
H    5.4416749    1.1735031  -12.6205507  
H    4.8744921    4.6422988  -12.9719341  
H    3.3613273    5.5292551  -10.5219287  
H    2.9770850    3.7351606   -9.0831867  
H    3.8279428   -1.3537264   -8.6065468  
C    3.9370510   -0.7184256   -4.5079536  
C    4.0728530   -0.4678097   -5.8537679  
C    3.0407725    0.4489881   -6.2127829  
C    2.3004121    0.7244272   -5.0346798  
N    2.8699641   -0.0020530   -4.0185824  
C    1.2042089    1.5920522   -5.0158721  
C    0.8491098    2.1927979   -6.2080079  
O   -0.2131497    3.0490482   -6.2461266  
C    1.5752116    1.9303427   -7.3940558  
O    1.0977498    2.6047551   -8.4988369  
C    2.6565828    1.0743119   -7.4134046  
H    4.8227831   -0.8942698   -6.4977637  
H    0.6357060    1.8060551   -4.1213280  
H   -0.2873078    3.3515868   -7.1605858  
H    1.6432278    2.3720959   -9.2564162  
H    4.5160563   -1.3526089   -3.8587048  
C    3.2573670   -0.0002921   -1.5109382  
C    2.5379468   -0.0001711   -0.3591962  
C    1.1435043    0.0000330   -0.7338498  
C    1.1092608   -0.0000085   -2.2088474  
N    2.4227562    0.0001906   -2.6182610  
C   -0.0265533   -0.0002525   -2.9515663  
C   -1.3003033   -0.0002641   -2.2514979  
O   -2.3786785   -0.0004132   -2.8306425  
C   -1.2877724    0.0000310   -0.6895608  
O   -2.3539956    0.0003306   -0.0892035  
C    0.0000000    0.0000000    0.0000000  
H    2.9384091   -0.0000370    0.6389240  
H   -0.0296290   -0.0004088   -4.0327231  
H    4.3270394   -0.0004767   -1.6439445  
C    0.8400945    0.7047457    2.2710304  
C    0.0000000    0.0000000    1.4700000  
C   -0.8844236   -0.7423113    2.3369512  
C   -0.4878984   -0.4098547    3.7186280  
N    0.5629682    0.4714286    3.6095011  
C   -1.0836927   -0.9095027    4.8308716  
C   -2.1891196   -1.8367527    4.6554461  
O   -2.7906899   -2.3413415    5.5944904  
C   -2.6257283   -2.2031529    3.2011665  
O   -3.5549479   -2.9829990    3.0410059  
C   -1.9068976   -1.5999348    2.0816745  
H   -0.7774656   -0.6525820    5.8354244  
H   -2.2155208   -1.8586617    1.0779135  
H    1.6384792    1.3747609    1.9961646  
H    1.0518368    0.8833920    4.3830260  
