64

C   -4.0048196    0.7201301   -6.4678600  
C   -3.2970966    0.0011974   -7.4031306  
C   -4.2492976   -0.7263157   -8.1768471  
C   -5.5327758   -0.4085333   -7.6634029  
N   -5.3480616    0.4706285   -6.6253410  
C   -6.7116715   -0.9471205   -8.1877286  
C   -6.5927573   -1.8222175   -9.2499165  
O   -7.7118222   -2.3769536   -9.8003487  
C   -5.3209550   -2.1519220   -9.7758738  
O   -5.3690571   -3.0374016  -10.8327346  
C   -4.1575053   -1.6211803   -9.2589355  
H   -6.0806325    0.8802660   -6.0744171  
H   -7.6929099   -0.7090530   -7.8008223  
H   -7.4086130   -2.9489614  -10.5173811  
H   -4.4694441   -3.2070417  -11.1285780  
H   -3.1976221   -1.8925165   -9.6825864  
H   -3.6576244    1.3900352   -5.6999790  
C   -0.0307354   -0.0004645   -4.4215603  
C    1.0189058   -0.0016828   -5.3107842  
C    0.4547314   -0.0019311   -6.6208633  
C   -0.9553006   -0.0005331   -6.4668066  
N   -1.2160413   -0.0016195   -5.1189823  
C   -1.8348236   -0.0000536   -7.5536496  
C   -1.2808351   -0.0006959   -8.8190637  
O   -2.0937953    0.0000820   -9.9154712  
C    0.1236170   -0.0024661   -8.9932143  
O    0.5198535   -0.0033308  -10.3147050  
C    0.9918888   -0.0032130   -7.9214727  
H    2.0627981   -0.0034199   -5.0475745  
H   -2.1305285    0.0095312   -4.7047714  
H   -1.5120542   -0.0008601  -10.6867311  
H    1.4814933   -0.0044895  -10.3438900  
H    2.0630632   -0.0047540   -8.0859766  
C    3.2573669   -0.0002919   -1.5109381  
C    2.5379467   -0.0001709   -0.3591962  
C    1.1435042    0.0000332   -0.7338501  
C    1.1092607   -0.0000081   -2.2088477  
N    2.4227561    0.0001910   -2.6182614  
C   -0.0265534   -0.0002522   -2.9515663  
C   -1.3003036   -0.0002639   -2.2514981  
O   -2.3786785   -0.0004131   -2.8306428  
C   -1.2877726    0.0000312   -0.6895608  
O   -2.3539957    0.0003306   -0.0892035  
C    0.0000000    0.0000000    0.0000000  
H    2.9384091   -0.0000368    0.6389238  
H    4.3270391   -0.0004764   -1.6439447  
H    2.7280492   -0.0013405   -3.5742114  
C    0.8576279    0.7185626    2.2703808  
C    0.0000000    0.0000000    1.4700000  
C   -0.8668858   -0.7285659    2.3373528  
C   -0.4876752   -0.4117774    3.6669281  
N    0.5635254    0.4678311    3.5902241  
C   -1.1297612   -0.9515493    4.7854808  
C   -2.1738724   -1.8268314    4.5576857  
O   -2.8357962   -2.3827064    5.6140350  
C   -2.5667212   -2.1555554    3.2384331  
O   -3.6226318   -3.0413663    3.1773122  
C   -1.9335634   -1.6236449    2.1344818  
H    1.0363952    0.8769718    4.3757045  
H   -0.8454472   -0.7142436    5.8013813  
H   -3.5178062   -2.9546422    5.2385129  
H   -3.8247440   -3.2102924    2.2519915  
H   -2.2566033   -1.8942483    1.1360343  
H    1.6567807    1.3889844    2.0042067  
