64

C    9.6324014   -0.7173663   -2.9765306  
C    8.9591746   -0.0000700   -3.9381542  
C    9.9386562    0.7282146   -4.6762707  
C   11.2024652    0.4125676   -4.1149504  
N   10.9802527   -0.4661189   -3.0838593  
C   12.3994139    0.9524153   -4.5952312  
C   12.3191174    1.8266006   -5.6617820  
O   13.4572312    2.3824956   -6.1704007  
C   11.0674287    2.1541762   -6.2351783  
O   11.1538190    3.0389788   -7.2901694  
C    9.8861821    1.6221911   -5.7617099  
H   11.6922636   -0.8743559   -2.5056171  
H   13.3658178    0.7159765   -4.1717222  
H   13.1802736    2.9535795   -6.8987016  
H   10.2656699    3.2071675   -7.6195740  
H    8.9424460    1.8919017   -6.2211632  
H    9.2576405   -1.3872107   -2.2216650  
C    5.5836005   -0.0008277   -1.0808164  
C    4.5679461   -0.0016854   -2.0086701  
C    5.1807168   -0.0015779   -3.2967356  
C    6.5840019   -0.0009186   -3.0900577  
N    6.7941554    0.0014756   -1.7334268  
C    7.5035523   -0.0009462   -4.1432500  
C    6.9972727   -0.0019591   -5.4284959  
O    7.8506653   -0.0023839   -6.4937351  
C    5.6003144   -0.0022527   -5.6550445  
O    5.2537724   -0.0028645   -6.9904295  
C    4.6925710   -0.0019527   -4.6165225  
H    7.6925274   -0.0081199   -1.2853004  
H    7.2981725   -0.0027882   -7.2862094  
H    4.2938963   -0.0030557   -7.0555554  
H    3.6282967   -0.0020079   -4.8209692  
H    5.5402820   -0.0002307   -0.0051390  
C    3.1301149   -0.0010311   -1.7028252  
C    2.5367768   -0.0002767   -0.4864665  
C    1.1089904    0.0001028   -0.7656183  
C    1.0177872   -0.0004148   -2.2415132  
N    2.1993578   -0.0011611   -2.7963820  
C   -0.2459209   -0.0002877   -2.9257118  
C   -1.3675319   -0.0000605   -2.1698524  
O   -2.6129313    0.0000867   -2.6748490  
C   -1.3083584    0.0000910   -0.6783232  
O   -2.3693261    0.0004206   -0.0541692  
C    0.0000000    0.0000000    0.0000000  
H    3.0096017   -0.0001007    0.4807525  
H   -0.2829630   -0.0004687   -4.0053125  
H   -3.1967441    0.0002094   -1.8949034  
C    0.0000000    0.0000000    1.4700000  
C    1.0521667    0.0011902    2.3562342  
C    0.4917218    0.0011957    3.6679131  
C   -0.9187428   -0.0003148    3.5178682  
N   -1.1833171    0.0009411    2.1707914  
C   -1.7951701   -0.0010350    4.6072090  
C   -1.2375837   -0.0005224    5.8710424  
O   -2.0474215   -0.0015360    6.9697579  
C    0.1673580    0.0013566    6.0411963  
O    0.5673524    0.0020687    7.3615553  
C    1.0325770    0.0023412    4.9669890  
H    2.0953057    0.0030649    2.0900562  
H   -2.0989778   -0.0102372    1.7591824  
H   -2.8710934   -0.0020419    4.4995513  
H   -1.4634884   -0.0006497    7.7393593  
H    1.5290710    0.0033153    7.3880045  
H    2.1042148    0.0039609    5.1284455  
