62

C    3.3003538    0.0005281   -1.4738992  
C    2.5232800    0.0003503   -2.6090749  
C    1.1623189   -0.0001314   -2.1820098  
C    1.1711878    0.0000586   -0.7636137  
N    2.4852296   -0.0014917   -0.3662360  
C    0.0000000    0.0000000    0.0000000  
C   -1.2020393    0.0000523   -0.6806466  
O   -2.3759247    0.0003494    0.0157756  
C   -1.2314669   -0.0005109   -2.0955498  
O   -2.5054399   -0.0008032   -2.6250165  
C   -0.0764531   -0.0007268   -2.8495186  
H    2.8036266    0.0088183    0.5858656  
H   -3.0835642    0.0000351   -0.6418796  
H   -2.4360061   -0.0011523   -3.5845904  
H   -0.1304110   -0.0013413   -3.9319077  
H    4.3715543    0.0004899   -1.3667147  
C    5.8912976   -2.0917703   -4.5522480  
C    4.9784970   -1.6292445   -3.6595324  
C    4.1021045   -0.7349680   -4.3785882  
C    4.5825769   -0.7142838   -5.7734030  
N    5.6694184   -1.5569930   -5.8122174  
C    4.0183399    0.0134452   -6.7702737  
C    2.8607053    0.8310507   -6.4478795  
O    2.2818930    1.5221480   -7.2759265  
C    2.3349637    0.8245617   -4.9770429  
O    1.3612100    1.5092075   -4.6936264  
C    3.0267417   -0.0008944   -3.9901705  
H    4.9253031   -1.8851652   -2.6163220  
H    4.3863155    0.0143831   -7.7868872  
H    6.7075424   -2.7781445   -4.3956452  
C    6.9728978   -3.0919227   -7.3560099  
C    7.6717726   -3.0291355   -8.5186393  
C    7.6250184   -1.6565455   -8.9643367  
C    6.8359840   -0.9195302   -7.9588397  
N    6.4699203   -1.8467524   -7.0106067  
C    6.5630423    0.4085050   -8.0182535  
C    7.0807756    1.1622326   -9.1480243  
O    6.8893050    2.3626295   -9.2918565  
C    7.9187418    0.4020275  -10.2249205  
O    8.3595768    1.0260087  -11.1807301  
C    8.1464686   -1.0304403  -10.0516352  
H    8.1637320   -3.8506398   -9.0082523  
H    5.9823486    0.9299129   -7.2700295  
H    8.7278393   -1.5493696  -10.8015995  
H    6.7828035   -3.9431150   -6.7225866  
C    2.5311839    2.1237619    3.0120429  
C    1.9795631    1.6616747    1.8395852  
C    0.9223175    0.7739173    2.1983588  
C    0.8753926    0.7337535    3.6154372  
N    1.8668922    1.5631002    4.0777464  
C   -0.0496243   -0.0427881    4.3197917  
C   -0.9437528   -0.7922060    3.5801400  
O   -1.8685244   -1.5680278    4.2172520  
C   -0.9124520   -0.7656372    2.1655264  
O   -1.8671164   -1.5663939    1.5732860  
C    0.0000000    0.0000000    1.4700000  
H    2.3005065    1.9304404    0.8477417  
H    2.0679347    1.7444845    5.0445261  
H   -0.0904770   -0.0778569    5.3997470  
H   -2.3849669   -2.0011402    3.5251786  
H   -1.7775064   -1.4909735    0.6183591  
H    3.3468514    2.8078103    3.1724291  
