64

C   -0.7874005    0.6277176   -9.1160936  
C    0.2008440   -0.2030902   -9.5910656  
C    0.1383202   -0.1527042  -11.0151981  
C   -0.9163364    0.7330438  -11.3544262  
N   -1.4584576    1.1876139  -10.1779542  
C   -1.2640049    1.0235964  -12.6771110  
C   -0.5335027    0.4090271  -13.6755349  
O   -0.8305498    0.6575394  -14.9843576  
C    0.5221702   -0.4780836  -13.3570920  
O    1.1536749   -1.0100626  -14.4623270  
C    0.8655302   -0.7653946  -12.0524543  
H    0.8821844   -0.7759331   -8.9855750  
H   -2.2183615    1.8394378  -10.1027680  
H   -2.0668368    1.6976542  -12.9422728  
H   -0.2099407    0.1352954  -15.5091154  
H    1.8529036   -1.5975155  -14.1597019  
H    1.6788822   -1.4491467  -11.8393346  
C    0.8246861   -0.7190548   -5.2242741  
C   -0.0307352   -0.0004646   -4.4215603  
C   -0.9001600    0.7278871   -5.2865486  
C   -0.5247007    0.4109452   -6.6171514  
N    0.5268045   -0.4685443   -6.5433115  
C   -1.1700221    0.9504897   -7.7339507  
C   -2.2135710    1.8256975   -7.5033123  
O   -2.8785548    2.3813522   -8.5578538  
C   -2.6026990    2.1545718   -6.1829949  
O   -3.6585227    3.0402832   -6.1189979  
C   -1.9663484    1.6228858   -5.0807725  
H    0.9974798   -0.8777499   -7.3300751  
H   -3.5595524    2.9532719   -8.1804759  
H   -3.8580191    3.2093222   -5.1931304  
H   -2.2865743    1.8936003   -4.0814492  
H    1.6246621   -1.3893562   -4.9602782  
C    3.2573670   -0.0002920   -1.5109380  
C    2.5379468   -0.0001709   -0.3591961  
C    1.1435043    0.0000332   -0.7338500  
C    1.1092609   -0.0000082   -2.2088477  
N    2.4227562    0.0001909   -2.6182613  
C   -0.0265532   -0.0002522   -2.9515663  
C   -1.3003035   -0.0002639   -2.2514981  
O   -2.3786784   -0.0004131   -2.8306429  
C   -1.2877725    0.0000312   -0.6895608  
O   -2.3539958    0.0003307   -0.0892036  
C    0.0000000    0.0000000    0.0000000  
H    2.9384091   -0.0000369    0.6389239  
H    4.3270394   -0.0004765   -1.6439446  
H    2.7280494   -0.0013406   -3.5742113  
C    2.5285572    2.1210227    2.9438989  
C    1.9331703    1.6216660    4.0790748  
C    0.8903039    0.7472258    3.6520102  
C    0.8972198    0.7527806    2.2336141  
N    1.9028376    1.5986179    1.8362361  
C    0.0000000    0.0000000    1.4700000  
C   -0.9207814   -0.7726952    2.1506477  
O   -1.8198395   -1.5274828    1.4542253  
C   -0.9436862   -0.7911793    3.5655508  
O   -1.9197945   -1.6098497    4.0950179  
C   -0.0590329   -0.0485852    4.3195194  
H    2.2150357    1.8593692    5.0905303  
H    2.1533708    1.7953814    0.8841339  
H   -2.3621246   -1.9821033    2.1118817  
H   -1.8668290   -1.5649508    5.0545920  
H   -0.1007624   -0.0827977    5.4019087  
H    3.3491200    2.8096064    2.8367138  
