64

C    4.7299891   -0.6048472   -7.4454823  
C    5.8190809   -0.5319058   -8.2827546  
C    5.9203763    0.8229832   -8.7170533  
C    4.8571007    1.5362997   -8.1066820  
N    4.1526244    0.6391263   -7.3428688  
C    4.6482864    2.9035961   -8.3108551  
C    5.5290641    3.5628755   -9.1461749  
O    5.3715374    4.8983605   -9.3800082  
C    6.5958666    2.8684476   -9.7646570  
O    7.3856400    3.6646219  -10.5682153  
C    6.8023092    1.5195204   -9.5639019  
H    6.4608504   -1.3543263   -8.5487437  
H    3.8397181    3.4530062   -7.8487222  
H    6.0819955    5.1558448   -9.9818515  
H    8.0815079    3.1189273  -10.9471492  
H    7.6280221    1.0145454  -10.0514228  
H    4.3185081   -1.4460998   -6.9145052  
C    2.9043671   -0.7136449   -3.3215830  
C    1.7334695    0.0049281   -3.2500363  
C    1.6178827    0.7351380   -4.4698861  
C    2.7571741    0.4192955   -5.2535852  
N    3.5185106   -0.4613564   -4.5259612  
C    2.9748791    0.9607488   -6.5241055  
C    2.0250227    1.8367711   -7.0125066  
O    2.1878105    2.3942851   -8.2476961  
C    0.8817962    2.1645717   -6.2454371  
O    0.0290273    3.0512960   -6.8698162  
C    0.6665122    1.6310020   -4.9918491  
H    4.3833664   -0.8701675   -4.8307216  
H    1.4229285    2.9664834   -8.3919534  
H   -0.7162336    3.2195065   -6.2850975  
H   -0.2185382    1.9009302   -4.4276651  
H    3.3507361   -1.3850621   -2.6082019  
C    1.1319246    0.0015678   -0.8009268  
C    0.7969914    0.0034958   -2.1169401  
C   -0.6453340    0.0035696   -2.1842669  
C   -1.1266832    0.0015410   -0.7896025  
N    0.0000000    0.0000000    0.0000000  
C   -2.4346129    0.0013913   -0.4276292  
C   -3.4350111    0.0031335   -1.4820181  
O   -4.6384614    0.0030875   -1.2583914  
C   -2.9478961    0.0050442   -2.9661074  
O   -3.7809382    0.0062135   -3.8623773  
C   -1.5113825    0.0053055   -3.2312122  
H   -2.7664565    0.0000174    0.6013448  
H   -1.1823533    0.0068381   -4.2614848  
H    2.1104316    0.0009435   -0.3488059  
C    2.5285572    2.1210227    2.9438989  
C    1.9331703    1.6216660    4.0790748  
C    0.8903039    0.7472258    3.6520102  
C    0.8972198    0.7527806    2.2336141  
N    1.9028376    1.5986179    1.8362361  
C    0.0000000    0.0000000    1.4700000  
C   -0.9207814   -0.7726952    2.1506477  
O   -1.8198395   -1.5274828    1.4542253  
C   -0.9436862   -0.7911793    3.5655508  
O   -1.9197945   -1.6098497    4.0950179  
C   -0.0590329   -0.0485852    4.3195194  
H    2.2150357    1.8593692    5.0905303  
H    2.1533708    1.7953814    0.8841339  
H   -2.3621246   -1.9821033    2.1118817  
H   -1.8668290   -1.5649508    5.0545920  
H   -0.1007624   -0.0827977    5.4019087  
H    3.3491200    2.8096064    2.8367138  
