60

C    2.4039879    0.0127194   -7.4308672  
C    3.1812817    0.0108562   -6.2958440  
C    4.5421602    0.0114957   -6.7231728  
C    4.5330155    0.0140751   -8.1415651  
N    3.2188975    0.0128079   -8.5386901  
C    5.7040559    0.0156494   -8.9054049  
C    6.9062269    0.0149077   -8.2249918  
O    8.0799770    0.0167254   -8.9216401  
C    6.9359287    0.0119672   -6.8100968  
O    8.2100052    0.0111572   -6.2808793  
C    5.7810618    0.0101396   -6.0559059  
H    2.8127648    0.0081302   -5.2843201  
H    2.9003128    0.0246297   -9.4907124  
H    5.7038452    0.0174728   -9.9867009  
H    8.7877437    0.0155102   -8.2641223  
H    8.1407581    0.0091696   -5.3212928  
H    5.8352308    0.0077154   -4.9735298  
C   -1.0641738    0.0073911   -4.6315339  
C    0.2051251    0.0079409   -5.1010654  
C    0.0692344    0.0101851   -6.5495227  
C   -1.3902927    0.0106362   -6.7869344  
N   -2.0598284    0.0090851   -5.6663498  
C   -1.9455301    0.0127611   -8.1123750  
C   -1.0819568    0.0147514   -9.1533229  
O   -1.4606991    0.0168506  -10.4427372  
C    0.3963098    0.0147286   -8.9462283  
O    1.1228030    0.0164822   -9.9399210  
C    0.9412636    0.0124833   -7.5769419  
H    1.1205720    0.0070366   -4.5344688  
H   -3.0161069    0.0128378   -8.2565139  
H   -0.6265997    0.0179443  -10.9461569  
C    1.1319245    0.0015656   -0.8009271  
C    0.7969914    0.0034943   -2.1169404  
C   -0.6453340    0.0035712   -2.1842672  
C   -1.1266833    0.0015434   -0.7896027  
N    0.0000000    0.0000000    0.0000000  
C   -2.4346131    0.0013965   -0.4276296  
C   -3.4350110    0.0031409   -1.4820182  
O   -4.6384610    0.0030975   -1.2583916  
C   -2.9478961    0.0050507   -2.9661073  
O   -3.7809383    0.0062220   -3.8623773  
C   -1.5113824    0.0053091   -3.2312124  
H    1.4821237    0.0045409   -2.9459193  
H   -2.7664564    0.0000233    0.6013449  
H    2.1104315    0.0009392   -0.3488061  
C    0.0000000    0.0000000    1.4700000  
C    1.0662921    0.0000102    2.3034270  
C    0.4961870   -0.0000064    3.6418889  
C   -0.9663858    0.0000850    3.4240247  
N   -1.2632773    0.0000084    2.1528658  
C   -1.8985362    0.0000517    4.5177257  
C   -1.3925775   -0.0004564    5.7720543  
O   -2.1456383   -0.0005410    6.8851312  
C    0.0786232   -0.0009323    6.0245000  
O    0.4683759   -0.0012588    7.1921102  
C    1.0143166   -0.0008442    4.8859032  
H    2.1107198   -0.0000632    2.0421868  
H   -2.9622183    0.0003270    4.3293377  
H   -1.5042274   -0.0009692    7.6184419  
H    2.0724152   -0.0013148    5.1109744  
