60

C   -7.3291771    5.4985678    0.8642244  
C   -6.5023644    4.5365543    0.3318902  
C   -7.2319229    3.3108670    0.3378007  
C   -8.5086546    3.5891056    0.8895865  
N   -8.5336332    4.9260794    1.2002221  
C   -9.4937542    2.6097128    1.0481947  
C   -9.1844736    1.3261188    0.6421055  
O  -10.1097973    0.3314327    0.7739730  
C   -7.9159677    1.0287273    0.0895944  
O   -7.7610967   -0.2952646   -0.2659389  
C   -6.9435647    1.9943670   -0.0669232  
H   -5.4966808    4.6980938   -0.0166754  
H   -9.3150844    5.4149384    1.5981286  
H  -10.4687149    2.8153036    1.4681773  
H   -9.6959137   -0.4731453    0.4354196  
H   -6.8781812   -0.4111129   -0.6301411  
H   -7.1545294    6.5475006    1.0321437  
C   -4.4297979    2.1087671   -0.2339399  
C   -5.6380117    1.6447705   -0.6450366  
C   -5.3911869    0.7496343   -1.7507692  
C   -3.9296544    0.7300039   -1.9515854  
N   -3.4052348    1.5747190   -1.0006226  
C   -3.2941076    0.0012878   -2.9038237  
C   -4.1035805   -0.8182213   -3.7902174  
O   -3.6253061   -1.5102281   -4.6794204  
C   -5.6534092   -0.8124880   -3.5957845  
O   -6.3452685   -1.4982638   -4.3362583  
C   -6.2225101    0.0137343   -2.5340255  
H   -7.2964264    0.0119731   -2.4058665  
H   -4.2016951    2.7960861    0.5644653  
H   -2.4284977    1.7712471   -0.8805870  
C    0.0000000    0.0000000    0.0000000  
C    1.0541688   -0.0001723   -0.8560392  
C    0.5103136   -0.0000455   -2.1935956  
C   -0.9576373    0.0002461   -2.0455730  
N   -1.2018460   -0.0001389   -0.6915968  
C   -1.8348314    0.0008319   -3.0810607  
C   -1.2972851    0.0009739   -4.4314603  
O   -2.0050676    0.0014268   -5.4301316  
C    0.2542619    0.0004184   -4.6117572  
O    0.7184666    0.0002257   -5.7439122  
C    1.0974551    0.0000873   -3.4189129  
H    2.0940752   -0.0005484   -0.5817983  
H    2.1707276   -0.0000912   -3.5523673  
H   -2.1128194    0.0014915   -0.2706789  
C    3.1301144    0.0010313    3.1728260  
C    2.5367765    0.0002768    1.9564670  
C    1.1089900   -0.0001027    2.2356185  
C    1.0177864    0.0004150    3.7115134  
N    2.1993570    0.0011613    4.2663826  
C   -0.2459220    0.0002880    4.3957118  
C   -1.3675327    0.0000606    3.6398520  
O   -2.6129319   -0.0000866    4.1448486  
C   -1.3083589   -0.0000910    2.1483229  
O   -2.3693264   -0.0004206    1.5241687  
C    0.0000000    0.0000000    1.4700000  
H    3.0096015    0.0001008    0.9892483  
H   -0.2829642    0.0004689    5.4753125  
H   -3.1967446   -0.0002093    3.3649027  
H    4.1849273    0.0015113    3.3971983  
