62

C    2.4049833   -1.9809185   -7.6893901  
C    3.4895413   -2.8199039   -7.8003170  
C    3.8969069   -2.7952916   -9.1670824  
C    3.0164182   -1.9161138   -9.8480468  
N    2.1216504   -1.4404981   -8.9218748  
C    3.1225038   -1.6496185  -11.2164455  
C    4.1360865   -2.2819361  -11.9099900  
O    4.2852296   -2.0572098  -13.2479991  
C    5.0243320   -3.1628517  -11.2483075  
O    5.9798019   -3.7145510  -12.0765882  
C    4.9201004   -3.4264332   -9.8984239  
H    3.9319011   -3.3815174   -6.9953938  
H    1.3826987   -0.7876321   -9.1108124  
H    2.4545214   -0.9806877  -11.7413586  
H    5.0404527   -2.5886839  -13.5316150  
H    6.5381176   -4.2962428  -11.5516853  
H    5.6150038   -4.1059951   -9.4190661  
C    1.7704315   -2.0997830   -5.2515185  
C    1.5928585   -1.6333167   -6.5144327  
C    0.4607455   -0.7379008   -6.4771947  
C   -0.0100422   -0.7207977   -5.0790331  
N    0.8257127   -1.5670939   -4.3875226  
C   -1.0641734    0.0073898   -4.6315339  
C   -1.7831601    0.8289564   -5.5910245  
O   -2.7459476    1.5206786   -5.2862920  
C   -1.3021140    0.8259151   -7.0770897  
O   -1.8998118    1.5134384   -7.8939923  
C   -0.1528624    0.0000285   -7.4390071  
H    0.1740158    0.0036595   -8.4699583  
H    2.5118283   -2.7880435   -4.8793394  
H    0.7607705   -1.7654785   -3.4059559  
C    1.1319248    0.0015675   -0.8009270  
C    0.7969916    0.0034959   -2.1169404  
C   -0.6453336    0.0035703   -2.1842672  
C   -1.1266831    0.0015415   -0.7896027  
N    0.0000000    0.0000000    0.0000000  
C   -2.4346129    0.0013924   -0.4276297  
C   -3.4350110    0.0031352   -1.4820184  
O   -4.6384610    0.0030897   -1.2583919  
C   -2.9478958    0.0050460   -2.9661075  
O   -3.7809377    0.0062160   -3.8623775  
C   -1.5113821    0.0053068   -3.2312125  
H    1.4821240    0.0045436   -2.9459192  
H   -2.7664565    0.0000185    0.6013447  
H    2.1104318    0.0009428   -0.3488058  
C    2.5285572    2.1210227    2.9438989  
C    1.9331703    1.6216660    4.0790748  
C    0.8903039    0.7472258    3.6520102  
C    0.8972198    0.7527806    2.2336141  
N    1.9028376    1.5986179    1.8362361  
C    0.0000000    0.0000000    1.4700000  
C   -0.9207814   -0.7726952    2.1506477  
O   -1.8198395   -1.5274828    1.4542253  
C   -0.9436862   -0.7911793    3.5655508  
O   -1.9197945   -1.6098497    4.0950179  
C   -0.0590329   -0.0485852    4.3195194  
H    2.2150357    1.8593692    5.0905303  
H    2.1533708    1.7953814    0.8841339  
H   -2.3621246   -1.9821033    2.1118817  
H   -1.8668290   -1.5649508    5.0545920  
H   -0.1007624   -0.0827977    5.4019087  
H    3.3491200    2.8096064    2.8367138  
