66

C    1.9074116   -2.1157068   -5.2171214  
C    1.7366767   -1.6153236   -6.4871348  
C    0.6103641   -0.7412456   -6.4423309  
C    0.1310752   -0.7480686   -5.1073547  
N    0.9400194   -1.5942803   -4.3903106  
C   -0.9736297    0.0040464   -4.6965763  
C   -1.6058298    0.7773678   -5.6507645  
O   -2.6892500    1.5315498   -5.3037413  
C   -1.1427628    0.7971174   -6.9879237  
O   -1.8787348    1.6162792   -7.8189839  
C   -0.0531708    0.0551805   -7.3939358  
H    0.8493706   -1.7918998   -3.4101523  
H   -2.9736278    1.9867686   -6.1069657  
H   -1.5003142    1.5722375   -8.7024221  
H    0.2783222    0.0903615   -8.4251255  
H    2.6418356   -2.8044017   -4.8359664  
C    3.0722949   -3.1829687   -7.9585624  
C    2.5713807   -1.9386689   -7.6531613  
C    3.0183030   -1.0479547   -8.6736947  
C    3.7943659   -1.8120346   -9.5824494  
N    3.8084170   -3.1036461   -9.1175194  
C    4.3958289   -1.2569232  -10.7159756  
C    4.2102327    0.0940730  -10.9362943  
O    4.7749880    0.6871794  -12.0282141  
C    3.4395995    0.8732600  -10.0408551  
O    3.3483939    2.2027840  -10.3977739  
C    2.8461739    0.3263495   -8.9222573  
H    4.2722233   -3.8753452   -9.5617542  
H    4.9886249   -1.8338251  -11.4123795  
H    4.5251393    1.6196737  -11.9922374  
H    2.8117803    2.6577506   -9.7415318  
H    2.2617049    0.9483013   -8.2543872  
H    2.9639115   -4.1204842   -7.4406080  
C    1.1188642    0.0008222   -0.8003808  
C    0.0000000    0.0000000    0.0000000  
C   -1.1323862    0.0008899   -0.8673528  
C   -0.6382663    0.0019679   -2.1969280  
N    0.7324016    0.0038481   -2.1202242  
C   -1.4770914    0.0027318   -3.3154808  
C   -2.8395473    0.0020945   -3.0876857  
O   -3.7039201    0.0024425   -4.1440349  
C   -3.3517868    0.0013931   -1.7684331  
O   -4.7300497    0.0012366   -1.7073121  
C   -2.5248543    0.0009123   -0.6644817  
H    1.3576314   -0.0056167   -2.9057046  
H   -4.5940032    0.0021826   -3.7685128  
H   -4.9934602    0.0007259   -0.7819913  
H   -2.9462577    0.0005603    0.3339659  
H    2.1619895    0.0009355   -0.5342068  
C    2.5311839    2.1237619    3.0120429  
C    1.9795631    1.6616747    1.8395852  
C    0.9223175    0.7739173    2.1983588  
C    0.8753926    0.7337535    3.6154372  
N    1.8668922    1.5631002    4.0777464  
C   -0.0496243   -0.0427881    4.3197917  
C   -0.9437528   -0.7922060    3.5801400  
O   -1.8685244   -1.5680278    4.2172520  
C   -0.9124520   -0.7656372    2.1655264  
O   -1.8671164   -1.5663939    1.5732860  
C    0.0000000    0.0000000    1.4700000  
H    2.3005065    1.9304404    0.8477417  
H    2.0679347    1.7444845    5.0445261  
H   -0.0904770   -0.0778569    5.3997470  
H   -2.3849669   -2.0011402    3.5251786  
H   -1.7775064   -1.4909735    0.6183591  
H    3.3468514    2.8078103    3.1724291  
