60

C    9.0917678   -0.0017382    0.1990309  
C    9.7882617   -0.0014849    1.3853542  
C   11.1755585   -0.0026813    1.0536823  
C   11.2650575   -0.0033512   -0.3619150  
N    9.9817308   -0.0047042   -0.8494468  
C   12.4863733   -0.0042657   -1.0424851  
C   13.6383260   -0.0042013   -0.2801306  
O   14.8576738   -0.0047199   -0.8934837  
C   13.5695768   -0.0039132    1.1334075  
O   14.8037728   -0.0043092    1.7499332  
C   12.3650657   -0.0032843    1.8054771  
H    9.3503043   -0.0016578    2.3688106  
H    9.7301196    0.0051329   -1.8213398  
H   12.5613469   -0.0049237   -2.1211793  
H   15.5180108   -0.0048709   -0.1883450  
H   14.6679732   -0.0040511    2.7023840  
H   12.3438444   -0.0032585    2.8890032  
C    6.6685711   -0.0005966    0.8976878  
C    7.6427397   -0.0013904   -0.0483931  
C    6.9825040   -0.0021115   -1.3324975  
C    5.5334440   -0.0016403   -1.0549831  
N    5.4101705   -0.0011223    0.3153065  
C    4.5679461   -0.0016854   -2.0086701  
C    4.9837200   -0.0024605   -3.4013893  
O    4.1902296   -0.0026238   -4.3334163  
C    6.5131881   -0.0032214   -3.7184584  
O    6.8752474   -0.0041840   -4.8872923  
C    7.4587612   -0.0028164   -2.6050211  
H    8.5159867   -0.0031429   -2.8330520  
H    6.7640843    0.0001113    1.9713569  
H    4.5400776    0.0008356    0.8152882  
C    3.1301149   -0.0010311   -1.7028252  
C    2.5367768   -0.0002767   -0.4864665  
C    1.1089904    0.0001028   -0.7656183  
C    1.0177872   -0.0004148   -2.2415132  
N    2.1993578   -0.0011611   -2.7963820  
C   -0.2459209   -0.0002877   -2.9257118  
C   -1.3675319   -0.0000605   -2.1698524  
O   -2.6129313    0.0000867   -2.6748490  
C   -1.3083584    0.0000910   -0.6783232  
O   -2.3693261    0.0004206   -0.0541692  
C    0.0000000    0.0000000    0.0000000  
H    3.0096017   -0.0001007    0.4807525  
H   -0.2829630   -0.0004687   -4.0053125  
H   -3.1967441    0.0002094   -1.8949034  
C    0.0000000    0.0000000    1.4700000  
C    1.0662921    0.0000102    2.3034270  
C    0.4961870   -0.0000064    3.6418889  
C   -0.9663858    0.0000850    3.4240247  
N   -1.2632773    0.0000084    2.1528658  
C   -1.8985362    0.0000517    4.5177257  
C   -1.3925775   -0.0004564    5.7720543  
O   -2.1456383   -0.0005410    6.8851312  
C    0.0786232   -0.0009323    6.0245000  
O    0.4683759   -0.0012588    7.1921102  
C    1.0143166   -0.0008442    4.8859032  
H    2.1107198   -0.0000632    2.0421868  
H   -2.9622183    0.0003270    4.3293377  
H   -1.5042274   -0.0009692    7.6184419  
H    2.0724152   -0.0013148    5.1109744  
