62

C    6.8015642   -1.9474981   -1.7926618  
C    7.3921154   -2.7791731   -0.8696051  
C    8.7981068   -2.7308762   -1.1050950  
C    9.0076892   -1.8454508   -2.1932229  
N    7.7746297   -1.3890545   -2.5880437  
C   10.2786203   -1.5567897   -2.6993835  
C   11.3576589   -2.1729544   -2.0958995  
O   12.6209338   -1.9263218   -2.5501267  
C   11.1688305   -3.0597739   -1.0092936  
O   12.3419533   -3.5934889   -0.5170788  
C    9.9152908   -3.3452186   -0.5096076  
H    6.8732546   -3.3512380   -0.1195927  
H    7.6084295   -0.7369916   -3.3331428  
H   10.4450387   -0.8829877   -3.5285388  
H   13.2165883   -2.4494445   -1.9980359  
H   12.1258599   -4.1806133    0.2138057  
H    9.8017951   -4.0287939    0.3236523  
C    4.3304652   -2.1219080   -1.2732980  
C    5.3835929   -1.6226234   -2.0041219  
C    4.8312743   -0.7479117   -2.9861722  
C    3.4245697   -0.7532339   -2.8042903  
N    3.1541560   -1.5991999   -1.7574686  
C    2.5562217   -0.0001543   -3.6003001  
C    3.1181950    0.7726067   -4.5978995  
O    2.3162989    1.5276822   -5.4040242  
C    4.5194625    0.7908618   -4.7952148  
O    4.9245920    1.6096335   -5.8290562  
C    5.3766900    0.0479726   -4.0104836  
H    2.2402070   -1.7958548   -1.3914013  
H    2.9021006    1.9822990   -6.0232371  
H    5.8833603    1.5645659   -5.8949070  
H    6.4456645    0.0820149   -4.1854471  
H    4.3252215   -2.8106326   -0.4458979  
C    0.0000000    0.0000000    0.0000000  
C    1.0541688   -0.0001719   -0.8560391  
C    0.5103141   -0.0000449   -2.1935955  
C   -0.9576367    0.0002461   -2.0455733  
N   -1.2018459   -0.0001392   -0.6915970  
C   -1.8348306    0.0008319   -3.0810611  
C   -1.2972842    0.0009739   -4.4314605  
O   -2.0050664    0.0014267   -5.4301321  
C    0.2542628    0.0004190   -4.6117571  
O    0.7184677    0.0002263   -5.7439119  
C    1.0974556    0.0000880   -3.4189127  
H    2.0940752   -0.0005479   -0.5817978  
H   -2.9081050    0.0011669   -2.9507065  
H   -2.1128195    0.0014911   -0.2706793  
C    1.0965515   -0.0001358    2.2710304  
C    0.0000000    0.0000000    1.4700000  
C   -1.1546562   -0.0001469    2.3369512  
C   -0.6372014   -0.0003519    3.7186280  
N    0.7342871   -0.0007337    3.6095011  
C   -1.4147739   -0.0001353    4.8308716  
C   -2.8576048    0.0001048    4.6554461  
O   -3.6427778    0.0002493    5.5944904  
C   -3.4275839    0.0000726    3.2011665  
O   -4.6406829   -0.0000333    3.0410059  
C   -2.4891866    0.0001091    2.0816745  
H   -1.0150448   -0.0001615    5.8354244  
H   -2.8919121    0.0002919    1.0779135  
H    2.1388271   -0.0000662    1.9961646  
H    1.3735872    0.0006099    4.3830260  
