62

C    4.7455560   -0.0078477   -8.0697627  
C    5.8216218   -0.6822581   -8.5986503  
C    5.9040911   -0.3199756   -9.9758027  
C    4.8432888    0.5860906  -10.2320619  
N    4.1583083    0.7522500   -9.0540093  
C    4.6189318    1.1512785  -11.4910361  
C    5.4813388    0.7955487  -12.5098049  
O    5.3081231    1.3182446  -13.7587240  
C    6.5453751   -0.1072157  -12.2738818  
O    7.3159931   -0.3618471  -13.3895233  
C    6.7671426   -0.6653832  -11.0321928  
H    6.4670010   -1.3536886   -8.0585940  
H    3.3601681    1.3476562   -8.9257701  
H    3.8121500    1.8423414  -11.6928720  
H    6.0073389    0.9443377  -14.3105894  
H    8.0112681   -0.9799609  -13.1443050  
H    7.5902868   -1.3540588  -10.8817339  
C    5.9718894   -2.1066118   -4.3836096  
C    5.8824616   -1.6421431   -5.6565382  
C    4.7503166   -0.7470250   -5.6994994  
C    4.1834492   -0.7279190   -4.3374836  
N    4.9692737   -1.5728901   -3.5882209  
C    3.1006054    0.0006263   -3.9654951  
C    2.4499047    0.8204918   -4.9739314  
O    1.4681175    1.5123811   -4.7379561  
C    3.0331143    0.8153159   -6.4229468  
O    2.4935220    1.5013956   -7.2804984  
C    4.2049177   -0.0107672   -6.7027951  
H    6.5349995   -1.8975863   -6.4723546  
H    6.6857550   -2.7940678   -3.9597111  
H    4.8362802   -1.7697855   -2.6132378  
C    3.2798083    0.0005857   -1.4499652  
C    2.5571142    0.0005565   -2.5996556  
C    1.1637432    0.0001548   -2.2210361  
C    1.1336964   -0.0000200   -0.7459473  
N    2.4483512   -0.0001428   -0.3402723  
C    0.0000000    0.0000000    0.0000000  
C   -1.2757368   -0.0000186   -0.6964415  
O   -2.3524598   -0.0000639   -0.1142311  
C   -1.2676497   -0.0000872   -2.2584083  
O   -2.3355766   -0.0004101   -2.8557295  
C    0.0181558    0.0001758   -2.9516296  
H    0.0150788    0.0003319   -4.0331631  
H    4.3498547    0.0008612   -1.3200026  
H    2.7563626    0.0012823    0.6148059  
C    0.0000000    0.0000000    1.4700000  
C    1.0521667    0.0011902    2.3562342  
C    0.4917218    0.0011957    3.6679131  
C   -0.9187428   -0.0003148    3.5178682  
N   -1.1833171    0.0009411    2.1707914  
C   -1.7951701   -0.0010350    4.6072090  
C   -1.2375837   -0.0005224    5.8710424  
O   -2.0474215   -0.0015360    6.9697579  
C    0.1673580    0.0013566    6.0411963  
O    0.5673524    0.0020687    7.3615553  
C    1.0325770    0.0023412    4.9669890  
H    2.0953057    0.0030649    2.0900562  
H   -2.0989778   -0.0102372    1.7591824  
H   -2.8710934   -0.0020419    4.4995513  
H   -1.4634884   -0.0006497    7.7393593  
H    1.5290710    0.0033153    7.3880045  
H    2.1042148    0.0039609    5.1284455  
