62

C    3.0035410   -0.7253492   -7.4963325  
C    2.0609536   -0.0060516   -8.1939055  
C    2.7563188    0.7204715   -9.2054548  
C    4.1323320    0.4017366   -9.0753702  
N    4.2477580   -0.4770150   -8.0269955  
C    5.1154737    0.9392045   -9.9116419  
C    4.7019695    1.8141407  -10.8973801  
O    5.6203540    2.3678011  -11.7417995  
C    3.3336302    2.1447840  -11.0427707  
O    3.0818504    3.0299639  -12.0705876  
C    2.3632238    1.6151474  -10.2179548  
H    5.1058273   -0.8871326   -7.7052785  
H    6.1658703    0.7004076   -9.8175931  
H    5.1273490    2.9398874  -12.3442339  
H    2.1354309    3.2002873  -12.1003101  
H    1.3229570    1.8871856  -10.3532992  
H    2.8869292   -1.3947740   -6.6613291  
C   -0.2963294   -0.0005341   -4.3948471  
C    0.7248289   -0.0020238   -5.3166391  
C    0.1197351   -0.0021683   -6.6083289  
C   -1.2847549   -0.0004298   -6.4100066  
N   -1.5029813   -0.0014223   -5.0546493  
C   -2.1980207    0.0002341   -7.4686534  
C   -1.6841003   -0.0005703   -8.7508641  
O   -2.5311370    0.0003758   -9.8211630  
C   -0.2858196   -0.0026797   -8.9690929  
O    0.0686634   -0.0036705  -10.3023926  
C    0.6157257   -0.0036090   -7.9251872  
H    1.7764816   -0.0040039   -5.0863877  
H   -2.4039878    0.0099565   -4.6118859  
H   -3.2696195    0.0014135   -7.3241652  
H   -1.9739381   -0.0007229  -10.6103355  
H    1.0289092   -0.0050596  -10.3618041  
C    3.1301143   -0.0010313   -1.7028257  
C    2.5367765   -0.0002767   -0.4864669  
C    1.1089900    0.0001027   -0.7656184  
C    1.0177864   -0.0004150   -2.2415133  
N    2.1993571   -0.0011613   -2.7963824  
C   -0.2459220   -0.0002879   -2.9257116  
C   -1.3675327   -0.0000606   -2.1698519  
O   -2.6129319    0.0000866   -2.6748482  
C   -1.3083588    0.0000910   -0.6783229  
O   -2.3693264    0.0004206   -0.0541685  
C    0.0000000    0.0000000    0.0000000  
H    3.0096014   -0.0001008    0.4807517  
H   -3.1967445    0.0002093   -1.8949025  
H    4.1849272   -0.0015113   -1.9271980  
C    0.8400945    0.7047457    2.2710304  
C    0.0000000    0.0000000    1.4700000  
C   -0.8844236   -0.7423113    2.3369512  
C   -0.4878984   -0.4098547    3.7186280  
N    0.5629682    0.4714286    3.6095011  
C   -1.0836927   -0.9095027    4.8308716  
C   -2.1891196   -1.8367527    4.6554461  
O   -2.7906899   -2.3413415    5.5944904  
C   -2.6257283   -2.2031529    3.2011665  
O   -3.5549479   -2.9829990    3.0410059  
C   -1.9068976   -1.5999348    2.0816745  
H   -0.7774656   -0.6525820    5.8354244  
H   -2.2155208   -1.8586617    1.0779135  
H    1.6384792    1.3747609    1.9961646  
H    1.0518368    0.8833920    4.3830260  
