60

C    0.2561376    0.5603400   -9.3652525  
C    1.3453788   -0.2792159   -9.3994046  
C    1.8470656   -0.2562509  -10.7344637  
C    1.0166334    0.6225562  -11.4760879  
N    0.0596969    1.0995455  -10.6150597  
C    1.2180066    0.8875274  -12.8340377  
C    2.2771705    0.2540389  -13.4545544  
O    2.5193568    0.4772560  -14.7791426  
C    3.1166852   -0.6265306  -12.7316230  
O    4.1273126   -1.1795226  -13.4906852  
C    2.9184539   -0.8886088  -11.3920169  
H    1.7302608   -0.8401426   -8.5650065  
H   -0.6639622    1.7525143  -10.8557477  
H    0.5885786    1.5561685  -13.4049523  
H    3.2922573   -0.0548386  -15.0088508  
H    4.6473841   -1.7608785  -12.9275203  
H    3.5779078   -1.5679408  -10.8646585  
C    0.2055738   -0.7043961   -5.1603473  
C   -0.8712826    0.0001710   -4.7267111  
C   -1.3726441    0.7423356   -5.8592585  
C   -0.4933180    0.4099879   -6.9964130  
N    0.4429034   -0.4710990   -6.5064485  
C   -0.6357671    0.9095500   -8.2501477  
C   -1.7278965    1.8365862   -8.4958971  
O   -1.9397489    2.3410838   -9.5908409  
C   -2.6713151    2.2028683   -7.3061057  
O   -3.5940520    2.9825344   -7.5008833  
C   -2.4172085    1.5997592   -6.0001415  
H   -3.0751239    1.8584032   -5.1816219  
H    0.8458869   -1.3742666   -4.6097458  
H    1.1831970   -0.8829508   -7.0443978  
C    1.0965514    0.0001359   -0.8010305  
C    0.0000000    0.0000000    0.0000000  
C   -1.1546563    0.0001470   -0.8669513  
C   -0.6372014    0.0003519   -2.2486282  
N    0.7342871    0.0007337   -2.1395014  
C   -1.4147739    0.0001352   -3.3608717  
C   -2.8576049   -0.0001048   -3.1854462  
O   -3.6427779   -0.0002494   -4.1244907  
C   -3.4275840   -0.0000725   -1.7311666  
O   -4.6406831    0.0000333   -1.5710060  
C   -2.4891867   -0.0001091   -0.6116744  
H   -2.8919122   -0.0002918    0.3920866  
H    2.1388272    0.0000663   -0.5261648  
H    1.3735872   -0.0006099   -2.9130262  
C    0.8400945    0.7047457    2.2710304  
C    0.0000000    0.0000000    1.4700000  
C   -0.8844236   -0.7423113    2.3369512  
C   -0.4878984   -0.4098547    3.7186280  
N    0.5629682    0.4714286    3.6095011  
C   -1.0836927   -0.9095027    4.8308716  
C   -2.1891196   -1.8367527    4.6554461  
O   -2.7906899   -2.3413415    5.5944904  
C   -2.6257283   -2.2031529    3.2011665  
O   -3.5549479   -2.9829990    3.0410059  
C   -1.9068976   -1.5999348    2.0816745  
H   -0.7774656   -0.6525820    5.8354244  
H   -2.2155208   -1.8586617    1.0779135  
H    1.6384792    1.3747609    1.9961646  
H    1.0518368    0.8833920    4.3830260  
