64

C    1.5049143   -1.0663938   -7.3009058  
C    2.4964143   -1.9520918   -6.9474469  
C    3.2645934   -2.2075192   -8.1218647  
C    2.6899671   -1.4431597   -9.1694745  
N    1.6224512   -0.7636149   -8.6372662  
C    3.1924542   -1.4501655  -10.4741762  
C    4.2952949   -2.2429999  -10.7258380  
O    4.8267948   -2.2867456  -11.9822641  
C    4.8824910   -3.0130848   -9.6938563  
O    5.9741848   -3.7506579  -10.1031643  
C    4.3871400   -3.0068683   -8.4065669  
H    2.6467678   -2.3643171   -5.9643616  
H    1.0271366   -0.1315832   -9.1413668  
H    2.7589754   -0.8699817  -11.2770992  
H    5.5788407   -2.8916258  -11.9396900  
H    6.3107161   -4.2410935   -9.3469749  
H    4.8579413   -3.6073058   -7.6369571  
C    0.2216273   -0.7182097   -5.1532607  
C   -0.8712826    0.0001710   -4.7267111  
C   -1.3561980    0.7285934   -5.8531468  
C   -0.5122256    0.4119091   -6.9482938  
N    0.4362930   -0.4675019   -6.4883311  
C   -0.6953612    0.9515866   -8.2250080  
C   -1.7498722    1.8266654   -8.3994259  
O   -1.9744408    2.3824404   -9.6256784  
C   -2.6027021    2.1552829   -7.3189133  
O   -3.6065553    3.0408924   -7.6525587  
C   -2.4224652    1.6234656   -6.0590671  
H   -0.0555482    0.7143594   -9.0637959  
H   -2.7470697    2.9542378   -9.5289471  
H   -4.1364889    3.2097578   -6.8675374  
H   -3.0918134    1.8939834   -5.2508151  
H    0.8658675   -1.3884863   -4.6104507  
C    1.0965514    0.0001359   -0.8010305  
C    0.0000000    0.0000000    0.0000000  
C   -1.1546563    0.0001470   -0.8669513  
C   -0.6372014    0.0003519   -2.2486282  
N    0.7342871    0.0007337   -2.1395014  
C   -1.4147739    0.0001352   -3.3608717  
C   -2.8576049   -0.0001048   -3.1854462  
O   -3.6427779   -0.0002494   -4.1244907  
C   -3.4275840   -0.0000725   -1.7311666  
O   -4.6406831    0.0000333   -1.5710060  
C   -2.4891867   -0.0001091   -0.6116744  
H   -2.8919122   -0.0002918    0.3920866  
H    2.1388272    0.0000663   -0.5261648  
H    1.3735872   -0.0006099   -2.9130262  
C    0.8576279    0.7185626    2.2703808  
C    0.0000000    0.0000000    1.4700000  
C   -0.8668858   -0.7285659    2.3373528  
C   -0.4876752   -0.4117774    3.6669281  
N    0.5635254    0.4678311    3.5902241  
C   -1.1297612   -0.9515493    4.7854808  
C   -2.1738724   -1.8268314    4.5576857  
O   -2.8357962   -2.3827064    5.6140350  
C   -2.5667212   -2.1555554    3.2384331  
O   -3.6226318   -3.0413663    3.1773122  
C   -1.9335634   -1.6236449    2.1344818  
H    1.0363952    0.8769718    4.3757045  
H   -0.8454472   -0.7142436    5.8013813  
H   -3.5178062   -2.9546422    5.2385129  
H   -3.8247440   -3.2102924    2.2519915  
H   -2.2566033   -1.8942483    1.1360343  
H    1.6567807    1.3889844    2.0042067  
