64

C    5.6407084    0.0170451   -0.6743878  
C    6.9070328    0.0276883   -1.2117678  
C    6.7574705    0.0178706   -2.6302651  
C    5.3653958    0.0014762   -2.9019005  
N    4.7161324   -0.0005436   -1.6923263  
C    4.8484260   -0.0112556   -4.2008880  
C    5.7532269   -0.0070596   -5.2446776  
O    5.3026480   -0.0186573   -6.5330319  
C    7.1459462    0.0088555   -4.9938830  
O    7.9167817    0.0107073   -6.1380644  
C    7.6566613    0.0211486   -3.7126557  
H    7.8255871    0.0397976   -0.6504254  
H    3.7885338   -0.0239203   -4.4145927  
H    6.0871799   -0.0135228   -7.0967235  
H    8.8436403    0.0218184   -5.8803511  
H    8.7282987    0.0330394   -3.5516247  
H    5.3238838    0.0191630    0.3544836  
C    3.2573666   -0.0002920   -1.5109384  
C    2.5379463   -0.0001710   -0.3591964  
C    1.1435039    0.0000331   -0.7338498  
C    1.1092600   -0.0000083   -2.2088476  
N    2.4227554    0.0001909   -2.6182613  
C   -0.0265538   -0.0002524   -2.9515660  
C   -1.3003040   -0.0002640   -2.2514976  
O   -2.3786789   -0.0004133   -2.8306420  
C   -1.2877727    0.0000311   -0.6895603  
O   -2.3539960    0.0003306   -0.0892032  
C    0.0000000    0.0000000    0.0000000  
H    2.9384090   -0.0000368    0.6389236  
H    2.7280484   -0.0013407   -3.5742118  
C   -0.0307367   -0.0004647   -4.4215603  
C    1.0189041   -0.0016750   -5.3107848  
C    0.4547292   -0.0019274   -6.6208636  
C   -0.9553029   -0.0005400   -6.4668056  
N   -1.2160429   -0.0016285   -5.1189816  
C   -1.8348264   -0.0000671   -7.5536485  
C   -1.2808385   -0.0007050   -8.8190630  
O   -2.0937994    0.0000668   -9.9154701  
C    0.1236136   -0.0024644   -8.9932143  
O    0.5198494   -0.0033262  -10.3147053  
C    0.9918859   -0.0032051   -7.9214727  
H    2.0627965   -0.0034042   -5.0475757  
H   -2.1305299    0.0095153   -4.7047702  
H   -2.9104392    0.0008450   -7.4429297  
H   -1.5120585   -0.0008707  -10.6867293  
H    1.4814890   -0.0044779  -10.3438908  
H    2.0630601   -0.0047381   -8.0859778  
C    0.8676693    0.7151171    2.2619005  
C    0.5875920    0.4624972    3.5848544  
C   -0.5048400   -0.4542819    3.6114698  
C   -0.8517165   -0.7276451    2.2635546  
N    0.0000000    0.0000000    1.4700000  
C   -1.8902865   -1.5946756    1.9108239  
C   -2.5912627   -2.1969500    2.9375057  
O   -3.6148162   -3.0527051    2.6493466  
C   -2.2603868   -1.9365747    4.2886322  
O   -3.0513550   -2.6123276    5.1947621  
C   -1.2361111   -1.0811317    4.6373480  
H    1.1060808    0.8876438    4.4271209  
H   -2.1597133   -1.8070987    0.8854031  
H   -3.9636755   -3.3565188    3.4974381  
H   -2.7621927   -2.3810384    6.0827341  
H   -1.0058879   -0.9010589    5.6809233  
H    1.6167816    1.3499334    1.8205408  
