62

C    6.1876785   -0.7100924    2.9069333  
C    6.1446475   -0.4604016    4.2590692  
C    7.2051941    0.4484527    4.5485938  
C    7.8665096    0.7202243    3.3235520  
N    7.2245580   -0.0007151    2.3474575  
C    8.9652287    1.5799791    3.2317484  
C    9.4041636    2.1764797    4.3978103  
O   10.4727688    3.0250233    4.3650797  
C    8.7577024    1.9175777    5.6298315  
O    9.3133714    2.5869882    6.7005629  
C    7.6739024    1.0693101    5.7211858  
H    5.4367157   -0.8823702    4.9517223  
H    9.4737335    1.7911509    2.3011403  
H   10.6105415    3.3257336    5.2727449  
H    8.8184783    2.3571863    7.4929498  
H    7.1993363    0.8901922    6.6788824  
H    5.5616722   -1.3391857    2.2975760  
C    4.7390840    0.0009613   -1.2727298  
C    5.7159780    0.0017142   -2.2159966  
C    6.9782053    0.0017426   -1.5148412  
C    6.6542735    0.0009093   -0.0754461  
N    5.2807306    0.0008644    0.0037338  
C    7.5764447    0.0002870    0.9201961  
C    8.9818047    0.0006747    0.5493874  
O    9.8878536    0.0002340    1.3724151  
C    9.3478544    0.0018088   -0.9691024  
O   10.5277192    0.0024502   -1.2934180  
C    8.2653746    0.0021245   -1.9499644  
H    5.5691183    0.0023772   -3.2813817  
H    8.5272584    0.0027055   -2.9993165  
H    4.7530487   -0.0011863    0.8573115  
C    3.2798077    0.0005856   -1.4499661  
C    2.5571132    0.0005565   -2.5996564  
C    1.1637425    0.0001547   -2.2210366  
C    1.1336959   -0.0000200   -0.7459475  
N    2.4483509   -0.0001429   -0.3402730  
C    0.0000000    0.0000000    0.0000000  
C   -1.2757370   -0.0000187   -0.6964411  
O   -2.3524597   -0.0000640   -0.1142306  
C   -1.2676502   -0.0000874   -2.2584078  
O   -2.3355774   -0.0004102   -2.8557287  
C    0.0181551    0.0001758   -2.9516297  
H    2.9547342    0.0006074   -3.5989118  
H    0.0150776    0.0003317   -4.0331632  
H    2.7563626    0.0012823    0.6148051  
C    2.5311839    2.1237619    3.0120429  
C    1.9795631    1.6616747    1.8395852  
C    0.9223175    0.7739173    2.1983588  
C    0.8753926    0.7337535    3.6154372  
N    1.8668922    1.5631002    4.0777464  
C   -0.0496243   -0.0427881    4.3197917  
C   -0.9437528   -0.7922060    3.5801400  
O   -1.8685244   -1.5680278    4.2172520  
C   -0.9124520   -0.7656372    2.1655264  
O   -1.8671164   -1.5663939    1.5732860  
C    0.0000000    0.0000000    1.4700000  
H    2.3005065    1.9304404    0.8477417  
H    2.0679347    1.7444845    5.0445261  
H   -0.0904770   -0.0778569    5.3997470  
H   -2.3849669   -2.0011402    3.5251786  
H   -1.7775064   -1.4909735    0.6183591  
H    3.3468514    2.8078103    3.1724291  
