62

C    4.6465894   -0.6200476   -7.4653438  
C    5.7392365   -0.5667109   -8.2994570  
C    5.8591211    0.7837417   -8.7427460  
C    4.8029996    1.5146803   -8.1408626  
N    4.0847201    0.6318184   -7.3732397  
C    4.6122107    2.8830614   -8.3551548  
C    5.5039922    3.5253261   -9.1920540  
O    5.3641791    4.8610445   -9.4356142  
C    6.5639065    2.8131734   -9.8021667  
O    7.3663247    3.5936910  -10.6085534  
C    6.7525686    1.4631653   -9.5914277  
H    6.3713844   -1.3990167   -8.5576244  
H    3.8091769    3.4458581   -7.8995239  
H    6.0798000    5.1053319  -10.0368430  
H    8.0564435    3.0366140  -10.9813892  
H    7.5733912    0.9444067  -10.0726947  
H    4.2227466   -1.4523192   -6.9299569  
C    2.8187457   -0.6703162   -3.3751030  
C    1.6628945    0.0339172   -3.2649299  
C    1.5111628    0.7878480   -4.4869779  
C    2.6817415    0.4627680   -5.3241508  
N    3.4355964   -0.4257740   -4.5926556  
C    2.9084915    0.9739988   -6.5606510  
C    1.9347549    1.9068211   -7.1030669  
O    2.0491234    2.4217968   -8.2076127  
C    0.6876141    2.2655758   -6.2337340  
O   -0.1388150    3.0500156   -6.6797493  
C    0.5525684    1.6499644   -4.9159188  
H   -0.3139091    1.9034592   -4.3203676  
H    3.2719312   -1.3472107   -2.6691807  
H    4.2996452   -0.8352541   -4.8972749  
C    1.1243410    0.0100105   -0.7919003  
C    0.7474072    0.0234665   -2.1148542  
C   -0.6787384    0.0234379   -2.1414698  
C   -1.1201748    0.0098411   -0.7935547  
N    0.0000000    0.0000000    0.0000000  
C   -2.4730818    0.0063307   -0.4408240  
C   -3.3971962    0.0170429   -1.4675058  
O   -4.7313520    0.0145490   -1.1793468  
C   -2.9763654    0.0303020   -2.8186325  
O   -4.0166484    0.0394464   -3.7247625  
C   -1.6418567    0.0334992   -3.1673480  
H   -2.8160166   -0.0041569    0.5845966  
H   -5.1938823    0.0230023   -2.0274386  
H   -3.6464680    0.0481700   -4.6127343  
H   -1.3497475    0.0435647   -4.2109234  
H    2.1062466    0.0053162   -0.3505405  
C    0.8400945    0.7047457    2.2710304  
C    0.0000000    0.0000000    1.4700000  
C   -0.8844236   -0.7423113    2.3369512  
C   -0.4878984   -0.4098547    3.7186280  
N    0.5629682    0.4714286    3.6095011  
C   -1.0836927   -0.9095027    4.8308716  
C   -2.1891196   -1.8367527    4.6554461  
O   -2.7906899   -2.3413415    5.5944904  
C   -2.6257283   -2.2031529    3.2011665  
O   -3.5549479   -2.9829990    3.0410059  
C   -1.9068976   -1.5999348    2.0816745  
H   -0.7774656   -0.6525820    5.8354244  
H   -2.2155208   -1.8586617    1.0779135  
H    1.6384792    1.3747609    1.9961646  
H    1.0518368    0.8833920    4.3830260  
