60

C    0.6103926   -0.5416375   -9.6489409  
C    1.3538249   -0.4342037  -10.8014313  
C    1.2888436    0.9299242  -11.2131740  
C    0.4851025    1.6130690  -10.2648911  
N    0.0879422    0.6898272   -9.3297410  
C    0.2052998    2.9799226  -10.3555056  
C    0.7469815    3.6697731  -11.4226815  
O    0.5058461    5.0062737  -11.5591825  
C    1.5511168    3.0057204  -12.3793508  
O    2.0163184    3.8302301  -13.3829016  
C    1.8273425    1.6572500  -12.2907361  
H    1.8775341   -1.2401450  -11.2863862  
H   -0.4066607    3.5064239   -9.6361280  
H    0.9698789    5.2872004  -12.3585694  
H    2.5500697    3.3039348  -13.9859993  
H    2.4464426    1.1759347  -13.0387533  
H    0.4103004   -1.3995532   -9.0301504  
C    0.2315719   -0.7260317   -5.1498914  
C    0.4808493   -0.5092803   -6.4670685  
C   -0.5209816    0.4176777   -6.9381513  
C   -1.3804957    0.7254254   -5.7791358  
N   -0.8712826    0.0001710   -4.7267111  
C   -2.4455074    1.5658335   -5.8133232  
C   -2.7668031    2.2100925   -7.0759531  
O   -3.7062259    2.9834403   -7.2090655  
C   -1.8701922    1.8985510   -8.3164520  
O   -2.1311518    2.4348172   -9.3848993  
C   -0.7493913    0.9755929   -8.1558119  
H    1.2757007   -0.9487527   -7.0429923  
H   -3.0629963    1.7780129   -4.9515821  
H    0.7606229   -1.3553513   -4.4527891  
C    1.0965514    0.0001359   -0.8010305  
C    0.0000000    0.0000000    0.0000000  
C   -1.1546563    0.0001470   -0.8669513  
C   -0.6372014    0.0003519   -2.2486282  
N    0.7342871    0.0007337   -2.1395014  
C   -1.4147739    0.0001352   -3.3608717  
C   -2.8576049   -0.0001048   -3.1854462  
O   -3.6427779   -0.0002494   -4.1244907  
C   -3.4275840   -0.0000725   -1.7311666  
O   -4.6406831    0.0000333   -1.5710060  
C   -2.4891867   -0.0001091   -0.6116744  
H   -2.8919122   -0.0002918    0.3920866  
H    2.1388272    0.0000663   -0.5261648  
H    1.3735872   -0.0006099   -2.9130262  
C    0.0000000    0.0000000    1.4700000  
C    1.0662921    0.0000102    2.3034270  
C    0.4961870   -0.0000064    3.6418889  
C   -0.9663858    0.0000850    3.4240247  
N   -1.2632773    0.0000084    2.1528658  
C   -1.8985362    0.0000517    4.5177257  
C   -1.3925775   -0.0004564    5.7720543  
O   -2.1456383   -0.0005410    6.8851312  
C    0.0786232   -0.0009323    6.0245000  
O    0.4683759   -0.0012588    7.1921102  
C    1.0143166   -0.0008442    4.8859032  
H    2.1107198   -0.0000632    2.0421868  
H   -2.9622183    0.0003270    4.3293377  
H   -1.5042274   -0.0009692    7.6184419  
H    2.0724152   -0.0013148    5.1109744  
