60

C    9.0148937   -4.2503508   -6.6381383  
C    9.4922775   -4.9130375   -5.5311533  
C    8.6679768   -4.5330876   -4.4308052  
C    7.6961500   -3.6292623   -4.9313825  
N    7.9365721   -3.4781210   -6.2745021  
C    6.7142468   -3.0499284   -4.1220452  
C    6.7131939   -3.3894168   -2.7830438  
O    5.7762154   -2.8529984   -1.9479743  
C    7.6748267   -4.2891092   -2.2647460  
O    7.5419793   -4.5262424   -0.9121697  
C    8.6439558   -4.8608069   -3.0625405  
H   10.3320830   -5.5864989   -5.5180920  
H    7.3998947   -2.9038362   -6.8991267  
H    5.9524706   -3.2164820   -1.0704333  
H    8.2290056   -5.1434714   -0.6426771  
H    9.3674403   -5.5464460   -2.6371635  
H    9.3591566   -4.2663292   -7.6580339  
C    5.7035977   -2.1123450   -4.6323644  
C    5.5262376   -1.6495152   -5.8966459  
C    4.3945371   -0.7534730   -5.8620425  
C    3.9237589   -0.7320388   -4.4639369  
N    4.7591256   -1.5766813   -3.7699398  
C    2.8699641   -0.0020530   -4.0185824  
C    2.1513540    0.8170174   -4.9804861  
O    1.1888856    1.5100763   -4.6777905  
C    2.6323965    0.8093819   -6.4665365  
O    2.0350136    1.4947736   -7.2854580  
C    3.7812672   -0.0180950   -6.8260219  
H    6.1202740   -1.9066244   -6.7554990  
H    4.1081454   -0.0176478   -7.8569795  
H    4.6940935   -1.7721469   -2.7877935  
C    3.2573670   -0.0002921   -1.5109382  
C    2.5379468   -0.0001711   -0.3591962  
C    1.1435043    0.0000330   -0.7338498  
C    1.1092608   -0.0000085   -2.2088474  
N    2.4227562    0.0001906   -2.6182610  
C   -0.0265533   -0.0002525   -2.9515663  
C   -1.3003033   -0.0002641   -2.2514979  
O   -2.3786785   -0.0004132   -2.8306425  
C   -1.2877724    0.0000310   -0.6895608  
O   -2.3539956    0.0003306   -0.0892035  
C    0.0000000    0.0000000    0.0000000  
H    2.9384091   -0.0000370    0.6389240  
H   -0.0296290   -0.0004088   -4.0327231  
H    4.3270394   -0.0004767   -1.6439445  
C    0.8681109    0.7263879    2.2709268  
C    0.6127770    0.5096195    3.5869401  
C   -0.4920590   -0.4175482    3.6542670  
C   -0.8620974   -0.7254003    2.2596025  
N    0.0000000    0.0000000    1.4700000  
C   -1.8641242   -1.5660088    1.8976294  
C   -2.6293522   -2.2103885    2.9520183  
O   -3.5512764   -2.9839180    2.7283916  
C   -2.2549728   -1.8987399    4.4361073  
O   -2.8923672   -2.4351063    5.3323774  
C   -1.1543735   -0.9755647    4.7012123  
H    1.1382914    0.9492124    4.4159191  
H   -2.1192137   -1.7782617    0.8686553  
H   -0.9013378   -0.7652422    5.7314848  
H    1.6172880    1.3558399    1.8188057  
