66

C    9.9570628    0.7116801   -1.4933185  
C   11.2234066    0.4614993   -1.0176593  
C   11.0865371   -0.4482590    0.0723896  
C    9.7018564   -0.7200516    0.2163208  
N    9.0443945    0.0017442   -0.7487541  
C    9.1979244   -1.5805912    1.1962762  
C   10.1084305   -2.1778703    2.0462263  
O    9.6705902   -3.0271991    3.0208802  
C   11.4938953   -1.9189611    1.9186780  
O   12.2717520   -2.5891998    2.8401235  
C   11.9917236   -1.0699193    0.9523334  
H   12.1337195    0.8837290   -1.4075884  
H    8.1437072   -1.7917839    1.3112796  
H   10.4570987   -3.3283632    3.4941343  
H   13.1930039   -2.3593343    2.6850067  
H   13.0580361   -0.8908166    0.8790064  
H    9.6325335    1.3414762   -2.3038718  
C    6.5582216    0.0029728   -4.4647472  
C    7.6103885    0.0023858   -3.5785132  
C    7.0499442    0.0016137   -2.2668344  
C    5.6394785    0.0014820   -2.4168798  
N    5.3749058    0.0042714   -3.7639548  
C    4.7630507    0.0004755   -1.3275395  
C    5.3206371   -0.0007212   -0.0637066  
O    4.5107990   -0.0020884    1.0350079  
C    6.7255800   -0.0002356    0.1064481  
O    7.1255747   -0.0011496    1.4268069  
C    7.5907998    0.0010304   -0.9677582  
H    8.6535288    0.0036053   -3.8446898  
H    4.4592357   -0.0057081   -4.1755736  
H    5.0947317   -0.0024567    1.8046096  
H    8.0872936   -0.0007699    1.4532568  
H    6.5582215    0.0040132   -5.5412967  
C    3.3003548    0.0005276   -1.4738982  
C    2.5232817    0.0003497   -2.6090743  
C    1.1623204   -0.0001319   -2.1820101  
C    1.1711886    0.0000583   -0.7636140  
N    2.4852302   -0.0014919   -0.3662356  
C    0.0000000    0.0000000    0.0000000  
C   -1.2020379    0.0000520   -0.6806479  
O   -2.3759249    0.0003495    0.0157742  
C   -1.2314652   -0.0005112   -2.0955511  
O   -2.5054384   -0.0008036   -2.6250184  
C   -0.0764510   -0.0007271   -2.8495195  
H    2.8919962   -0.0005619   -3.6205297  
H    2.8036267    0.0088181    0.5858667  
H   -3.0835636    0.0000348   -0.6418823  
H   -2.4360038   -0.0011526   -3.5845925  
H   -0.1304090   -0.0013420   -3.9319089  
C    0.8576279    0.7185626    2.2703808  
C    0.0000000    0.0000000    1.4700000  
C   -0.8668858   -0.7285659    2.3373528  
C   -0.4876752   -0.4117774    3.6669281  
N    0.5635254    0.4678311    3.5902241  
C   -1.1297612   -0.9515493    4.7854808  
C   -2.1738724   -1.8268314    4.5576857  
O   -2.8357962   -2.3827064    5.6140350  
C   -2.5667212   -2.1555554    3.2384331  
O   -3.6226318   -3.0413663    3.1773122  
C   -1.9335634   -1.6236449    2.1344818  
H    1.0363952    0.8769718    4.3757045  
H   -0.8454472   -0.7142436    5.8013813  
H   -3.5178062   -2.9546422    5.2385129  
H   -3.8247440   -3.2102924    2.2519915  
H   -2.2566033   -1.8942483    1.1360343  
H    1.6567807    1.3889844    2.0042067  
