62

C    3.3041272    0.0001178   -1.5420437  
C    2.5845373   -0.0004779   -0.3695863  
C    1.2040006   -0.0000007   -0.7283594  
C    1.1422373    0.0006039   -2.1454379  
N    2.4348636    0.0026111   -2.6077468  
C   -0.0655185    0.0008799   -2.8497924  
C   -1.2321770    0.0002325   -2.1101400  
O   -2.4392818    0.0001148   -2.7472522  
C   -1.1911211   -0.0000007   -0.6955266  
O   -2.4371525   -0.0002319   -0.1032866  
C    0.0000000    0.0000000    0.0000000  
H    3.0031536   -0.0000661    0.6222576  
H    2.7054625   -0.0071097   -3.5745267  
H   -3.1132991   -0.0000648   -2.0551789  
H   -2.3200280   -0.0004071    0.8516406  
H    4.3686620    0.0004072   -1.7024302  
C   -0.1387085    0.0017019   -4.3179685  
C    0.8715312    0.0021967   -5.2254326  
C    0.2617550    0.0029742   -6.5342516  
C   -1.1970056    0.0029205   -6.3133249  
N   -1.3734978    0.0017347   -4.9488692  
C   -2.1246679    0.0039286   -7.3038525  
C   -1.6550235    0.0049216   -8.6793407  
O   -2.4116513    0.0058065   -9.6415337  
C   -0.1143777    0.0047445   -8.9366650  
O    0.2928821    0.0052677  -10.0905283  
C    0.7871604    0.0038970   -7.7872819  
H    1.9238023    0.0018530   -5.0033081  
H    1.8524573    0.0039850   -7.9740081  
H   -2.2623846    0.0029668   -4.4831156  
C   -4.6380845    2.0960733   -4.3370198  
C   -3.5967615    1.6339278   -5.0760344  
C   -4.1475626    0.7383510   -6.0656779  
C   -5.6055939    0.7164893   -5.8410514  
N   -5.8379668    1.5598277   -4.7791320  
C   -6.4854774   -0.0126412   -6.5730889  
C   -5.9614764   -0.8306200   -7.6542306  
O   -6.6726711   -1.5229491   -8.3705992  
C   -4.4205687   -0.8229011   -7.9098659  
O   -3.9677675   -1.5078478   -8.8171032  
C   -3.5733100    0.0040243   -7.0541797  
H   -2.5609721    1.8909179   -4.9429532  
H   -7.5513437   -0.0144262   -6.3918812  
H   -4.6298637    2.7831164   -3.5064811  
H   -6.7404331    1.7571089   -4.3871090  
C    2.5311839    2.1237619    3.0120429  
C    1.9795631    1.6616747    1.8395852  
C    0.9223175    0.7739173    2.1983588  
C    0.8753926    0.7337535    3.6154372  
N    1.8668922    1.5631002    4.0777464  
C   -0.0496243   -0.0427881    4.3197917  
C   -0.9437528   -0.7922060    3.5801400  
O   -1.8685244   -1.5680278    4.2172520  
C   -0.9124520   -0.7656372    2.1655264  
O   -1.8671164   -1.5663939    1.5732860  
C    0.0000000    0.0000000    1.4700000  
H    2.3005065    1.9304404    0.8477417  
H    2.0679347    1.7444845    5.0445261  
H   -0.0904770   -0.0778569    5.3997470  
H   -2.3849669   -2.0011402    3.5251786  
H   -1.7775064   -1.4909735    0.6183591  
H    3.3468514    2.8078103    3.1724291  
