66

C   -8.3858466    0.9917492   -2.4178184  
C   -7.5649325   -0.0839758   -2.6655748  
C   -8.4073448   -1.2258278   -2.8108901  
C   -9.7435860   -0.7816238   -2.6404020  
N   -9.6945285    0.5693373   -2.4014158  
C  -10.8425086   -1.6424714   -2.7184999  
C  -10.5878855   -2.9759795   -2.9736487  
O  -11.6242678   -3.8599361   -3.0605104  
C   -9.2615511   -3.4384048   -3.1463257  
O   -9.1728490   -4.7928010   -3.3934829  
C   -8.1769369   -2.5897708   -3.0691454  
H  -10.4913261    1.1615436   -2.2517987  
H  -11.8633488   -1.3101871   -2.5893656  
H  -11.2317556   -4.7239956   -3.2410647  
H   -8.2444920   -5.0227937   -3.4976975  
H   -7.1724392   -2.9729688   -3.2056083  
H   -8.1413007    2.0266513   -2.2500880  
C   -4.5382360    2.1274890   -0.3187874  
C   -3.4269599    1.6643337   -0.9843851  
C   -3.8900485    0.7769751   -2.0006251  
C   -5.3047950    0.7381442   -1.9062259  
N   -5.6653098    1.5678667   -0.8736531  
C   -6.0984769   -0.0376821   -2.7564909  
C   -5.4522277   -0.7877416   -3.7197925  
O   -6.1789766   -1.5629113   -4.5765084  
C   -4.0415024   -0.7625026   -3.8294924  
O   -3.5480075   -1.5637593   -4.8383506  
C   -3.2578655    0.0024282   -2.9908505  
H   -2.4078383    1.9321494   -0.7637975  
H   -6.6070984    1.7501468   -0.5773599  
H   -5.5421683   -1.9966430   -5.1592751  
H   -2.5888327   -1.4892405   -4.8442645  
H   -4.6159715    2.8116400    0.5087713  
C    0.0000000    0.0000000    0.0000000  
C    1.0521666   -0.0011982   -0.8862343  
C    0.4917215   -0.0011996   -2.1979132  
C   -0.9187429    0.0003215   -2.0478682  
N   -1.1833171   -0.0009323   -0.7007913  
C   -1.7951703    0.0010483   -3.1372089  
C   -1.2375841    0.0005313   -4.4010422  
O   -2.0474218    0.0015510   -5.4997578  
C    0.1673576   -0.0013585   -4.5711963  
O    0.5673520   -0.0020735   -5.8915554  
C    1.0325768   -0.0023493   -3.4969892  
H    2.0953056   -0.0030808   -0.6200564  
H   -2.0989778    0.0102529   -0.2891822  
H   -1.4634888    0.0006601   -6.2693595  
H    1.5290707   -0.0033271   -5.9180047  
H    2.1042146   -0.0039770   -3.6584456  
C    3.3003543   -0.0005276    2.9438989  
C    2.5232812   -0.0003497    4.0790748  
C    1.1623199    0.0001319    3.6520102  
C    1.1711883   -0.0000583    2.2336141  
N    2.4852299    0.0014920    1.8362361  
C    0.0000000    0.0000000    1.4700000  
C   -1.2020384   -0.0000520    2.1506477  
O   -2.3759250   -0.0003494    1.4542253  
C   -1.2314658    0.0005113    3.5655508  
O   -2.5054393    0.0008037    4.0950179  
C   -0.0764518    0.0007272    4.3195194  
H    2.8919952    0.0005619    5.0905303  
H    2.8036267   -0.0088181    0.8841339  
H   -3.0835639   -0.0000348    2.1118817  
H   -2.4360050    0.0011527    5.0545920  
H   -0.1304098    0.0013421    5.4019087  
H    4.3715549   -0.0004895    2.8367138  
