60

C    4.9116202   -4.3495021   -3.6699599  
C    3.9031339   -3.5163200   -4.0956718  
C    3.9028810   -3.5576789   -5.5214663  
C    4.9418677   -4.4406209   -5.9124221  
N    5.5354391   -4.9022742   -4.7638719  
C    5.2310323   -4.7226072   -7.2509495  
C    4.4570528   -4.1021975   -8.2123164  
O    4.6962410   -4.3422626   -9.5345006  
C    3.4161345   -3.2177622   -7.8420736  
O    2.7363788   -2.6792062   -8.9150293  
C    3.1304806   -2.9389012   -6.5217836  
H    3.2489351   -2.9477282   -3.4571429  
H    6.2981352   -5.5540926   -4.7263584  
H    6.0216297   -5.3944847   -7.5554786  
H    4.0529440   -3.8170983  -10.0280956  
H    2.0509629   -2.0941045   -8.5781838  
H    5.2362269   -4.5920946   -2.6725943  
C    2.0407262   -2.0139650   -6.1785234  
C    1.6287193   -1.6317255   -4.9473766  
C    0.5264174   -0.7135553   -5.1890257  
C    0.4056591   -0.6555643   -6.6616555  
N    1.2906474   -1.4158625   -7.2470881  
C   -0.5850920    0.1568584   -7.3123990  
C   -1.4176225    0.8782446   -6.5276509  
O   -2.3882003    1.6789419   -6.9997775  
C   -1.3210821    0.8405677   -5.0385502  
O   -2.1116404    1.5230224   -4.3870184  
C   -0.2963293   -0.0005341   -4.3948471  
H    2.0239475   -1.9354085   -3.9930984  
H   -0.6505845    0.1803534   -8.3903915  
H   -2.8082865    2.0545008   -6.2050221  
C    3.1301146   -0.0010313   -1.7028256  
C    2.5367765   -0.0002766   -0.4864669  
C    1.1089901    0.0001027   -0.7656184  
C    1.0177865   -0.0004150   -2.2415133  
N    2.1993571   -0.0011612   -2.7963824  
C   -0.2459219   -0.0002879   -2.9257116  
C   -1.3675326   -0.0000606   -2.1698520  
O   -2.6129318    0.0000865   -2.6748483  
C   -1.3083588    0.0000910   -0.6783229  
O   -2.3693264    0.0004206   -0.0541685  
C    0.0000000    0.0000000    0.0000000  
H    3.0096016   -0.0001007    0.4807518  
H   -3.1967444    0.0002093   -1.8949026  
H    4.1849275   -0.0015114   -1.9271979  
C    0.0000000    0.0000000    1.4700000  
C    1.0541688    0.0001722    2.3260392  
C    0.5103138    0.0000454    3.6635956  
C   -0.9576371   -0.0002459    3.5155732  
N   -1.2018458    0.0001392    2.1615969  
C   -1.8348311   -0.0008317    4.5510609  
C   -1.2972847   -0.0009736    5.9014604  
O   -2.0050672   -0.0014265    6.9001319  
C    0.2542623   -0.0004184    6.0817573  
O    0.7184670   -0.0002256    7.2139121  
C    1.0974552   -0.0000873    4.8889129  
H    2.0940752    0.0005483    2.0517982  
H   -2.9081052   -0.0011668    4.4207061  
H    2.1707277    0.0000911    5.0223670  
H   -2.1128194   -0.0014912    1.7406791  
