62

C    6.3033427   -0.7211739    2.9143406  
C    7.3153198   -0.0018208    2.3219720  
C    7.9714189    0.7253549    3.3589619  
C    7.3104763    0.4069429    4.5729206  
N    6.3015285   -0.4722531    4.2668882  
C    7.6922584    0.9450637    5.8055832  
C    8.7609155    1.8203329    5.8129383  
O    9.1756646    2.3746323    6.9892671  
C    9.4329074    2.1506633    4.6120527  
O   10.4766076    3.0362402    4.7846395  
C    9.0566414    1.6203819    3.3956018  
H    5.6682481   -0.8822790    4.9293193  
H    7.1925474    0.7065156    6.7343379  
H    9.9233165    2.9468558    6.7728390  
H   10.8762893    3.2063144    3.9261910  
H    9.5903214    1.8921933    2.4923950  
H    5.5817932   -1.3910107    2.4788596  
C    4.7390840    0.0009613   -1.2727298  
C    5.7457113    0.0027472   -2.2103681  
C    6.9802492    0.0028914   -1.4958638  
C    6.6612413    0.0008478   -0.1137801  
N    5.2920916    0.0016665   -0.0135512  
C    7.6369656    0.0000986    0.8875941  
C    8.9588062    0.0011300    0.4864546  
O    9.9518659    0.0001131    1.4228550  
C    9.2971111    0.0035455   -0.8877219  
O   10.6560639    0.0047353   -1.1256040  
C    8.3350583    0.0045588   -1.8761449  
H    5.6072444    0.0049198   -3.2779895  
H    4.7730884   -0.0099382    0.8457990  
H   10.7862573    0.0014011    0.9359723  
H   10.7982730    0.0063258   -2.0771176  
H    8.6245422    0.0065956   -2.9204982  
C    3.2798077    0.0005856   -1.4499661  
C    2.5571132    0.0005565   -2.5996564  
C    1.1637425    0.0001547   -2.2210366  
C    1.1336959   -0.0000200   -0.7459475  
N    2.4483509   -0.0001429   -0.3402730  
C    0.0000000    0.0000000    0.0000000  
C   -1.2757370   -0.0000187   -0.6964411  
O   -2.3524597   -0.0000640   -0.1142306  
C   -1.2676502   -0.0000874   -2.2584078  
O   -2.3355774   -0.0004102   -2.8557287  
C    0.0181551    0.0001758   -2.9516297  
H    2.9547342    0.0006074   -3.5989118  
H    0.0150776    0.0003317   -4.0331632  
H    2.7563626    0.0012823    0.6148051  
C    2.5128556    2.1077716    2.9199648  
C    1.9592212    1.6432552    4.0696553  
C    0.8915788    0.7479214    3.6910360  
C    0.8684491    0.7287414    2.2159470  
N    1.8754542    1.5738793    1.8102719  
C    0.0000000    0.0000000    1.4700000  
C   -0.9772830   -0.8200135    2.1664417  
O   -1.8021297   -1.5120829    1.5842315  
C   -0.9711318   -0.8147624    3.7284083  
O   -1.7894187   -1.5009653    4.3257297  
C    0.0140216    0.0115358    4.4216297  
H    2.2638494    1.8988021    5.0689105  
H    0.0117648    0.0094386    5.5031631  
H    3.3327358    2.7953732    2.7900019  
H    2.1123206    1.7707734    0.8551938  
