64

C    3.8878171   -0.7221148   -4.5427236  
C    3.9719337   -0.4862747   -5.8954138  
C    2.9171614    0.4147688   -6.2273415  
C    2.2168612    0.6962704   -5.0263989  
N    2.8310664   -0.0116219   -4.0232752  
C    1.1122536    1.5520021   -4.9778752  
C    0.7074032    2.1344024   -6.1632379  
O   -0.3652170    2.9784456   -6.1726998  
C    1.3930197    1.8656306   -7.3717527  
O    0.8682192    2.5214017   -8.4662354  
C    2.4826540    1.0213229   -7.4204129  
H    4.7028569   -0.9122317   -6.5612259  
H    0.5741181    1.7705381   -4.0658152  
H   -0.4758800    3.2691039   -7.0873239  
H    1.3885192    2.2856102   -9.2403773  
H    4.4971337   -1.3420430   -3.9076007  
C    3.3041274    0.0001177   -1.5420430  
C    2.5845373   -0.0004778   -0.3695855  
C    1.2040006   -0.0000008   -0.7283592  
C    1.1422375    0.0006035   -2.1454376  
N    2.4348638    0.0026109   -2.6077464  
C   -0.0655181    0.0008796   -2.8497921  
C   -1.2321767    0.0002321   -2.1101403  
O   -2.4392814    0.0001145   -2.7472524  
C   -1.1911210   -0.0000008   -0.6955263  
O   -2.4371527   -0.0002321   -0.1032858  
C    0.0000000    0.0000000    0.0000000  
H    3.0031536   -0.0000661    0.6222578  
H   -0.1193548    0.0014841   -3.9297472  
H   -3.1132988   -0.0000651   -2.0551785  
H   -2.3200279   -0.0004072    0.8516404  
H    4.3686625    0.0004071   -1.7024291  
C    3.6547114   -0.4486033   -9.1151358  
C    3.1675459    0.7677847   -8.6961645  
C    3.4575314    1.7099120   -9.7271371  
C    4.1280854    1.0045139  -10.7589790  
N    4.2330872   -0.3031062  -10.3543536  
C    4.5647865    1.6203169  -11.9357833  
C    4.3198399    2.9727920  -12.0735894  
O    4.7246021    3.6238650  -13.2028751  
C    3.6525881    3.6939518  -11.0550014  
O    3.4841165    5.0330137  -11.3411389  
C    3.2217326    3.0871513   -9.8936742  
H    4.6541774   -1.0431794  -10.8862898  
H    5.0765362    1.0883186  -12.7259038  
H    4.4590930    4.5465605  -13.0960872  
H    3.0258198    5.4464145  -10.6031231  
H    2.7134723    3.6654913   -9.1309985  
H    3.6366464   -1.4081741   -8.6274299  
C    2.5528530    2.1414826    2.8079335  
C    2.0663498    1.7338582    4.0032312  
C    0.9804344    0.8229586    3.6752840  
C    0.9495562    0.7966882    2.1971295  
N    1.8690446    1.5676019    1.6831036  
C    0.0000000    0.0000000    1.4700000  
C   -0.8785127   -0.7372425    2.1869543  
O   -1.8187535   -1.5261249    1.6395491  
C   -0.8723269   -0.7321790    3.6796354  
O   -1.7010379   -1.4274584    4.2670412  
C    0.1115397    0.0933559    4.4024240  
H    2.4028853    2.0163452    4.9860947  
H   -2.2861435   -1.9184361    2.3990168  
H    0.0832434    0.0693689    5.4835595  
H    3.3664920    2.8238276    2.6198634  
