60

C    8.8957171   -0.0032607   -2.9149547  
C    9.9838672   -0.0031646   -2.0732926  
C   11.1478965   -0.0043937   -2.8976924  
C   10.7038418   -0.0049209   -4.2448158  
N    9.3312643   -0.0061608   -4.2194234  
C   11.5839096   -0.0058240   -5.3312179  
C   12.9368949   -0.0058946   -5.0526318  
O   13.8401657   -0.0064088   -6.0759183  
C   13.3994399   -0.0057501   -3.7151460  
O   14.7744534   -0.0062701   -3.6025267  
C   12.5318041   -0.0051327   -2.6428908  
H    9.9436087   -0.0034183   -0.9974804  
H    8.7358508    0.0037894   -5.0277330  
H   11.2518248   -0.0063735   -6.3602572  
H   14.7155831   -0.0066651   -5.6673732  
H   15.0030777   -0.0061045   -2.6680029  
H   12.9155745   -0.0052185   -1.6293829  
C    6.6685706   -0.0005968    0.8976882  
C    7.6427397   -0.0013907   -0.0483929  
C    6.9825041   -0.0021117   -1.3324969  
C    5.5334436   -0.0016404   -1.0549829  
N    5.4101701   -0.0011224    0.3153068  
C    4.5679461   -0.0016854   -2.0086701  
C    4.9837201   -0.0024606   -3.4013891  
O    4.1902301   -0.0026238   -4.3334164  
C    6.5131882   -0.0032216   -3.7184580  
O    6.8752470   -0.0041841   -4.8872917  
C    7.4587613   -0.0028168   -2.6050205  
H    8.7028559   -0.0016453    0.1326241  
H    6.7640835    0.0001111    1.9713581  
H    4.5400772    0.0008356    0.8152885  
C    3.1301149   -0.0010311   -1.7028252  
C    2.5367768   -0.0002767   -0.4864665  
C    1.1089904    0.0001028   -0.7656183  
C    1.0177872   -0.0004148   -2.2415132  
N    2.1993578   -0.0011611   -2.7963820  
C   -0.2459209   -0.0002877   -2.9257118  
C   -1.3675319   -0.0000605   -2.1698524  
O   -2.6129313    0.0000867   -2.6748490  
C   -1.3083584    0.0000910   -0.6783232  
O   -2.3693261    0.0004206   -0.0541692  
C    0.0000000    0.0000000    0.0000000  
H    3.0096017   -0.0001007    0.4807525  
H   -0.2829630   -0.0004687   -4.0053125  
H   -3.1967441    0.0002094   -1.8949034  
C    2.3971438    2.0127888    3.1728260  
C    1.9431056    1.6308205    1.9564670  
C    0.8496017    0.7127664    2.2356185  
C    0.7794028    0.6545384    3.7115134  
N    1.6840587    1.4146091    4.2663826  
C   -0.1885723   -0.1578550    4.3957118  
C   -1.0476298   -0.8789867    3.6398520  
O   -2.0015663   -1.6796266    4.1448486  
C   -1.0022026   -0.8410666    2.1483229  
O   -1.8147390   -1.5232959    1.5241687  
C    0.0000000    0.0000000    1.4700000  
H    2.3054237    1.9346118    0.9892483  
H   -0.2170646   -0.1815267    5.4753125  
H   -2.4487139   -2.0549881    3.3649027  
H    3.2048689    2.6911772    3.3971983  
