64

C    4.1912752   -2.1187508   -5.8134443  
C    2.9411231   -1.6569483   -6.1545086  
C    3.1118536   -0.7695238   -7.2581068  
C    4.4995453   -0.7292606   -7.5489964  
N    5.1262092   -1.5582298   -6.6519345  
C    5.0335119    0.0470215   -8.5819792  
C    4.1504931    0.7960726   -9.3352247  
O    4.6182692    1.5716296  -10.3563561  
C    2.7625295    0.7693993   -9.0601541  
O    2.0142498    1.5697801   -9.8984922  
C    2.2350878    0.0040179   -8.0410747  
H    2.0196215   -1.9256847   -5.6670577  
H    6.1132057   -1.7394660   -6.6207650  
H    6.0901921    0.0821645   -8.8086829  
H    3.8473653    2.0045084  -10.7456980  
H    1.0891441    1.4943126   -9.6453368  
H    4.4901727   -2.8025063   -5.0374948  
C   -0.1387078    0.0017019   -4.3179684  
C    0.8715321    0.0021971   -5.2254318  
C    0.2617562    0.0029749   -6.5342510  
C   -1.1970041    0.0029208   -6.3133244  
N   -1.3734971    0.0017348   -4.9488690  
C   -2.1246662    0.0039288   -7.3038527  
C   -1.6550217    0.0049224   -8.6793415  
O   -2.4116492    0.0058073   -9.6415342  
C   -0.1143757    0.0047456   -8.9366641  
O    0.2928845    0.0052690  -10.0905276  
C    0.7871620    0.0038980   -7.7872817  
H    1.9238030    0.0018536   -5.0033071  
H   -3.1901193    0.0039992   -7.1202221  
H   -2.2623840    0.0029666   -4.4831162  
C    3.3041272    0.0001178   -1.5420428  
C    2.5845372   -0.0004779   -0.3695851  
C    1.2040007   -0.0000007   -0.7283589  
C    1.1422375    0.0006038   -2.1454371  
N    2.4348641    0.0026111   -2.6077464  
C   -0.0655179    0.0008799   -2.8497918  
C   -1.2321766    0.0002325   -2.1101402  
O   -2.4392816    0.0001148   -2.7472523  
C   -1.1911209   -0.0000007   -0.6955266  
O   -2.4371527   -0.0002320   -0.1032863  
C    0.0000000    0.0000000    0.0000000  
H    3.0031533   -0.0000660    0.6222584  
H    2.7054632   -0.0071097   -3.5745261  
H   -3.1132986   -0.0000648   -2.0551788  
H   -2.3200284   -0.0004071    0.8516409  
H    4.3686626    0.0004072   -1.7024289  
C    2.5311839    2.1237619    3.0120429  
C    1.9795631    1.6616747    1.8395852  
C    0.9223175    0.7739173    2.1983588  
C    0.8753926    0.7337535    3.6154372  
N    1.8668922    1.5631002    4.0777464  
C   -0.0496243   -0.0427881    4.3197917  
C   -0.9437528   -0.7922060    3.5801400  
O   -1.8685244   -1.5680278    4.2172520  
C   -0.9124520   -0.7656372    2.1655264  
O   -1.8671164   -1.5663939    1.5732860  
C    0.0000000    0.0000000    1.4700000  
H    2.3005065    1.9304404    0.8477417  
H    2.0679347    1.7444845    5.0445261  
H   -0.0904770   -0.0778569    5.3997470  
H   -2.3849669   -2.0011402    3.5251786  
H   -1.7775064   -1.4909735    0.6183591  
H    3.3468514    2.8078103    3.1724291  
