62

C    6.7034526    0.1935465   -4.8584155  
C    7.7678576   -0.4638689   -4.2863007  
C    8.9346837   -0.0743005   -5.0083477  
C    8.5167684    0.8301285   -6.0179423  
N    7.1561085    0.9691139   -5.9000236  
C    9.4065743    1.4183904   -6.9218130  
C   10.7426427    1.0878458   -6.8041712  
O   11.6544538    1.6337394   -7.6606840  
C   11.1789889    0.1871342   -5.8036025  
O   12.5395556   -0.0410016   -5.8161246  
C   10.3016952   -0.3937873   -4.9117444  
H    7.7102299   -1.1417707   -3.4519617  
H    6.5807471    1.5570447   -6.4755909  
H    9.0943716    2.1083431   -7.6936274  
H   12.5151418    1.2749231   -7.4082315  
H   12.7507431   -0.6595441   -5.1101440  
H   10.6652829   -1.0802516   -4.1560666  
C    4.6171599   -2.0114326   -1.7322447  
C    3.3328193   -1.6298291   -1.9231037  
C    3.3780282   -0.7112570   -3.0503490  
C    4.8069992   -0.6523616   -3.4260571  
N    5.5382134   -1.4125186   -2.6569816  
C    5.2745454    0.1606804   -4.5148408  
C    4.3562407    0.8817945   -5.1975154  
O    4.6514314    1.6829997   -6.2352884  
C    2.9068165    0.8432089   -4.8427747  
O    2.1270270    1.5254609   -5.5073660  
C    2.4521483    0.0014840   -3.7217481  
H    2.4622564   -1.9341724   -1.3676124  
H    3.7953895    2.0581840   -6.5102098  
H    5.0049134   -2.6900158   -0.9891801  
C    0.0000000    0.0000000    0.0000000  
C    1.0662923   -0.0000101   -0.8334270  
C    0.4961873    0.0000065   -2.1718887  
C   -0.9663854   -0.0000848   -1.9540250  
N   -1.2632773   -0.0000083   -0.6828660  
C   -1.8985359   -0.0000514   -3.0477261  
C   -1.3925770    0.0004566   -4.3020547  
O   -2.1456378    0.0005414   -5.4151314  
C    0.0786240    0.0009326   -4.5545000  
O    0.4683767    0.0012591   -5.7221100  
C    1.0143171    0.0008444   -3.4159031  
H    2.1107200    0.0000633   -0.5721865  
H   -2.9622181   -0.0003268   -2.8593381  
H   -1.5042265    0.0009697   -6.1484419  
C    3.3003543   -0.0005276    2.9438989  
C    2.5232812   -0.0003497    4.0790748  
C    1.1623199    0.0001319    3.6520102  
C    1.1711883   -0.0000583    2.2336141  
N    2.4852299    0.0014920    1.8362361  
C    0.0000000    0.0000000    1.4700000  
C   -1.2020384   -0.0000520    2.1506477  
O   -2.3759250   -0.0003494    1.4542253  
C   -1.2314658    0.0005113    3.5655508  
O   -2.5054393    0.0008037    4.0950179  
C   -0.0764518    0.0007272    4.3195194  
H    2.8919952    0.0005619    5.0905303  
H    2.8036267   -0.0088181    0.8841339  
H   -3.0835639   -0.0000348    2.1118817  
H   -2.4360050    0.0011527    5.0545920  
H   -0.1304098    0.0013421    5.4019087  
H    4.3715549   -0.0004895    2.8367138  
