60

C    6.9454050   -0.0095707   -4.1350277  
C    7.9269341   -0.6844742   -3.4468603  
C    9.1737051   -0.3223060   -4.0376182  
C    8.8877042    0.5842013   -5.0904116  
N    7.5254275    0.7507227   -5.1233984  
C    9.8832027    1.1494131   -5.8930993  
C   11.1912698    0.7932542   -5.6279762  
O   12.2025718    1.3159528   -6.3810155  
C   11.4966520   -0.1099537   -4.5821400  
O   12.8454459   -0.3649804   -4.4440756  
C   10.5150575   -0.6681453   -3.7900428  
H    7.7642244   -1.3561508   -2.6214090  
H    7.0288486    1.3464792   -5.7609441  
H    9.6717712    1.8408112   -6.6971318  
H   13.0228465    0.9417140   -6.0340873  
H   12.9651792   -0.9833789   -3.7168542  
H   10.7793967   -1.3571657   -2.9964096  
C    4.3047788   -2.1086501   -1.2859241  
C    5.3774559   -1.6442162   -1.9771117  
C    4.8701586   -0.7486140   -2.9897226  
C    3.4034918   -0.7291863   -2.8306571  
N    3.1250154   -1.5744519   -1.7814348  
C    2.5562217   -0.0001543   -3.6003001  
C    3.1269049    0.8199330   -4.6559100  
O    2.4474939    1.5122577   -5.4024942  
C    4.6776933    0.8144231   -4.8425423  
O    5.1696074    1.5006854   -5.7281633  
C    5.4870227   -0.0121795   -3.9505977  
H    6.4066157   -1.8999867   -1.7981563  
H    4.2768475   -2.7963886   -0.4563905  
H    2.2064271   -1.7712342   -1.4285624  
C    0.0000000    0.0000000    0.0000000  
C    1.0541688   -0.0001719   -0.8560391  
C    0.5103141   -0.0000449   -2.1935955  
C   -0.9576367    0.0002461   -2.0455733  
N   -1.2018459   -0.0001392   -0.6915970  
C   -1.8348306    0.0008319   -3.0810611  
C   -1.2972842    0.0009739   -4.4314605  
O   -2.0050664    0.0014267   -5.4301321  
C    0.2542628    0.0004190   -4.6117571  
O    0.7184677    0.0002263   -5.7439119  
C    1.0974556    0.0000880   -3.4189127  
H    2.0940752   -0.0005479   -0.5817978  
H   -2.9081050    0.0011669   -2.9507065  
H   -2.1128195    0.0014911   -0.2706793  
C    1.0672568    0.0000697    2.3021913  
C    0.0000000    0.0000000    1.4700000  
C   -1.1601224    0.0000736    2.3478473  
C   -0.5938729    0.0000769    3.7138435  
N    0.7113367    0.0001554    3.6934124  
C   -1.4286986    0.0001879    4.8835240  
C   -2.7683114    0.0006799    4.6970523  
O   -3.6653903    0.0008304    5.6976972  
C   -3.3702025    0.0010610    3.3310774  
O   -4.5974910    0.0013779    3.2362962  
C   -2.4926826    0.0008943    2.1470656  
H   -0.9878360   -0.0000190    5.8697035  
H   -4.5324246    0.0012261    5.2533954  
H   -2.9677772    0.0012974    1.1752040  
H    2.1134392    0.0000545    2.0405121  
