62

C    3.3041272    0.0001180   -1.5420435  
C    2.5845371   -0.0004778   -0.3695860  
C    1.2040005   -0.0000007   -0.7283587  
C    1.1422371    0.0006040   -2.1454370  
N    2.4348638    0.0026115   -2.6077467  
C   -0.0655185    0.0008801   -2.8497917  
C   -1.2321772    0.0002327   -2.1101398  
O   -2.4392820    0.0001151   -2.7472514  
C   -1.1911210   -0.0000007   -0.6955257  
O   -2.4371525   -0.0002319   -0.1032854  
C    0.0000000    0.0000000    0.0000000  
H    3.0031538   -0.0000661    0.6222579  
H    2.7054625   -0.0071092   -3.5745262  
H   -3.1132992   -0.0000646   -2.0551777  
H   -2.3200277   -0.0004073    0.8516414  
H    4.3686618    0.0004075   -1.7024297  
C    0.6611976   -0.7016920   -5.1602638  
C   -0.1387089    0.0017023   -4.3179682  
C   -1.0659762    0.7435471   -5.1393555  
C   -0.7383884    0.4122900   -6.5392641  
N    0.3175295   -0.4679243   -6.4831335  
C   -1.3893436    0.9119192   -7.6201584  
C   -2.4856342    1.8378819   -7.3893454  
O   -3.1337400    2.3423487   -8.2969644  
C   -2.8496765    2.2029992   -5.9149069  
O   -3.7705849    2.9817564   -5.7082032  
C   -2.0753682    1.5999281   -4.8329627  
H   -1.1332438    0.6558895   -8.6388690  
H   -2.3339027    1.8577617   -3.8149226  
H    1.4729774   -1.3710020   -4.9258994  
C    1.4183792   -2.3413352   -7.7936995  
C    0.9769738   -1.0699838   -7.6508479  
C    1.2966374   -0.4180762   -8.9115352  
C    1.9455782   -1.4712298   -9.7216759  
N    2.0196811   -2.6008407   -9.0716933  
C    2.4168951   -1.2224689  -11.0562405  
C    2.2472702    0.0217236  -11.5587810  
O    2.6387478    0.3939803  -12.7893135  
C    1.5957206    1.1058396  -10.7661038  
O    1.4745559    2.2145952  -11.2868736  
C    1.1207498    0.8257403   -9.3994030  
H    2.8876307   -2.0106870  -11.6254768  
H    2.3837200    1.3317753  -12.8575337  
H    0.6540766    1.6378871   -8.8582339  
H    1.3678026   -3.1462795   -7.0778222  
C    2.5311839    2.1237619    3.0120429  
C    1.9795631    1.6616747    1.8395852  
C    0.9223175    0.7739173    2.1983588  
C    0.8753926    0.7337535    3.6154372  
N    1.8668922    1.5631002    4.0777464  
C   -0.0496243   -0.0427881    4.3197917  
C   -0.9437528   -0.7922060    3.5801400  
O   -1.8685244   -1.5680278    4.2172520  
C   -0.9124520   -0.7656372    2.1655264  
O   -1.8671164   -1.5663939    1.5732860  
C    0.0000000    0.0000000    1.4700000  
H    2.3005065    1.9304404    0.8477417  
H    2.0679347    1.7444845    5.0445261  
H   -0.0904770   -0.0778569    5.3997470  
H   -2.3849669   -2.0011402    3.5251786  
H   -1.7775064   -1.4909735    0.6183591  
H    3.3468514    2.8078103    3.1724291  
