62

C    9.1280325    0.0025290   -0.2802105  
C   10.1866829    0.0037572   -1.1586906  
C   11.3782961    0.0044815   -0.3746905  
C   10.9806969    0.0033503    0.9868673  
N    9.6080551    0.0041309    1.0085583  
C   11.8975009    0.0033557    2.0424523  
C   13.2401373    0.0042174    1.7176353  
O   14.1779664    0.0039125    2.7093458  
C   13.6565484    0.0057272    0.3650759  
O   15.0268883    0.0068612    0.2053726  
C   12.7526512    0.0059960   -0.6767970  
H   10.1095554    0.0051951   -2.2324889  
H    9.0407136   -0.0069314    1.8367982  
H   11.6008983    0.0026409    3.0822740  
H   15.0388594    0.0049349    2.2710229  
H   15.2233324    0.0078178   -0.7364410  
H   13.1014426    0.0073472   -1.7028677  
C    6.8354432    0.0008785   -4.0255230  
C    5.5758875    0.0005992   -3.5179857  
C    5.7016160    0.0007904   -2.0795742  
C    7.1480383    0.0012361   -1.7886230  
N    7.7802455    0.0008700   -3.0105904  
C    7.6812949    0.0019200   -0.5406881  
C    6.7698185    0.0020121    0.5914543  
O    7.1520251    0.0025450    1.7543039  
C    5.2340026    0.0012938    0.3067213  
O    4.4569011    0.0010578    1.2519060  
C    4.7795901    0.0008674   -1.0815733  
H    4.6629017    0.0001118   -4.0863788  
H    7.1529573    0.0008729   -5.0556079  
H    8.7747878    0.0025944   -3.1444924  
C    3.3321168    0.0004716   -1.3379341  
C    2.6974177    0.0000118   -2.5332316  
C    1.2800432   -0.0002116   -2.2052842  
C    1.2395033    0.0000644   -0.7271298  
N    2.4394059    0.0005460   -0.2131041  
C    0.0000000    0.0000000    0.0000000  
C   -1.1468704    0.0000635   -0.7169542  
O   -2.3742206    0.0000074   -0.1695488  
C   -1.1388774    0.0001608   -2.2096352  
O   -2.2206238    0.0000906   -2.7970409  
C    0.1454514    0.0001818   -2.9324241  
H    3.1367978   -0.0000649   -3.5160956  
H   -2.9844350    0.0001027   -0.9290164  
H    0.1083567    0.0003684   -4.0135594  
C    0.8576279    0.7185626    2.2703808  
C    0.0000000    0.0000000    1.4700000  
C   -0.8668858   -0.7285659    2.3373528  
C   -0.4876752   -0.4117774    3.6669281  
N    0.5635254    0.4678311    3.5902241  
C   -1.1297612   -0.9515493    4.7854808  
C   -2.1738724   -1.8268314    4.5576857  
O   -2.8357962   -2.3827064    5.6140350  
C   -2.5667212   -2.1555554    3.2384331  
O   -3.6226318   -3.0413663    3.1773122  
C   -1.9335634   -1.6236449    2.1344818  
H    1.0363952    0.8769718    4.3757045  
H   -0.8454472   -0.7142436    5.8013813  
H   -3.5178062   -2.9546422    5.2385129  
H   -3.8247440   -3.2102924    2.2519915  
H   -2.2566033   -1.8942483    1.1360343  
H    1.6567807    1.3889844    2.0042067  
