62

C    1.6527651   -1.0658428   -7.2286116  
C    2.6287884   -1.9514668   -6.8342572  
C    3.4452695   -2.2066461   -7.9756792  
C    2.9146972   -1.4422185   -9.0462255  
N    1.8258454   -0.7628737   -8.5588745  
C    3.4711139   -1.4489914  -10.3288570  
C    4.5835838   -2.2416586  -10.5344466  
O    5.1669812   -2.2851742  -11.7676402  
C    5.1273665   -3.0118081   -9.4789909  
O    6.2352612   -3.7491944   -9.8425474  
C    4.5788054   -3.0058212   -8.2134594  
H    2.7380998   -2.3638032   -5.8458129  
H    1.2519731   -0.1308481   -9.0872642  
H    3.0713945   -0.8687547  -11.1490717  
H    5.9166769   -2.8899686  -11.6938428  
H    6.5400526   -4.2396885   -9.0730532  
H    5.0172059   -3.6063028   -7.4249772  
C    0.2810591   -0.7180976   -5.1362605  
C   -0.8287665    0.0000939   -4.7555305  
C   -1.2664165    0.7286058   -5.9011015  
C   -0.3775036    0.4121683   -6.9601703  
N    0.5511370   -0.4671880   -6.4611948  
C   -0.5073496    0.9519915   -8.2433383  
C   -1.5537883    1.8269651   -8.4614341  
O   -1.7271359    2.3828742   -9.6959097  
C   -2.4509427    2.1553366   -7.4173547  
O   -3.4401336    3.0408676   -7.7924274  
C   -2.3232905    1.6233751   -6.1511596  
H    0.1668884    0.7149527   -9.0547668  
H   -2.5031973    2.9545649   -9.6313835  
H   -4.0023392    3.2095652   -7.0301481  
H   -3.0257707    1.8937054   -5.3714663  
H    0.9022067   -1.3883673   -4.5671621  
C    1.0672569   -0.0000698   -0.8321910  
C    0.0000000    0.0000000    0.0000000  
C   -1.1601223   -0.0000736   -0.8778472  
C   -0.5938729   -0.0000768   -2.2438435  
N    0.7113367   -0.0001553   -2.2234123  
C   -1.4286985   -0.0001877   -3.4135239  
C   -2.7683113   -0.0006798   -3.2270524  
O   -3.6653902   -0.0008302   -4.2276970  
C   -3.3702024   -0.0010610   -1.8610774  
O   -4.5974910   -0.0013779   -1.7662963  
C   -2.4926825   -0.0008943   -0.6770658  
H   -4.5324245   -0.0012258   -3.7833954  
H   -2.9677772   -0.0012974    0.2947961  
H    2.1134391   -0.0000547   -0.5705119  
C    2.5528530    2.1414826    2.8079335  
C    2.0663498    1.7338582    4.0032312  
C    0.9804344    0.8229586    3.6752840  
C    0.9495562    0.7966882    2.1971295  
N    1.8690446    1.5676019    1.6831036  
C    0.0000000    0.0000000    1.4700000  
C   -0.8785127   -0.7372425    2.1869543  
O   -1.8187535   -1.5261249    1.6395491  
C   -0.8723269   -0.7321790    3.6796354  
O   -1.7010379   -1.4274584    4.2670412  
C    0.1115397    0.0933559    4.4024240  
H    2.4028853    2.0163452    4.9860947  
H   -2.2861435   -1.9184361    2.3990168  
H    0.0832434    0.0693689    5.4835595  
H    3.3664920    2.8238276    2.6198634  
