64

C    9.5328807   -0.6607475   -3.2606457  
C   10.8686889   -0.3976675   -3.4578023  
C   10.9565338    0.5139721   -4.5513273  
C    9.6309864    0.7735656   -4.9842969  
N    8.7913859    0.0430120   -4.1805683  
C    9.3372787    1.6323275   -6.0478069  
C   10.4010628    2.2403385   -6.6856631  
O   10.1709410    3.0884764   -7.7300383  
C   11.7307162    1.9936830   -6.2685292  
O   12.6792612    2.6736508   -7.0042252  
C   12.0212228    1.1464026   -5.2196021  
H   11.6800612   -0.8127246   -2.8847435  
H    8.3291870    1.8342476   -6.3827415  
H   11.0367723    3.3981622   -8.0261705  
H   13.5490986    2.4517313   -6.6581908  
H   13.0496366    0.9768017   -4.9228186  
H    9.0504530   -1.2958257   -2.5375290  
C    5.5764488    0.0083482   -1.0736993  
C    6.7920324    0.0210898   -1.7176408  
C    6.5213447    0.0205731   -3.1181150  
C    5.1110770    0.0074286   -3.2694408  
N    4.5679461   -0.0016854   -2.0086701  
C    4.4845810    0.0036235   -4.5193514  
C    5.2965301    0.0135701   -5.6368565  
O    4.7370945    0.0107593   -6.8818617  
C    6.7056512    0.0263689   -5.5063537  
O    7.3755159    0.0347625   -6.7124026  
C    7.3243921    0.0298564   -4.2736030  
H    7.7553653    0.0285926   -1.2370925  
H    3.4102461   -0.0065222   -4.6414306  
H    5.4703963    0.0186807   -7.5107261  
H    8.3210779    0.0432149   -6.5350766  
H    5.3490393    0.0041782   -0.0214509  
C    3.1301149   -0.0010311   -1.7028252  
C    2.5367768   -0.0002767   -0.4864665  
C    1.1089904    0.0001028   -0.7656183  
C    1.0177872   -0.0004148   -2.2415132  
N    2.1993578   -0.0011611   -2.7963820  
C   -0.2459209   -0.0002877   -2.9257118  
C   -1.3675319   -0.0000605   -2.1698524  
O   -2.6129313    0.0000867   -2.6748490  
C   -1.3083584    0.0000910   -0.6783232  
O   -2.3693261    0.0004206   -0.0541692  
C    0.0000000    0.0000000    0.0000000  
H    3.0096017   -0.0001007    0.4807525  
H   -0.2829630   -0.0004687   -4.0053125  
H   -3.1967441    0.0002094   -1.8949034  
C    0.8576279    0.7185626    2.2703808  
C    0.0000000    0.0000000    1.4700000  
C   -0.8668858   -0.7285659    2.3373528  
C   -0.4876752   -0.4117774    3.6669281  
N    0.5635254    0.4678311    3.5902241  
C   -1.1297612   -0.9515493    4.7854808  
C   -2.1738724   -1.8268314    4.5576857  
O   -2.8357962   -2.3827064    5.6140350  
C   -2.5667212   -2.1555554    3.2384331  
O   -3.6226318   -3.0413663    3.1773122  
C   -1.9335634   -1.6236449    2.1344818  
H    1.0363952    0.8769718    4.3757045  
H   -0.8454472   -0.7142436    5.8013813  
H   -3.5178062   -2.9546422    5.2385129  
H   -3.8247440   -3.2102924    2.2519915  
H   -2.2566033   -1.8942483    1.1360343  
H    1.6567807    1.3889844    2.0042067  
