60

C    6.5055040    0.0019685   -1.9705360  
C    5.8011798    0.0007350   -0.7888452  
C    6.7599121   -0.0000876    0.2672948  
C    8.0436685    0.0009922   -0.3359414  
N    7.8529719    0.0002767   -1.6954453  
C    9.2282545    0.0008877    0.4067195  
C    9.1148294   -0.0000219    1.7834223  
O   10.2395568    0.0001863    2.5567272  
C    7.8428697   -0.0014816    2.4038535  
O    7.8968568   -0.0026734    3.7824136  
C    6.6738266   -0.0016527    1.6718272  
H    4.7283620   -0.0006435   -0.6991017  
H    8.5835857    0.0113233   -2.3839673  
H   10.2097478    0.0015628   -0.0470129  
H    9.9395415   -0.0008548    3.4750163  
H    6.9967155   -0.0035905    4.1220436  
H    5.7139838   -0.0029674    2.1749954  
C    2.4521485    0.0014838   -3.7217479  
C    3.5087829    0.0013020   -2.8687536  
C    4.7039154    0.0022079   -3.6789958  
C    4.2537136    0.0029669   -5.0840253  
N    2.8785576    0.0020813   -5.0411853  
C    5.0840337    0.0043212   -6.1574641  
C    6.5167219    0.0048559   -5.9126424  
O    7.3462801    0.0059999   -6.8127168  
C    7.0158851    0.0038167   -4.4325611  
O    8.2198466    0.0039483   -4.2140684  
C    6.0245776    0.0026609   -3.3596397  
H    3.4569042    0.0004295   -1.7945464  
H    4.7332280    0.0049887   -7.1801302  
H    2.2773152    0.0038587   -5.8446476  
C    0.0000000    0.0000000    0.0000000  
C    1.0662924   -0.0000102   -0.8334267  
C    0.4961874    0.0000064   -2.1718888  
C   -0.9663853   -0.0000849   -1.9540250  
N   -1.2632772   -0.0000084   -0.6828660  
C   -1.8985357   -0.0000515   -3.0477261  
C   -1.3925767    0.0004566   -4.3020548  
O   -2.1456375    0.0005411   -5.4151316  
C    0.0786242    0.0009324   -4.5545000  
O    0.4683770    0.0012590   -5.7221099  
C    1.0143173    0.0008443   -3.4159029  
H    2.1107200    0.0000632   -0.5721862  
H   -2.9622180   -0.0003269   -2.8593382  
H   -1.5042262    0.0009694   -6.1484423  
C    0.0000000    0.0000000    1.4700000  
C    1.0541688    0.0001722    2.3260392  
C    0.5103138    0.0000454    3.6635956  
C   -0.9576371   -0.0002459    3.5155732  
N   -1.2018458    0.0001392    2.1615969  
C   -1.8348311   -0.0008317    4.5510609  
C   -1.2972847   -0.0009736    5.9014604  
O   -2.0050672   -0.0014265    6.9001319  
C    0.2542623   -0.0004184    6.0817573  
O    0.7184670   -0.0002256    7.2139121  
C    1.0974552   -0.0000873    4.8889129  
H    2.0940752    0.0005483    2.0517982  
H   -2.9081052   -0.0011668    4.4207061  
H    2.1707277    0.0000911    5.0223670  
H   -2.1128194   -0.0014912    1.7406791  
