62

C   -3.7977125    0.7207684   -8.1055704  
C   -2.7925202    0.0020550   -8.7101419  
C   -3.3880370   -0.7254096   -9.7828739  
C   -4.7704498   -0.4078248   -9.7842344  
N   -4.9856815    0.4711774   -8.7519323  
C   -5.6692498   -0.9464252  -10.7098993  
C   -5.1632420   -1.8213323  -11.6515319  
O   -5.9967913   -2.3760719  -12.5791495  
C   -3.7870043   -2.1508379  -11.6661338  
O   -3.4379837   -3.0361430  -12.6650143  
C   -2.8997871   -1.6200833  -10.7530773  
H   -5.8707732    0.8806586   -8.5133587  
H   -6.7240287   -0.7085079  -10.7161649  
H   -5.4483081   -2.9479322  -13.1317850  
H   -2.4928792   -3.2056554  -12.6046204  
H   -1.8511411   -1.8912649  -10.7888701  
H   -3.7615122    1.3905738   -7.2635436  
C   -0.8712823    0.0001712   -4.7267111  
C    0.4339908   -0.0008060   -5.1611397  
C    0.3982143   -0.0008817   -6.5870850  
C   -0.9677833    0.0003685   -6.9691518  
N   -1.7116543   -0.0009682   -5.8153445  
C   -1.3793560    0.0009558   -8.3053390  
C   -0.3940120    0.0005752   -9.2734680  
O   -0.7402469    0.0014682  -10.5937462  
C    0.9742892   -0.0010442   -8.9121277  
O    1.8341067   -0.0016513   -9.9910418  
C    1.3810430   -0.0018973   -7.5941456  
H    1.3048040   -0.0024975   -4.5281507  
H   -2.7146166    0.0100335   -5.7714415  
H    0.0868488    0.0007067  -11.0929229  
H    2.7374593   -0.0027220   -9.6600482  
H    2.4364414   -0.0033180   -7.3479530  
C    1.0965515    0.0001358   -0.8010304  
C    0.0000000    0.0000000    0.0000000  
C   -1.1546562    0.0001470   -0.8669514  
C   -0.6372012    0.0003520   -2.2486282  
N    0.7342873    0.0007338   -2.1395014  
C   -1.4147737    0.0001354   -3.3608717  
C   -2.8576047   -0.0001047   -3.1854463  
O   -3.6427778   -0.0002491   -4.1244908  
C   -3.4275837   -0.0000725   -1.7311667  
O   -4.6406828    0.0000333   -1.5710061  
C   -2.4891866   -0.0001090   -0.6116745  
H   -2.8919121   -0.0002919    0.3920865  
H    2.1388272    0.0000662   -0.5261647  
H    1.3735873   -0.0006098   -2.9130261  
C    2.3971438    2.0127888    3.1728260  
C    1.9431056    1.6308205    1.9564670  
C    0.8496017    0.7127664    2.2356185  
C    0.7794028    0.6545384    3.7115134  
N    1.6840587    1.4146091    4.2663826  
C   -0.1885723   -0.1578550    4.3957118  
C   -1.0476298   -0.8789867    3.6398520  
O   -2.0015663   -1.6796266    4.1448486  
C   -1.0022026   -0.8410666    2.1483229  
O   -1.8147390   -1.5232959    1.5241687  
C    0.0000000    0.0000000    1.4700000  
H    2.3054237    1.9346118    0.9892483  
H   -0.2170646   -0.1815267    5.4753125  
H   -2.4487139   -2.0549881    3.3649027  
H    3.2048689    2.6911772    3.3971983  
