64

C   -6.3840808    2.4186087   -0.9015992  
C   -6.3581808    1.1158784   -1.3428362  
C   -7.5354069    0.4837420   -0.8436950  
C   -8.2472851    1.4585289   -0.0987484  
N   -7.5195590    2.6213393   -0.1526409  
C   -9.4610559    1.1851568    0.5390737  
C   -9.9655288   -0.0955056    0.4225035  
O  -11.1473671   -0.4165029    1.0251930  
C   -9.2697555   -1.0819611   -0.3161588  
O   -9.9014001   -2.3082868   -0.3383615  
C   -8.0721561   -0.8130528   -0.9454203  
H   -7.7817639    3.4904714    0.2761241  
H  -10.0084507    1.9236463    1.1084546  
H  -11.3140955   -1.3460150    0.8215457  
H   -9.3664112   -2.9166135   -0.8573306  
H   -7.5620152   -1.5890750   -1.5040110  
H   -5.6817180    3.2188202   -1.0606818  
C   -3.9676974    0.7295152   -2.0473342  
C   -5.3027969    0.5139977   -2.1703654  
C   -5.4806619   -0.4130398   -3.2629773  
C   -4.1300597   -0.7221785   -3.7700245  
N   -3.2578655    0.0024282   -2.9908505  
C   -3.8704407   -1.5630657   -4.8030835  
C   -4.9963848   -2.2064096   -5.4595095  
O   -4.8663862   -2.9800928   -6.3990919  
C   -6.4355319   -1.8933902   -4.9392395  
O   -7.3913134   -2.4288772   -5.4842132  
C   -6.5888714   -0.9700333   -3.8177449  
H   -2.8721770   -1.7762694   -5.1593470  
H   -7.5886334   -0.7587590   -3.4633958  
H   -3.4426406    1.3584970   -1.3469153  
C    0.0000000    0.0000000    0.0000000  
C    1.0521666   -0.0011982   -0.8862343  
C    0.4917215   -0.0011996   -2.1979132  
C   -0.9187429    0.0003215   -2.0478682  
N   -1.1833171   -0.0009323   -0.7007913  
C   -1.7951703    0.0010483   -3.1372089  
C   -1.2375841    0.0005313   -4.4010422  
O   -2.0474218    0.0015510   -5.4997578  
C    0.1673576   -0.0013585   -4.5711963  
O    0.5673520   -0.0020735   -5.8915554  
C    1.0325768   -0.0023493   -3.4969892  
H    2.0953056   -0.0030808   -0.6200564  
H   -2.0989778    0.0102529   -0.2891822  
H   -1.4634888    0.0006601   -6.2693595  
H    1.5290707   -0.0033271   -5.9180047  
H    2.1042146   -0.0039770   -3.6584456  
C    1.1243417   -0.0099156    2.2619005  
C    0.7474090   -0.0234034    3.5848544  
C   -0.6787367   -0.0234952    3.6114698  
C   -1.1201739   -0.0099357    2.2635546  
N    0.0000000    0.0000000    1.4700000  
C   -2.4730812   -0.0065396    1.9108239  
C   -3.3971947   -0.0173298    2.9375057  
O   -4.7313508   -0.0149487    2.6493466  
C   -2.9763630   -0.0305536    4.2886322  
O   -4.0166453   -0.0397858    5.1947621  
C   -1.6418541   -0.0336380    4.6373480  
H    1.4178735   -0.0310004    4.4271209  
H   -2.8160170    0.0039190    0.8854031  
H   -5.1938803   -0.0234410    3.4974381  
H   -3.6464643   -0.0484781    6.0827341  
H   -1.3497443   -0.0436789    5.6809233  
H    2.1062470   -0.0051382    1.8205408  
