64

C    7.0104647   -0.7215398   -5.8136786  
C    8.3619154   -0.4738033   -5.8820549  
C    8.5647010    0.4333704   -6.9639582  
C    7.2899060    0.7061785   -7.5228845  
N    6.3687792   -0.0125562   -6.8020763  
C    7.1094497    1.5647729   -8.6114801  
C    8.2363885    2.1590266   -9.1453791  
O    8.1172615    3.0063579  -10.2087952  
C    9.5169382    1.8990605   -8.6018479  
O   10.5393902    2.5662276   -9.2443605  
C    9.6957382    1.0519360   -7.5280988  
H    9.1097346   -0.8959637   -5.2327946  
H    6.1405496    1.7767249   -9.0421888  
H    9.0109769    3.3055600  -10.4209650  
H   11.3693933    2.3358345   -8.8158531  
H   10.6888954    0.8719580   -7.1334780  
H    6.4536570   -1.3489910   -5.1389718  
C    2.8699641   -0.0020527   -4.0185824  
C    4.1418711   -0.0047199   -4.5427127  
C    4.0070340   -0.0066609   -5.9627180  
C    2.6177782   -0.0047543   -6.2488845  
N    1.9559320   -0.0039232   -5.0461476  
C    2.1142961   -0.0055928   -7.5532209  
C    3.0299402   -0.0081002   -8.5875165  
O    2.5927437   -0.0086675   -9.8805249  
C    4.4200523   -0.0104052   -8.3221857  
O    5.2027708   -0.0131798   -9.4582705  
C    4.9174612   -0.0098529   -7.0356748  
H    5.0545875   -0.0063119   -3.9718018  
H    0.9584585    0.0079917   -4.9326308  
H    1.0566197   -0.0042943   -7.7779891  
H    3.3831284   -0.0107971  -10.4359999  
H    6.1269502   -0.0145805   -9.1908868  
C    3.2573673   -0.0002921   -1.5109381  
C    2.5379469   -0.0001710   -0.3591962  
C    1.1435042    0.0000332   -0.7338498  
C    1.1092607   -0.0000083   -2.2088474  
N    2.4227562    0.0001908   -2.6182610  
C   -0.0265532   -0.0002523   -2.9515663  
C   -1.3003033   -0.0002639   -2.2514979  
O   -2.3786784   -0.0004132   -2.8306425  
C   -1.2877726    0.0000312   -0.6895609  
O   -2.3539956    0.0003308   -0.0892035  
C    0.0000000    0.0000000    0.0000000  
H    2.9384091   -0.0000368    0.6389240  
H   -0.0296292   -0.0004086   -4.0327231  
H    4.3270395   -0.0004765   -1.6439444  
C    2.5311839    2.1237619    3.0120429  
C    1.9795631    1.6616747    1.8395852  
C    0.9223175    0.7739173    2.1983588  
C    0.8753926    0.7337535    3.6154372  
N    1.8668922    1.5631002    4.0777464  
C   -0.0496243   -0.0427881    4.3197917  
C   -0.9437528   -0.7922060    3.5801400  
O   -1.8685244   -1.5680278    4.2172520  
C   -0.9124520   -0.7656372    2.1655264  
O   -1.8671164   -1.5663939    1.5732860  
C    0.0000000    0.0000000    1.4700000  
H    2.3005065    1.9304404    0.8477417  
H    2.0679347    1.7444845    5.0445261  
H   -0.0904770   -0.0778569    5.3997470  
H   -2.3849669   -2.0011402    3.5251786  
H   -1.7775064   -1.4909735    0.6183591  
H    3.3468514    2.8078103    3.1724291  
