64

C   -0.1143039   -2.6019166   -9.7628143  
C    0.0060807   -2.0380713  -11.0118351  
C   -0.2897669   -0.6497019  -10.8721771  
C   -0.5857127   -0.4228205   -9.5036498  
N   -0.4718281   -1.6293027   -8.8586315  
C   -0.9230346    0.8377674   -9.0017320  
C   -0.9620200    1.8885174   -9.8976010  
O   -1.2853147    3.1406316   -9.4609035  
C   -0.6702763    1.6820493  -11.2669355  
O   -0.7521794    2.8274698  -12.0315571  
C   -0.3376883    0.4386697  -11.7628368  
H    0.2730863   -2.5630878  -11.9129779  
H   -0.6133956   -1.7775804   -7.8758023  
H   -1.2547086    3.7164912  -10.2359608  
H   -0.5407711    2.6009094  -12.9423693  
H   -0.1194401    0.3111326  -12.8166773  
H    0.0251768   -3.6211825   -9.4456392  
C    0.8795090   -0.7144666   -5.2160929  
C    0.5956261   -0.4617039   -6.5382079  
C   -0.4970339    0.4548920   -6.5615830  
C   -0.8401209    0.7280013   -5.2126464  
N    0.0139741    0.0003876   -4.4216236  
C   -1.8778313    1.5948029   -4.8568371  
C   -2.5818286    2.1971054   -5.8814335  
O   -3.6047039    3.0526435   -5.5902400  
C   -2.2547536    1.9369819   -7.2335336  
O   -3.0484118    2.6127296   -8.1373118  
C   -1.2313278    1.0817645   -7.5852857  
H    1.1117892   -0.8866401   -7.3820076  
H   -2.1443759    1.8070321   -3.8306233  
H   -3.9560269    3.3565200   -6.4372913  
H   -2.7617374    2.3816187   -9.0261362  
H    1.6299825   -1.3492180   -4.7769582  
C    3.2798085    0.0005853   -1.4499648  
C    2.5571144    0.0005562   -2.5996554  
C    1.1637436    0.0001546   -2.2210360  
C    1.1336965   -0.0000201   -0.7459470  
N    2.4483513   -0.0001430   -0.3402717  
C    0.0000000    0.0000000    0.0000000  
C   -1.2757367   -0.0000188   -0.6964414  
O   -2.3524597   -0.0000640   -0.1142313  
C   -1.2676494   -0.0000875   -2.2584081  
O   -2.3355762   -0.0004102   -2.8557294  
C    0.0181562    0.0001757   -2.9516296  
H    2.9547357    0.0006072   -3.5989105  
H    4.3498550    0.0008609   -1.3200021  
H    2.7563627    0.0012824    0.6148063  
C    2.5285572    2.1210227    2.9438989  
C    1.9331703    1.6216660    4.0790748  
C    0.8903039    0.7472258    3.6520102  
C    0.8972198    0.7527806    2.2336141  
N    1.9028376    1.5986179    1.8362361  
C    0.0000000    0.0000000    1.4700000  
C   -0.9207814   -0.7726952    2.1506477  
O   -1.8198395   -1.5274828    1.4542253  
C   -0.9436862   -0.7911793    3.5655508  
O   -1.9197945   -1.6098497    4.0950179  
C   -0.0590329   -0.0485852    4.3195194  
H    2.2150357    1.8593692    5.0905303  
H    2.1533708    1.7953814    0.8841339  
H   -2.3621246   -1.9821033    2.1118817  
H   -1.8668290   -1.5649508    5.0545920  
H   -0.1007624   -0.0827977    5.4019087  
H    3.3491200    2.8096064    2.8367138  
