62

C    0.8940473    0.0762182   -7.5881703  
C   -0.4120607    0.0739700   -7.1562632  
C   -1.2356979    0.0859486   -8.3207708  
C   -0.3689448    0.0949489   -9.4435276  
N    0.9170760    0.0906774   -8.9631646  
C   -0.8376550    0.1074835  -10.7606998  
C   -2.2062815    0.1106894  -10.9478673  
O   -2.7178641    0.1224474  -12.2132364  
C   -3.0872688    0.1022163   -9.8403445  
O   -4.4214782    0.1072128  -10.1913497  
C   -2.6255763    0.0901225   -8.5406450  
H   -0.7318412    0.0659268   -6.1283188  
H    1.7473871    0.0845368   -9.5275472  
H   -0.1822743    0.1145330  -11.6207164  
H   -3.6793173    0.1230046  -12.1190443  
H   -4.9478561    0.1008612   -9.3860613  
H   -3.3245367    0.0840261   -7.7124568  
C    1.6628972    0.0337774   -3.2649299  
C    3.0207996    0.0330342   -3.2781829  
C    3.4282942    0.0460113   -4.6633239  
C    2.1875896    0.0544653   -5.4616794  
N    1.1532909    0.0460571   -4.5544611  
C    2.1461588    0.0678604   -6.8180748  
C    3.4077365    0.0741605   -7.5398215  
O    3.4759236    0.0861002   -8.7619128  
C    4.7339460    0.0651459   -6.7146592  
O    5.8022220    0.0700312   -7.3113351  
C    4.6507759    0.0511084   -5.2563252  
H    3.6636260    0.0242003   -2.4160288  
H    5.5736127    0.0451398   -4.6923568  
H    0.1784102    0.0504307   -4.7924430  
C    1.1243417    0.0099160   -0.7919004  
C    0.7474091    0.0234036   -2.1148543  
C   -0.6787366    0.0234950   -2.1414699  
C   -1.1201739    0.0099353   -0.7935547  
N    0.0000000    0.0000000    0.0000000  
C   -2.4730814    0.0065387   -0.4408241  
C   -3.3971947    0.0173286   -1.4675058  
O   -4.7313509    0.0149470   -1.1793468  
C   -2.9763629    0.0305525   -2.8186324  
O   -4.0166449    0.0397843   -3.7247623  
C   -1.6418539    0.0336374   -3.1673480  
H   -2.8160170   -0.0039200    0.5845965  
H   -5.1938800    0.0234391   -2.0274383  
H   -3.6464639    0.0484767   -4.6127342  
H   -1.3497441    0.0436783   -4.2109235  
H    2.1062470    0.0051389   -0.3505406  
C    2.5128556    2.1077716    2.9199648  
C    1.9592212    1.6432552    4.0696553  
C    0.8915788    0.7479214    3.6910360  
C    0.8684491    0.7287414    2.2159470  
N    1.8754542    1.5738793    1.8102719  
C    0.0000000    0.0000000    1.4700000  
C   -0.9772830   -0.8200135    2.1664417  
O   -1.8021297   -1.5120829    1.5842315  
C   -0.9711318   -0.8147624    3.7284083  
O   -1.7894187   -1.5009653    4.3257297  
C    0.0140216    0.0115358    4.4216297  
H    2.2638494    1.8988021    5.0689105  
H    0.0117648    0.0094386    5.5031631  
H    3.3327358    2.7953732    2.7900019  
H    2.1123206    1.7707734    0.8551938  
