64

C    3.8878169   -0.7221146   -4.5427241  
C    3.9719333   -0.4862744   -5.8954145  
C    2.9171610    0.4147690   -6.2273419  
C    2.2168608    0.6962708   -5.0263992  
N    2.8310663   -0.0116218   -4.0232754  
C    1.1122532    1.5520024   -4.9778755  
C    0.7074027    2.1344025   -6.1632375  
O   -0.3652176    2.9784457   -6.1726996  
C    1.3930192    1.8656308   -7.3717529  
O    0.8682187    2.5214018   -8.4662355  
C    2.4826536    1.0213232   -7.4204131  
H    0.5741178    1.7705382   -4.0658149  
H   -0.4758803    3.2691040   -7.0873238  
H    1.3885183    2.2856105   -9.2403767  
H    2.9875785    0.8344065   -8.3609397  
H    4.4971333   -1.3420427   -3.9076012  
C    3.3041273    0.0001179   -1.5420438  
C    2.5845372   -0.0004778   -0.3695858  
C    1.2040009   -0.0000008   -0.7283598  
C    1.1422372    0.0006037   -2.1454375  
N    2.4348637    0.0026111   -2.6077468  
C   -0.0655182    0.0008797   -2.8497921  
C   -1.2321770    0.0002322   -2.1101399  
O   -2.4392816    0.0001144   -2.7472523  
C   -1.1911211   -0.0000008   -0.6955263  
O   -2.4371524   -0.0002326   -0.1032861  
C    0.0000000    0.0000000    0.0000000  
H    3.0031535   -0.0000658    0.6222573  
H   -0.1193551    0.0014842   -3.9297475  
H   -3.1132989   -0.0000654   -2.0551787  
H   -2.3200281   -0.0004077    0.8516411  
H    4.3686625    0.0004074   -1.7024298  
C    5.7193126   -4.5414311   -6.1428991  
C    6.5491700   -4.3100519   -7.2154041  
C    6.3626754   -2.9492565   -7.6001839  
C    5.3991326   -2.3957647   -6.7186183  
N    5.0279759   -3.3898276   -5.8475850  
C    4.9699744   -1.0678985   -6.8045495  
C    5.5238171   -0.2844237   -7.7983318  
O    5.1407439    1.0193185   -7.9268823  
C    6.4862845   -0.8186309   -8.6877685  
O    6.9427196    0.0875677   -9.6225491  
C    6.9099268   -2.1285904   -8.6037510  
H    7.2070978   -5.0334257   -7.6657978  
H    4.3647985   -3.2891241   -5.1005665  
H    5.6409988    1.3787846   -8.6710558  
H    7.5886614   -0.3530084  -10.1831337  
H    7.6484702   -2.5097639   -9.2992637  
H    5.5648062   -5.4372095   -5.5661255  
C    2.5128556    2.1077716    2.9199648  
C    1.9592212    1.6432552    4.0696553  
C    0.8915788    0.7479214    3.6910360  
C    0.8684491    0.7287414    2.2159470  
N    1.8754542    1.5738793    1.8102719  
C    0.0000000    0.0000000    1.4700000  
C   -0.9772830   -0.8200135    2.1664417  
O   -1.8021297   -1.5120829    1.5842315  
C   -0.9711318   -0.8147624    3.7284083  
O   -1.7894187   -1.5009653    4.3257297  
C    0.0140216    0.0115358    4.4216297  
H    2.2638494    1.8988021    5.0689105  
H    0.0117648    0.0094386    5.5031631  
H    3.3327358    2.7953732    2.7900019  
H    2.1123206    1.7707734    0.8551938  
