62

C    6.6052549   -0.0018576   -6.6469910  
C    7.3360208   -0.0008650   -5.4814665  
C    8.7130646   -0.0010696   -5.8534224  
C    8.7612771   -0.0019245   -7.2710262  
N    7.4642908   -0.0043366   -7.7209558  
C    9.9622443   -0.0020353   -7.9868944  
C   11.1359211   -0.0009621   -7.2584307  
O   12.3368788   -0.0006666   -7.9070536  
C   11.1083901   -0.0004738   -5.8434888  
O   12.3600273    0.0001752   -5.2631889  
C    9.9239734   -0.0006374   -5.1366070  
H    6.9269062   -0.0011941   -4.4856664  
H    7.1844596    0.0051363   -8.6851066  
H   10.0057538   -0.0028291   -9.0673159  
H   13.0174818   -0.0001914   -7.2214553  
H   12.2520378    0.0005005   -4.3071850  
H    9.9343344   -0.0004343   -4.0529231  
C    3.0267439   -0.0008952   -3.9901698  
C    4.3139895   -0.0013044   -4.4079959  
C    4.2367753   -0.0025851   -5.8607644  
C    2.7880412   -0.0029127   -6.1569952  
N    2.0737441   -0.0018451   -5.0643978  
C    2.2868492   -0.0040735   -7.5038031  
C    3.1918049   -0.0044820   -8.5089848  
O    2.8655075   -0.0055567   -9.8126595  
C    4.6604894   -0.0037969   -8.2422894  
O    5.4265665   -0.0043469   -9.2057967  
C    5.1496330   -0.0026518   -6.8520869  
H    5.2057786   -0.0007093   -3.8048480  
H    1.2229762   -0.0044953   -7.6911103  
H    3.7192795   -0.0055649  -10.2819437  
C    3.3003547    0.0005275   -1.4738985  
C    2.5232817    0.0003496   -2.6090745  
C    1.1623204   -0.0001319   -2.1820101  
C    1.1711885    0.0000583   -0.7636140  
N    2.4852303   -0.0014920   -0.3662357  
C    0.0000000    0.0000000    0.0000000  
C   -1.2020382    0.0000520   -0.6806479  
O   -2.3759248    0.0003494    0.0157744  
C   -1.2314653   -0.0005113   -2.0955511  
O   -2.5054389   -0.0008038   -2.6250185  
C   -0.0764511   -0.0007273   -2.8495194  
H    2.8036269    0.0088181    0.5858664  
H   -3.0835637    0.0000348   -0.6418823  
H   -2.4360044   -0.0011528   -3.5845926  
H   -0.1304090   -0.0013422   -3.9319089  
H    4.3715553    0.0004894   -1.3667132  
C    0.8175213    0.6860729    2.3021913  
C    0.0000000    0.0000000    1.4700000  
C   -0.8887526   -0.7456559    2.3478473  
C   -0.4549825   -0.3816753    3.7138435  
N    0.5448156    0.4573574    3.6934124  
C   -1.0945674   -0.9182058    4.8835240  
C   -2.1210866   -1.7789155    4.6970523  
O   -2.8083856   -2.3554314    5.6976972  
C   -2.5824069   -2.1655116    3.3310774  
O   -3.5227682   -2.9541547    3.2362962  
C   -1.9100805   -1.6015804    2.1470656  
H   -0.7567140   -0.6349833    5.8697035  
H   -3.4728268   -2.9124471    5.2533954  
H   -2.2742832   -1.9066565    1.1752040  
H    1.6189533    1.3585343    2.0405121  
