62

C    8.2844966   -0.0323818   -2.1495914  
C    8.5618580   -0.0316082   -3.4970107  
C    9.9820071   -0.0438273   -3.6297734  
C   10.5225672   -0.0520220   -2.3184178  
N    9.4646565   -0.0428168   -1.4435723  
C   11.8979286   -0.0651473   -2.0674205  
C   12.7429874   -0.0703971   -3.1601351  
O   14.0948391   -0.0835161   -2.9721404  
C   12.2227383   -0.0620045   -4.4762227  
O   13.1926195   -0.0683130   -5.4573626  
C   10.8660266   -0.0487819   -4.7245838  
H    7.8305742   -0.0221586   -4.2870278  
H    9.5393150   -0.0561416   -0.4424581  
H   12.3162531   -0.0713004   -1.0703403  
H   14.4929168   -0.0847992   -3.8523662  
H   12.7573652   -0.0619795   -6.3153356  
H   10.4970388   -0.0424148   -5.7435465  
C    5.7554371   -0.0090726   -2.0505794  
C    6.9923858   -0.0221245   -1.4487028  
C    6.7698801   -0.0219076   -0.0397701  
C    5.3656336   -0.0086177    0.1598293  
N    4.7795901    0.0008674   -1.0815733  
C    4.7823669   -0.0050306    1.4304891  
C    5.6321572   -0.0153490    2.5194921  
O    5.1157427   -0.0127634    3.7829492  
C    7.0359729   -0.0282980    2.3407424  
O    7.7467988   -0.0370662    3.5231100  
C    7.6120770   -0.0315705    1.0874990  
H    3.7128513    0.0052244    1.5893384  
H    5.8701774   -0.0209296    4.3862957  
H    8.6857229   -0.0455976    3.3134621  
H    8.6906056   -0.0413922    0.9818624  
H    5.4920795   -0.0046217   -3.0944096  
C    3.3321168    0.0004716   -1.3379341  
C    2.6974177    0.0000118   -2.5332316  
C    1.2800432   -0.0002116   -2.2052842  
C    1.2395033    0.0000644   -0.7271298  
N    2.4394059    0.0005460   -0.2131041  
C    0.0000000    0.0000000    0.0000000  
C   -1.1468704    0.0000635   -0.7169542  
O   -2.3742206    0.0000074   -0.1695488  
C   -1.1388774    0.0001608   -2.2096352  
O   -2.2206238    0.0000906   -2.7970409  
C    0.1454514    0.0001818   -2.9324241  
H    3.1367978   -0.0000649   -3.5160956  
H   -2.9844350    0.0001027   -0.9290164  
H    0.1083567    0.0003684   -4.0135594  
C    2.5128556    2.1077716    2.9199648  
C    1.9592212    1.6432552    4.0696553  
C    0.8915788    0.7479214    3.6910360  
C    0.8684491    0.7287414    2.2159470  
N    1.8754542    1.5738793    1.8102719  
C    0.0000000    0.0000000    1.4700000  
C   -0.9772830   -0.8200135    2.1664417  
O   -1.8021297   -1.5120829    1.5842315  
C   -0.9711318   -0.8147624    3.7284083  
O   -1.7894187   -1.5009653    4.3257297  
C    0.0140216    0.0115358    4.4216297  
H    2.2638494    1.8988021    5.0689105  
H    0.0117648    0.0094386    5.5031631  
H    3.3327358    2.7953732    2.7900019  
H    2.1123206    1.7707734    0.8551938  
