60

C    4.8925863   -2.1164904    0.2783722  
C    5.8985251   -1.6170767    1.0728157  
C    6.6774082   -0.7429502    0.2580503  
C    6.0937899   -0.7487459   -1.0347306  
N    5.0133783   -1.5944195   -0.9881979  
C    6.6026400    0.0036971   -2.0975992  
C    7.7208429    0.7762964   -1.8508391  
O    8.2587195    1.5307572   -2.8530820  
C    8.3176460    0.7950169   -0.5677593  
O    9.4248604    1.6135526   -0.4816218  
C    7.8163500    0.0527558    0.4811813  
H    6.0527007   -1.8545423    2.1114853  
H    4.3969929   -1.7912877   -1.7558520  
H    9.0217926    1.9853655   -2.4731916  
H    9.7670294    1.5688300    0.4164446  
H    8.2950148    0.0871439    1.4528679  
H    4.0993432   -2.8049029    0.5146158  
C    2.4521485    0.0014838   -3.7217479  
C    3.4891875    0.0014494   -2.8521908  
C    4.6797442    0.0022549   -3.6882971  
C    4.1623485    0.0025989   -5.0735352  
N    2.8572360    0.0022303   -5.0994557  
C    5.0381743    0.0034457   -6.2128403  
C    6.3703216    0.0043162   -5.9789259  
O    7.3023603    0.0051581   -6.9470914  
C    6.9233383    0.0043685   -4.5924430  
O    8.1464880    0.0050615   -4.4541498  
C    6.0043357    0.0034459   -3.4403323  
H    3.4509653    0.0010306   -1.7762658  
H    4.6326017    0.0034742   -7.2140498  
H    8.1530742    0.0056723   -6.4722873  
C    0.0000000    0.0000000    0.0000000  
C    1.0662924   -0.0000102   -0.8334267  
C    0.4961874    0.0000064   -2.1718888  
C   -0.9663853   -0.0000849   -1.9540250  
N   -1.2632772   -0.0000084   -0.6828660  
C   -1.8985357   -0.0000515   -3.0477261  
C   -1.3925767    0.0004566   -4.3020548  
O   -2.1456375    0.0005411   -5.4151316  
C    0.0786242    0.0009324   -4.5545000  
O    0.4683770    0.0012590   -5.7221099  
C    1.0143173    0.0008443   -3.4159029  
H    2.1107200    0.0000632   -0.5721862  
H   -2.9622180   -0.0003269   -2.8593382  
H   -1.5042262    0.0009694   -6.1484423  
C    3.2798086   -0.0005857    2.9199648  
C    2.5571146   -0.0005566    4.0696553  
C    1.1637436   -0.0001548    3.6910360  
C    1.1336965    0.0000200    2.2159470  
N    2.4483514    0.0001428    1.8102719  
C    0.0000000    0.0000000    1.4700000  
C   -1.2757367    0.0000186    2.1664417  
O   -2.3524596    0.0000640    1.5842315  
C   -1.2676493    0.0000873    3.7284083  
O   -2.3355761    0.0004100    4.3257297  
C    0.0181563   -0.0001760    4.4216297  
H    2.9547357   -0.0006076    5.0689105  
H    0.0150794   -0.0003319    5.5031631  
H    4.3498549   -0.0008612    2.7900019  
H    2.7563627   -0.0012824    0.8551938  
