62

C    9.9183376   -0.7215697   -1.6666204  
C    8.9823671   -0.0028154   -2.3735986  
C    9.6874938    0.7247221   -3.3776333  
C   11.0623712    0.4071374   -3.2334841  
N   11.1677455   -0.4719349   -2.1843199  
C   12.0536163    0.9458008   -4.0593554  
C   11.6495364    1.8207719   -5.0489631  
O   12.5760973    2.3755744   -5.8836442  
C   10.2824803    2.1502779   -5.2083345  
O   10.0405407    3.0356509   -6.2383461  
C    9.3040800    1.6194615   -4.3937829  
H   12.0228088   -0.8814319   -1.8539278  
H   13.1031951    0.7078841   -3.9545680  
H   12.0888325    2.9474723   -6.4909083  
H    9.0943296    3.2051594   -6.2777654  
H    8.2650275    1.8906450   -4.5397470  
H    9.7937059   -1.3914322   -0.8331279  
C    6.5860086   -0.0008870    1.4009371  
C    7.6166242   -0.0011133    0.4897298  
C    7.0248897   -0.0012666   -0.8081341  
C    5.6184276   -0.0008354   -0.6243131  
N    5.3862298   -0.0025641    0.7287198  
C    4.7161325   -0.0005435   -1.6923264  
C    5.2432551   -0.0003826   -2.9691658  
O    4.4073062    0.0002541   -4.0481477  
C    6.6437146   -0.0011824   -3.1729577  
O    7.0119354   -0.0013266   -4.5025278  
C    7.5344416   -0.0017439   -2.1198051  
H    8.6658466   -0.0022671    0.7308191  
H    4.4806937    0.0078493    1.1621677  
H    4.9726182   -0.0000405   -4.8315292  
H    7.9727445   -0.0018528   -4.5520293  
H    6.6118216   -0.0011075    2.4771775  
C    3.2573665   -0.0002920   -1.5109385  
C    2.5379463   -0.0001709   -0.3591964  
C    1.1435038    0.0000331   -0.7338500  
C    1.1092599   -0.0000083   -2.2088477  
N    2.4227553    0.0001909   -2.6182613  
C   -0.0265539   -0.0002524   -2.9515660  
C   -1.3003040   -0.0002640   -2.2514977  
O   -2.3786790   -0.0004133   -2.8306421  
C   -1.2877727    0.0000311   -0.6895603  
O   -2.3539959    0.0003306   -0.0892030  
C    0.0000000    0.0000000    0.0000000  
H    2.9384091   -0.0000367    0.6389234  
H   -0.0296303   -0.0004086   -4.0327229  
H    2.7280482   -0.0013407   -3.5742119  
C    2.5128556    2.1077716    2.9199648  
C    1.9592212    1.6432552    4.0696553  
C    0.8915788    0.7479214    3.6910360  
C    0.8684491    0.7287414    2.2159470  
N    1.8754542    1.5738793    1.8102719  
C    0.0000000    0.0000000    1.4700000  
C   -0.9772830   -0.8200135    2.1664417  
O   -1.8021297   -1.5120829    1.5842315  
C   -0.9711318   -0.8147624    3.7284083  
O   -1.7894187   -1.5009653    4.3257297  
C    0.0140216    0.0115358    4.4216297  
H    2.2638494    1.8988021    5.0689105  
H    0.0117648    0.0094386    5.5031631  
H    3.3327358    2.7953732    2.7900019  
H    2.1123206    1.7707734    0.8551938  
