62

C    6.0886848   -0.0012752    3.8289617  
C    6.9774641   -0.0022609    2.7789435  
C    8.2877822   -0.0021711    3.3425625  
C    8.1343224   -0.0013901    4.7526601  
N    6.7866102    0.0010904    5.0139692  
C    9.2215379   -0.0013989    5.6317224  
C   10.4867184   -0.0025181    5.0771982  
O   11.5834678   -0.0029298    5.8896945  
C   10.6602730   -0.0029340    3.6726717  
O   11.9815961   -0.0036416    3.2758751  
C    9.5881641   -0.0026523    2.8048532  
H    6.3727794   -0.0084110    5.9286464  
H    9.1112750   -0.0006620    6.7073821  
H   12.3544814   -0.0034185    5.3076274  
H   12.0103735   -0.0039118    2.3142228  
H    9.7522146   -0.0028022    1.7336087  
H    5.0121386   -0.0006264    3.8263547  
C    6.6174608   -0.0017048    1.3537072  
C    5.3857487   -0.0012517    0.7819021  
C    5.5854748   -0.0008504   -0.6481134  
C    7.0449747   -0.0011378   -0.8641002  
N    7.6133360   -0.0012549    0.3888384  
C    7.6418658   -0.0012960   -2.0828803  
C    6.7899754   -0.0009490   -3.2605127  
O    7.2316300   -0.0009952   -4.4021091  
C    5.2415210   -0.0003890   -3.0553446  
O    4.5141870    0.0002132   -4.0393394  
C    4.7161325   -0.0005435   -1.6923264  
H    4.4446715   -0.0010218    1.3024657  
H    8.7143806   -0.0016366   -2.2193405  
H    8.5996515   -0.0030073    0.5738403  
C    3.2573665   -0.0002920   -1.5109385  
C    2.5379463   -0.0001709   -0.3591964  
C    1.1435038    0.0000331   -0.7338500  
C    1.1092599   -0.0000083   -2.2088477  
N    2.4227553    0.0001909   -2.6182613  
C   -0.0265539   -0.0002524   -2.9515660  
C   -1.3003040   -0.0002640   -2.2514977  
O   -2.3786790   -0.0004133   -2.8306421  
C   -1.2877727    0.0000311   -0.6895603  
O   -2.3539959    0.0003306   -0.0892030  
C    0.0000000    0.0000000    0.0000000  
H    2.9384091   -0.0000367    0.6389234  
H   -0.0296303   -0.0004086   -4.0327229  
H    2.7280482   -0.0013407   -3.5742119  
C    2.5311839    2.1237619    3.0120429  
C    1.9795631    1.6616747    1.8395852  
C    0.9223175    0.7739173    2.1983588  
C    0.8753926    0.7337535    3.6154372  
N    1.8668922    1.5631002    4.0777464  
C   -0.0496243   -0.0427881    4.3197917  
C   -0.9437528   -0.7922060    3.5801400  
O   -1.8685244   -1.5680278    4.2172520  
C   -0.9124520   -0.7656372    2.1655264  
O   -1.8671164   -1.5663939    1.5732860  
C    0.0000000    0.0000000    1.4700000  
H    2.3005065    1.9304404    0.8477417  
H    2.0679347    1.7444845    5.0445261  
H   -0.0904770   -0.0778569    5.3997470  
H   -2.3849669   -2.0011402    3.5251786  
H   -1.7775064   -1.4909735    0.6183591  
H    3.3468514    2.8078103    3.1724291  
