64

C    6.8375781   -3.0723533   -3.7494031  
C    7.9003194   -3.7508196   -4.2996142  
C    8.4924649   -4.5169146   -3.2522071  
C    7.7416377   -4.2637274   -2.0757378  
N    6.7455996   -3.3810076   -2.4123836  
C    8.0428427   -4.8540568   -0.8446496  
C    9.1214697   -5.7159073   -0.8004628  
O    9.4593883   -6.3199175    0.3759713  
C    9.8830178   -5.9809045   -1.9634924  
O   10.9255509   -6.8605310   -1.7567887  
C    9.5866110   -5.3986757   -3.1782681  
H    8.2112584   -3.6989942   -5.3289945  
H    6.0480611   -3.0257656   -1.7837148  
H    7.4746002   -4.6651086    0.0556848  
H   10.2296203   -6.8719249    0.1881043  
H   11.3883892   -6.9850289   -2.5909854  
H   10.1881615   -5.6206897   -4.0519529  
C    5.8833907   -2.1427750   -4.3709425  
C    5.8356977   -1.7363030   -5.6609364  
C    4.7031562   -0.8254383   -5.7255541  
C    4.1678915   -0.7979256   -4.3473967  
N    4.8557055   -1.5681390   -3.5488531  
C    3.0267438   -0.0008951   -3.9901699  
C    2.4469276    0.7354874   -4.9653053  
O    1.3760856    1.5245628   -4.7737363  
C    2.9639691    0.7291619   -6.3655869  
O    2.3865728    1.4237052   -7.2019144  
C    4.1358648   -0.0967014   -6.7069582  
H    6.4884966   -2.0195253   -6.4688448  
H    1.1970815    1.9160964   -5.6476995  
H    4.4795595   -0.0736381   -7.7324194  
C    3.3003547    0.0005277   -1.4738986  
C    2.5232816    0.0003497   -2.6090746  
C    1.1623203   -0.0001319   -2.1820102  
C    1.1711884    0.0000584   -0.7636141  
N    2.4852301   -0.0014919   -0.3662359  
C    0.0000000    0.0000000    0.0000000  
C   -1.2020383    0.0000520   -0.6806479  
O   -2.3759248    0.0003493    0.0157745  
C   -1.2314655   -0.0005115   -2.0955511  
O   -2.5054388   -0.0008040   -2.6250184  
C   -0.0764513   -0.0007274   -2.8495195  
H    2.8036266    0.0088183    0.5858662  
H   -3.0835639    0.0000346   -0.6418822  
H   -2.4360043   -0.0011529   -3.5845924  
H   -0.1304091   -0.0013423   -3.9319089  
H    4.3715553    0.0004897   -1.3667133  
C    2.5285572    2.1210227    2.9438989  
C    1.9331703    1.6216660    4.0790748  
C    0.8903039    0.7472258    3.6520102  
C    0.8972198    0.7527806    2.2336141  
N    1.9028376    1.5986179    1.8362361  
C    0.0000000    0.0000000    1.4700000  
C   -0.9207814   -0.7726952    2.1506477  
O   -1.8198395   -1.5274828    1.4542253  
C   -0.9436862   -0.7911793    3.5655508  
O   -1.9197945   -1.6098497    4.0950179  
C   -0.0590329   -0.0485852    4.3195194  
H    2.2150357    1.8593692    5.0905303  
H    2.1533708    1.7953814    0.8841339  
H   -2.3621246   -1.9821033    2.1118817  
H   -1.8668290   -1.5649508    5.0545920  
H   -0.1007624   -0.0827977    5.4019087  
H    3.3491200    2.8096064    2.8367138  
