60

C    3.1854957   -2.9361432   -5.1618532  
C    3.5995548   -3.6349334   -4.0515766  
C    4.7501197   -4.3848791   -4.4367806  
C    4.9930993   -4.1009083   -5.8050816  
N    4.0236664   -3.2194345   -6.2147378  
C    6.0532191   -4.6682651   -6.5185534  
C    6.8833496   -5.5378984   -5.8382621  
O    7.9339735   -6.1198227   -6.4867752  
C    6.6570149   -5.8340584   -4.4730233  
O    7.5704298   -6.7183332   -3.9372300  
C    5.6112176   -5.2749241   -3.7686073  
H    3.1294260   -3.6083682   -3.0834514  
H    3.9458080   -2.8296928   -7.1367028  
H    6.2437101   -4.4560348   -7.5615653  
H    8.3772004   -6.6824742   -5.8385180  
H    7.3463024   -6.8644219   -3.0130930  
H    5.4628171   -5.5208807   -2.7236383  
C    2.0552331   -2.0117600   -5.3319182  
C    1.1441930   -1.6301402   -4.4067419  
C    0.2595430   -0.7123102   -5.1078000  
C    0.7977765   -0.6538175   -6.4838332  
N    1.8503505   -1.4135520   -6.6212381  
C    0.1930648    0.1584612   -7.5034472  
C   -0.8998972    0.8792300   -7.1639455  
O   -1.5649246    1.6797247   -8.0142327  
C   -1.4671321    0.8410357   -5.7837477  
O   -2.4638599    1.5229391   -5.5455002  
C   -0.8287665    0.0000939   -4.7555305  
H    1.0803195   -1.9340247   -3.3758927  
H    0.6076492    0.1823324   -8.5006729  
H   -2.2915643    2.0548234   -7.4846588  
C    1.0672569   -0.0000698   -0.8321910  
C    0.0000000    0.0000000    0.0000000  
C   -1.1601223   -0.0000736   -0.8778472  
C   -0.5938729   -0.0000768   -2.2438435  
N    0.7113367   -0.0001553   -2.2234123  
C   -1.4286985   -0.0001877   -3.4135239  
C   -2.7683113   -0.0006798   -3.2270524  
O   -3.6653902   -0.0008302   -4.2276970  
C   -3.3702024   -0.0010610   -1.8610774  
O   -4.5974910   -0.0013779   -1.7662963  
C   -2.4926825   -0.0008943   -0.6770658  
H   -4.5324245   -0.0012258   -3.7833954  
H   -2.9677772   -0.0012974    0.2947961  
H    2.1134391   -0.0000547   -0.5705119  
C    0.8400945    0.7047457    2.2710304  
C    0.0000000    0.0000000    1.4700000  
C   -0.8844236   -0.7423113    2.3369512  
C   -0.4878984   -0.4098547    3.7186280  
N    0.5629682    0.4714286    3.6095011  
C   -1.0836927   -0.9095027    4.8308716  
C   -2.1891196   -1.8367527    4.6554461  
O   -2.7906899   -2.3413415    5.5944904  
C   -2.6257283   -2.2031529    3.2011665  
O   -3.5549479   -2.9829990    3.0410059  
C   -1.9068976   -1.5999348    2.0816745  
H   -0.7774656   -0.6525820    5.8354244  
H   -2.2155208   -1.8586617    1.0779135  
H    1.6384792    1.3747609    1.9961646  
H    1.0518368    0.8833920    4.3830260  
