60

C    2.1383055   -4.5556426   -6.5379194  
C    3.0878360   -4.3443031   -7.5106450  
C    2.9690320   -2.9829910   -7.9196854  
C    1.9215269   -2.4085480   -7.1550449  
N    1.4375770   -3.3911536   -6.3274601  
C    1.5273205   -1.0743991   -7.2944628  
C    2.2030732   -0.3060700   -8.2224741  
O    1.8590588    1.0029499   -8.3989257  
C    3.2507251   -0.8612612   -8.9951365  
O    3.8251140    0.0317176   -9.8760499  
C    3.6399706   -2.1774277   -8.8583182  
H    3.7801330   -5.0810174   -7.8807411  
H    0.6960271   -3.2751422   -5.6606573  
H    2.4462057    1.3497134   -9.0832357  
H    4.5227330   -0.4227098  -10.3581580  
H    4.4458353   -2.5747858   -9.4642604  
H    1.9045012   -5.4452872   -5.9786109  
C    0.2055739   -0.7043961   -5.1603477  
C   -0.8712826    0.0001710   -4.7267111  
C   -1.3726447    0.7423359   -5.8592582  
C   -0.4933186    0.4099880   -6.9964127  
N    0.4429027   -0.4710987   -6.5064483  
C   -0.6357679    0.9095500   -8.2501475  
C   -1.7278971    1.8365864   -8.4958969  
O   -1.9397498    2.3410839   -9.5908402  
C   -2.6713156    2.2028686   -7.3061054  
O   -3.5940525    2.9825347   -7.5008830  
C   -2.4172088    1.5997595   -6.0001417  
H    0.0202134    0.6527119   -9.0702891  
H   -3.0751241    1.8584032   -5.1816215  
H    0.8458871   -1.3742666   -4.6097462  
C    1.0965514    0.0001359   -0.8010305  
C    0.0000000    0.0000000    0.0000000  
C   -1.1546563    0.0001470   -0.8669513  
C   -0.6372014    0.0003519   -2.2486282  
N    0.7342871    0.0007337   -2.1395014  
C   -1.4147739    0.0001352   -3.3608717  
C   -2.8576049   -0.0001048   -3.1854462  
O   -3.6427779   -0.0002494   -4.1244907  
C   -3.4275840   -0.0000725   -1.7311666  
O   -4.6406831    0.0000333   -1.5710060  
C   -2.4891867   -0.0001091   -0.6116744  
H   -2.8919122   -0.0002918    0.3920866  
H    2.1388272    0.0000663   -0.5261648  
H    1.3735872   -0.0006099   -2.9130262  
C    0.0000000    0.0000000    1.4700000  
C    1.0662921    0.0000102    2.3034270  
C    0.4961870   -0.0000064    3.6418889  
C   -0.9663858    0.0000850    3.4240247  
N   -1.2632773    0.0000084    2.1528658  
C   -1.8985362    0.0000517    4.5177257  
C   -1.3925775   -0.0004564    5.7720543  
O   -2.1456383   -0.0005410    6.8851312  
C    0.0786232   -0.0009323    6.0245000  
O    0.4683759   -0.0012588    7.1921102  
C    1.0143166   -0.0008442    4.8859032  
H    2.1107198   -0.0000632    2.0421868  
H   -2.9622183    0.0003270    4.3293377  
H   -1.5042274   -0.0009692    7.6184419  
H    2.0724152   -0.0013148    5.1109744  
