62

C    8.1842024    0.0123735   -2.5142528  
C    8.3878663    0.0154355   -3.8747593  
C    9.7986537    0.0319983   -4.0845310  
C   10.4097231    0.0381937   -2.8044983  
N    9.4009445    0.0279149   -1.8734361  
C   11.7966680    0.0538997   -2.6286402  
C   12.5810342    0.0632200   -3.7656808  
O   13.9410847    0.0782915   -3.6514536  
C   11.9899814    0.0576271   -5.0515430  
O   12.9050420    0.0687291   -6.0839593  
C   10.6217950    0.0424072   -5.2257827  
H    7.6146986    0.0078995   -4.6238572  
H    9.5301479    0.0186477   -0.8778452  
H   12.2685894    0.0588379   -1.6557743  
H   14.2906900    0.0829501   -4.5520203  
H   12.4237750    0.0639749   -6.9170033  
H   10.1979331    0.0386392   -6.2231819  
C    5.6685262    0.0007282   -2.2869310  
C    4.7390840    0.0009613   -1.2727298  
C    5.4635794   -0.0000961   -0.0440292  
C    6.8430309   -0.0006645   -0.3742395  
N    6.9321468   -0.0020931   -1.7441567  
C    7.8522882   -0.0014309    0.5933289  
C    7.4618845   -0.0013201    1.9183810  
O    8.4063109   -0.0016954    2.9038103  
C    6.0904962   -0.0011319    2.2678231  
O    5.8636456   -0.0014649    3.6286620  
C    5.0942998   -0.0006492    1.3138209  
H    8.9054288   -0.0020109    0.3481820  
H    7.9262134   -0.0018375    3.7421240  
H    4.9133160   -0.0012816    3.7785862  
H    4.0523279   -0.0006971    1.6117688  
H    5.5300621    0.0009055   -3.3545388  
C    3.2798077    0.0005856   -1.4499661  
C    2.5571132    0.0005565   -2.5996564  
C    1.1637425    0.0001547   -2.2210366  
C    1.1336959   -0.0000200   -0.7459475  
N    2.4483509   -0.0001429   -0.3402730  
C    0.0000000    0.0000000    0.0000000  
C   -1.2757370   -0.0000187   -0.6964411  
O   -2.3524597   -0.0000640   -0.1142306  
C   -1.2676502   -0.0000874   -2.2584078  
O   -2.3355774   -0.0004102   -2.8557287  
C    0.0181551    0.0001758   -2.9516297  
H    2.9547342    0.0006074   -3.5989118  
H    0.0150776    0.0003317   -4.0331632  
H    2.7563626    0.0012823    0.6148051  
C    0.8400945    0.7047457    2.2710304  
C    0.0000000    0.0000000    1.4700000  
C   -0.8844236   -0.7423113    2.3369512  
C   -0.4878984   -0.4098547    3.7186280  
N    0.5629682    0.4714286    3.6095011  
C   -1.0836927   -0.9095027    4.8308716  
C   -2.1891196   -1.8367527    4.6554461  
O   -2.7906899   -2.3413415    5.5944904  
C   -2.6257283   -2.2031529    3.2011665  
O   -3.5549479   -2.9829990    3.0410059  
C   -1.9068976   -1.5999348    2.0816745  
H   -0.7774656   -0.6525820    5.8354244  
H   -2.2155208   -1.8586617    1.0779135  
H    1.6384792    1.3747609    1.9961646  
H    1.0518368    0.8833920    4.3830260  
