60

C    3.3419165   -3.0774480   -7.8416489  
C    2.8177467   -1.8449276   -7.5276313  
C    3.2962253   -0.9267530   -8.5087595  
C    4.1146247   -1.6627118   -9.4034739  
N    4.1223959   -2.9647255   -8.9683664  
C    4.7551079   -1.0760794  -10.4991156  
C    4.5657316    0.2781097  -10.6952951  
O    5.1675417    0.9014386  -11.7499503  
C    3.7531422    1.0295290   -9.8133185  
O    3.6636665    2.3662560  -10.1427091  
C    3.1212014    0.4515138   -8.7320797  
H    4.6105486   -3.7218429   -9.4116066  
H    5.3802686   -1.6314502  -11.1846371  
H    4.9077693    1.8306937  -11.7023378  
H    3.0973645    2.8011460   -9.4979013  
H    2.5050657    1.0526604   -8.0736901  
H    3.2219545   -4.0277520   -7.3502324  
C    2.0663728   -2.0930016   -5.1167678  
C    1.0931325   -1.6308353   -4.2901601  
C    0.2706809   -0.7345480   -5.0680274  
C    0.8486731   -0.7122923   -6.4253114  
N    1.9347262   -1.5561043   -6.3884398  
C    0.3570941    0.0175291   -7.4584694  
C   -0.8196664    0.8358894   -7.2175211  
O   -1.3377660    1.5288420   -8.0833671  
C   -1.4481802    0.8277638   -5.7875877  
O   -2.4388904    1.5130257   -5.5727154  
C   -0.8287665    0.0000939   -4.7555305  
H    0.9660024   -1.8882582   -3.2537308  
H    0.7960888    0.0195932   -8.4464916  
H    2.8688295   -2.7804818   -4.9038726  
C    1.0672569   -0.0000698   -0.8321910  
C    0.0000000    0.0000000    0.0000000  
C   -1.1601223   -0.0000736   -0.8778472  
C   -0.5938729   -0.0000768   -2.2438435  
N    0.7113367   -0.0001553   -2.2234123  
C   -1.4286985   -0.0001877   -3.4135239  
C   -2.7683113   -0.0006798   -3.2270524  
O   -3.6653902   -0.0008302   -4.2276970  
C   -3.3702024   -0.0010610   -1.8610774  
O   -4.5974910   -0.0013779   -1.7662963  
C   -2.4926825   -0.0008943   -0.6770658  
H   -4.5324245   -0.0012258   -3.7833954  
H   -2.9677772   -0.0012974    0.2947961  
H    2.1134391   -0.0000547   -0.5705119  
C    2.4951002    2.0940188    2.9809380  
C    1.9440701    1.6314916    1.8291961  
C    0.8759964    0.7350050    2.2038498  
C    0.8497377    0.7130254    3.6788474  
N    1.8560616    1.5571714    4.0882609  
C   -0.0205033   -0.0168748    4.4215661  
C   -0.9962600   -0.8356168    3.7214979  
O   -1.8224391   -1.5286685    4.3006425  
C   -0.9864710   -0.8277881    2.1595606  
O   -1.8030528   -1.5133726    1.5592035  
C    0.0000000    0.0000000    1.4700000  
H    2.2509283    1.8888011    0.8310761  
H   -0.0229599   -0.0187323    5.5027230  
H    3.3143982    2.7817323    3.1139444  
H    2.0889452    1.7545833    5.0442112  
