62

C    3.4043863   -0.7238254   -2.9866275  
C    2.4861703   -0.0045376   -3.7159919  
C    3.2157089    0.7222556   -4.7029796  
C    4.5864978    0.4036881   -4.5258407  
N    4.6660327   -0.4752282   -3.4742718  
C    5.5976607    0.9414357   -5.3278175  
C    5.2180751    1.8164846   -6.3270086  
O    6.1647960    2.3704173   -7.1393469  
C    3.8554790    2.1469644   -6.5191806  
O    3.6389645    3.0322865   -7.5548781  
C    2.8574355    1.6170517   -5.7282136  
H    5.5126242   -0.8852828   -3.1233887  
H    6.6442485    0.7027676   -5.1978454  
H    5.6926566    2.9425396   -7.7582368  
H    2.6940964    3.2024847   -7.6170084  
H    1.8223829    1.8889696   -5.8991050  
H    3.2593067   -1.3934100   -2.1562257  
C    0.0000000    0.0000000    0.0000000  
C    1.0521669   -0.0011899   -0.8862338  
C    0.4917222   -0.0011953   -2.1979129  
C   -0.9187426    0.0003152   -2.0478681  
N   -1.1833169   -0.0009409   -0.7007913  
C   -1.7951697    0.0010354   -3.1372090  
C   -1.2375835    0.0005230   -4.4010425  
O   -2.0474206    0.0015366   -5.4997579  
C    0.1673585   -0.0013561   -4.5711965  
O    0.5673529   -0.0020681   -5.8915554  
C    1.0325774   -0.0023407   -3.4969889  
H    2.0953060   -0.0030646   -0.6200560  
H   -2.0989776    0.0102374   -0.2891826  
H   -1.4634880    0.0006503   -6.2693594  
H    1.5290717   -0.0033145   -5.9180047  
C   -4.0038862    0.6892046   -2.0945599  
C   -3.2578649    0.0024042   -2.9908508  
C   -4.2205323   -0.7423826   -3.7877596  
C   -5.5362138   -0.3771552   -3.2201543  
N   -5.4155587    0.4618004   -2.2273878  
C   -6.7642615   -0.9125594   -3.7400850  
C   -6.6817228   -1.7733832   -4.7800391  
O   -7.7463624   -2.3489271   -5.3642748  
C   -5.3688263   -2.1612243   -5.3750544  
O   -5.3688773   -2.9499011   -6.3201523  
C   -4.1232336   -1.5984348   -4.8239731  
H   -7.7116384   -0.6284382   -3.3057329  
H   -7.3709420   -2.9063182   -6.0696310  
H   -3.1927468   -1.9043947   -5.2831171  
H   -3.6630871    1.3613758   -1.3231874  
C    3.2573670    0.0002920    2.9809380  
C    2.5379467    0.0001709    1.8291961  
C    1.1435042   -0.0000331    2.2038498  
C    1.1092607    0.0000083    3.6788474  
N    2.4227561   -0.0001909    4.0882609  
C   -0.0265533    0.0002524    4.4215661  
C   -1.3003036    0.0002640    3.7214979  
O   -2.3786784    0.0004133    4.3006425  
C   -1.2877726   -0.0000311    2.1595606  
O   -2.3539958   -0.0003306    1.5592035  
C    0.0000000    0.0000000    1.4700000  
H    2.9384090    0.0000368    0.8310761  
H   -0.0296291    0.0004086    5.5027230  
H    4.3270393    0.0004765    3.1139444  
H    2.7280493    0.0013407    5.0442112  
