62

C   -6.9750158    1.9480796   -0.1210997  
C   -7.3243147    2.7793404    0.9178727  
C   -8.7454959    2.7312797    1.0298155  
C   -9.2125029    1.8464187    0.0244041  
N   -8.1118316    1.3901173   -0.6574542  
C  -10.5682322    1.5581187   -0.1590847  
C  -11.4689069    2.1740706    0.6880071  
O  -12.8046251    1.9277724    0.5530719  
C  -11.0224064    3.0603283    1.6969679  
O  -12.0413250    3.5938944    2.4588448  
C   -9.6851194    3.3454167    1.8783846  
H   -6.6391701    3.3509849    1.5201955  
H   -8.1311284    0.7384149   -1.4209283  
H  -10.9306080    0.8847472   -0.9235832  
H  -13.2487639    2.4506676    1.2332096  
H  -11.6545664    4.1806334    3.1159283  
H   -9.3730946    4.0285638    2.6596847  
C   -4.4516594    2.1220212   -0.2154633  
C   -5.6505107    1.6231922   -0.6697670  
C   -5.3526002    0.7489276   -1.7567399  
C   -3.9437154    0.7540403   -1.9208883  
N   -3.4276993    1.5994576   -0.9703018  
C   -3.2941076    0.0012878   -2.9038237  
C   -4.0810733   -0.7709246   -3.7360199  
O   -3.4983895   -1.5256626   -4.7126798  
C   -5.4884225   -0.7889631   -3.5881683  
O   -6.1319969   -1.6071811   -4.4935277  
C   -6.1299739   -0.0463962   -2.6188734  
H   -2.4522686    1.7958519   -0.8363405  
H   -4.2167872   -1.9799191   -5.1718316  
H   -7.0781694   -1.5620003   -4.3252416  
H   -7.2095096   -0.0802609   -2.5298041  
H   -4.2460849    2.8103295    0.5863662  
C    0.0000000    0.0000000    0.0000000  
C    1.0541688   -0.0001723   -0.8560392  
C    0.5103136   -0.0000455   -2.1935956  
C   -0.9576373    0.0002461   -2.0455730  
N   -1.2018460   -0.0001389   -0.6915968  
C   -1.8348314    0.0008319   -3.0810607  
C   -1.2972851    0.0009739   -4.4314603  
O   -2.0050676    0.0014268   -5.4301316  
C    0.2542619    0.0004184   -4.6117572  
O    0.7184666    0.0002257   -5.7439122  
C    1.0974551    0.0000873   -3.4189129  
H    2.0940752   -0.0005484   -0.5817983  
H    2.1707276   -0.0000912   -3.5523673  
H   -2.1128194    0.0014915   -0.2706789  
C    0.0000000    0.0000000    1.4700000  
C    1.0541688    0.0001722    2.3260392  
C    0.5103138    0.0000454    3.6635956  
C   -0.9576371   -0.0002459    3.5155732  
N   -1.2018458    0.0001392    2.1615969  
C   -1.8348311   -0.0008317    4.5510609  
C   -1.2972847   -0.0009736    5.9014604  
O   -2.0050672   -0.0014265    6.9001319  
C    0.2542623   -0.0004184    6.0817573  
O    0.7184670   -0.0002256    7.2139121  
C    1.0974552   -0.0000873    4.8889129  
H    2.0940752    0.0005483    2.0517982  
H   -2.9081052   -0.0011668    4.4207061  
H    2.1707277    0.0000911    5.0223670  
H   -2.1128194   -0.0014912    1.7406791  
