62

C   -3.6351213    0.0847386   -8.2669320  
C   -4.6704986    0.0773489   -7.3611686  
C   -5.8821543    0.0854784   -8.1137804  
C   -5.5202021    0.0975374   -9.4851921  
N   -4.1485930    0.0987108   -9.5426668  
C   -6.4642244    0.1076052  -10.5164577  
C   -7.7979326    0.1051533  -10.1567408  
O   -8.7613078    0.1142916  -11.1236116  
C   -8.1789242    0.0935570   -8.7938291  
O   -9.5446351    0.0929668   -8.5984369  
C   -7.2481631    0.0838941   -7.7759312  
H   -4.5653919    0.0684364   -6.2897835  
H   -3.6030461    0.0957164  -10.3854903  
H   -6.1948429    0.1169629  -11.5636196  
H   -9.6104762    0.1109696  -10.6629948  
H   -9.7164483    0.0848098   -7.6518551  
H   -7.5700740    0.0752985   -6.7411477  
C   -1.2456296    0.0472577   -4.5828766  
C    0.0002605    0.0520439   -5.1230708  
C   -0.1629407    0.0660969   -6.5576456  
C   -1.6164595    0.0691564   -6.8107557  
N   -2.2165808    0.0569155   -5.5727758  
C   -2.1820820    0.0818097   -8.0442930  
C   -1.3004434    0.0929473   -9.1997693  
O   -1.7128481    0.1046488  -10.3521949  
C    0.2422766    0.0896871   -8.9552089  
O    0.9944621    0.0986747   -9.9202986  
C    0.7327426    0.0759265   -7.5793069  
H    0.9277601    0.0461944   -4.5787146  
H    1.8022635    0.0739578   -7.4185433  
H   -3.2072924    0.0572149   -5.4129701  
C    1.1243418    0.0099155   -0.7919003  
C    0.7474093    0.0234033   -2.1148542  
C   -0.6787365    0.0234953   -2.1414700  
C   -1.1201738    0.0099357   -0.7935546  
N    0.0000000    0.0000000    0.0000000  
C   -2.4730811    0.0065398   -0.4408241  
C   -3.3971945    0.0173300   -1.4675058  
O   -4.7313507    0.0149490   -1.1793472  
C   -2.9763626    0.0305537   -2.8186325  
O   -4.0166449    0.0397860   -3.7247623  
C   -1.6418538    0.0336381   -3.1673481  
H    1.4178738    0.0310004   -2.9571209  
H   -2.8160170   -0.0039189    0.5845965  
H   -5.1938800    0.0234412   -2.0274384  
H   -3.6464643    0.0484782   -4.6127344  
H    2.1062469    0.0051381   -0.3505407  
C    2.5128556    2.1077716    2.9199648  
C    1.9592212    1.6432552    4.0696553  
C    0.8915788    0.7479214    3.6910360  
C    0.8684491    0.7287414    2.2159470  
N    1.8754542    1.5738793    1.8102719  
C    0.0000000    0.0000000    1.4700000  
C   -0.9772830   -0.8200135    2.1664417  
O   -1.8021297   -1.5120829    1.5842315  
C   -0.9711318   -0.8147624    3.7284083  
O   -1.7894187   -1.5009653    4.3257297  
C    0.0140216    0.0115358    4.4216297  
H    2.2638494    1.8988021    5.0689105  
H    0.0117648    0.0094386    5.5031631  
H    3.3327358    2.7953732    2.7900019  
H    2.1123206    1.7707734    0.8551938  
