62

C    9.8287679    2.1217353   -6.6949958  
C   11.0785014    1.6232483   -6.4083869  
C   10.9319437    0.7495667   -5.2904417  
C    9.5586718    0.7546663   -4.9354434  
N    8.9175551    1.5995157   -5.8071182  
C    9.0494870    0.0024126   -3.8726011  
C    9.9428371   -0.7692777   -3.1552469  
O    9.4990919   -1.5235152   -2.1077591  
C   11.3168152   -0.7872938   -3.4938842  
O   12.0781153   -1.6049594   -2.6844467  
C   11.8198839   -0.0452190   -4.5421086  
H   11.9845196    1.8610306   -6.9390320  
H    7.9329395    1.7957626   -5.8067309  
H   10.2735272   -1.9774626   -1.7507632  
H   12.9924374   -1.5598020   -2.9803855  
H   12.8771487   -0.0790528   -4.7777409  
H    9.5155227    2.8095813   -7.4616134  
C    6.5739141    0.0018721   -4.3537910  
C    7.6280828    0.0019468   -3.4977523  
C    7.0842285    0.0017734   -2.1601955  
C    5.6162780    0.0015609   -2.3082178  
N    5.3720684    0.0020314   -3.6621941  
C    4.7390840    0.0009613   -1.2727298  
C    5.2766310    0.0007199    0.0776697  
O    4.5688485    0.0002467    1.0763412  
C    6.8281783    0.0011904    0.2579660  
O    7.2923831    0.0012992    1.3901206  
C    7.6713704    0.0015458   -0.9348786  
H    8.7446430    0.0016650   -0.8014249  
H    6.5739141    0.0019306   -5.4317008  
H    4.4610948    0.0004680   -4.0831113  
C    3.2798077    0.0005856   -1.4499661  
C    2.5571132    0.0005565   -2.5996564  
C    1.1637425    0.0001547   -2.2210366  
C    1.1336959   -0.0000200   -0.7459475  
N    2.4483509   -0.0001429   -0.3402730  
C    0.0000000    0.0000000    0.0000000  
C   -1.2757370   -0.0000187   -0.6964411  
O   -2.3524597   -0.0000640   -0.1142306  
C   -1.2676502   -0.0000874   -2.2584078  
O   -2.3355774   -0.0004102   -2.8557287  
C    0.0181551    0.0001758   -2.9516297  
H    2.9547342    0.0006074   -3.5989118  
H    0.0150776    0.0003317   -4.0331632  
H    2.7563626    0.0012823    0.6148051  
C    2.5285572    2.1210227    2.9438989  
C    1.9331703    1.6216660    4.0790748  
C    0.8903039    0.7472258    3.6520102  
C    0.8972198    0.7527806    2.2336141  
N    1.9028376    1.5986179    1.8362361  
C    0.0000000    0.0000000    1.4700000  
C   -0.9207814   -0.7726952    2.1506477  
O   -1.8198395   -1.5274828    1.4542253  
C   -0.9436862   -0.7911793    3.5655508  
O   -1.9197945   -1.6098497    4.0950179  
C   -0.0590329   -0.0485852    4.3195194  
H    2.2150357    1.8593692    5.0905303  
H    2.1533708    1.7953814    0.8841339  
H   -2.3621246   -1.9821033    2.1118817  
H   -1.8668290   -1.5649508    5.0545920  
H   -0.1007624   -0.0827977    5.4019087  
H    3.3491200    2.8096064    2.8367138  
