64

C    3.3829527    0.5719741   -8.7519785  
C    4.4607851   -0.2636169   -8.9323480  
C    4.7885091   -0.2267992  -10.3200944  
C    3.8686099    0.6559825  -10.9417115  
N    3.0279687    1.1219133   -9.9614836  
C    3.8950338    0.9340075  -12.3116725  
C    4.8680017    0.3097278  -13.0678388  
O    4.9392393    0.5458317  -14.4102964  
C    5.7945339   -0.5746151  -12.4659317  
O    6.7015633   -1.1172979  -13.3525755  
C    5.7688874   -0.8495695  -11.1145377  
H    4.9498799   -0.8308583   -8.1590321  
H    2.2781818    1.7746480  -10.1019772  
H    3.1966698    1.6057411  -12.7915321  
H    5.6777695    0.0184236  -14.7414747  
H    7.2902882   -1.7020429  -12.8656666  
H    6.4915152   -1.5314964  -10.6817992  
C    3.8706491   -0.7380878   -4.5561748  
C    2.8310662   -0.0116220   -4.0232752  
C    2.2320930    0.7087010   -5.0988988  
C    2.9547298    0.3789711   -6.2740583  
N    3.9438703   -0.5000829   -5.9087061  
C    2.6394084    0.9080277   -7.5292316  
C    1.5750126    1.7857022   -7.5994169  
O    1.2238677    2.3314682   -8.8001886  
C    0.8420584    2.1272700   -6.4379841  
O   -0.1887480    3.0138618   -6.6719455  
C    1.1527392    1.6059350   -5.1993504  
H    4.6097920   -0.9169130   -6.5338322  
H    0.4674997    2.9071617   -8.6277092  
H   -0.6323010    3.1917834   -5.8369555  
H    0.5733114    1.8862636   -4.3274803  
H    4.5665935   -1.4060756   -4.0782488  
C    3.3041270    0.0001177   -1.5420434  
C    2.5845372   -0.0004781   -0.3695856  
C    1.2040006   -0.0000008   -0.7283592  
C    1.1422371    0.0006037   -2.1454375  
N    2.4348636    0.0026109   -2.6077467  
C   -0.0655183    0.0008798   -2.8497920  
C   -1.2321770    0.0002326   -2.1101400  
O   -2.4392818    0.0001147   -2.7472520  
C   -1.1911210   -0.0000007   -0.6955263  
O   -2.4371527   -0.0002320   -0.1032859  
C    0.0000000    0.0000000    0.0000000  
H    3.0031533   -0.0000660    0.6222577  
H   -0.1193553    0.0014844   -3.9297472  
H   -3.1132989   -0.0000648   -2.0551784  
H   -2.3200282   -0.0004069    0.8516410  
H    4.3686624    0.0004070   -1.7024294  
C    2.5128556    2.1077716    2.9199648  
C    1.9592212    1.6432552    4.0696553  
C    0.8915788    0.7479214    3.6910360  
C    0.8684491    0.7287414    2.2159470  
N    1.8754542    1.5738793    1.8102719  
C    0.0000000    0.0000000    1.4700000  
C   -0.9772830   -0.8200135    2.1664417  
O   -1.8021297   -1.5120829    1.5842315  
C   -0.9711318   -0.8147624    3.7284083  
O   -1.7894187   -1.5009653    4.3257297  
C    0.0140216    0.0115358    4.4216297  
H    2.2638494    1.8988021    5.0689105  
H    0.0117648    0.0094386    5.5031631  
H    3.3327358    2.7953732    2.7900019  
H    2.1123206    1.7707734    0.8551938  
