64

C   -1.6631416    0.0181667   -3.2649296  
C   -3.0375790    0.0621615   -3.3030575  
C   -3.4161840    0.0614745   -4.6782875  
C   -2.2200509    0.0154479   -5.4392563  
N   -1.1743371   -0.0079944   -4.5501282  
C   -2.2131845    0.0017235   -6.8373099  
C   -3.4360942    0.0347633   -7.4788539  
O   -3.4871350    0.0228757   -8.8427691  
C   -4.6404189    0.0812403   -6.7370599  
O   -5.7753100    0.1104140   -7.5209700  
C   -4.6479382    0.0950776   -5.3578288  
H   -3.6873321    0.0922842   -2.4452073  
H   -0.2024863   -0.0519609   -4.7982287  
H   -1.3049852   -0.0331567   -7.4231088  
H   -4.4228748    0.0509602   -9.0812399  
H   -6.5436443    0.1410733   -6.9427602  
C   -1.1241033    0.0251989   -0.7919004  
C   -0.7477760   -0.0000527   -2.1148543  
C    0.6776716   -0.0446785   -2.1414698  
C    1.1193173   -0.0449103   -0.7935547  
N    0.0000000    0.0000000    0.0000000  
C    2.4716708   -0.0837628   -0.4408244  
C    3.3949968   -0.1234050   -1.4675064  
O    4.7285763   -0.1626865   -1.1793479  
C    2.9739570   -0.1234811   -2.8186329  
O    4.0134435   -0.1651934   -3.7247632  
C    1.6400020   -0.0848915   -3.1673485  
H    2.8147665   -0.0840181    0.5845965  
H    5.1906148   -0.1856180   -2.0274392  
H    3.6431709   -0.1623218   -4.6127349  
H    1.3477211   -0.0858058   -4.2109238  
H   -2.1053803    0.0606357   -0.3505400  
C   -5.9207091    0.1439493   -4.6239583  
C   -6.1626857    0.1663991   -3.2699231  
C   -7.5781895    0.2143824   -3.1006684  
C   -8.1525249    0.2188815   -4.3976047  
N   -7.1182372    0.1774145   -5.2993512  
C   -9.5333048    0.2612113   -4.6131118  
C  -10.3491686    0.2993937   -3.4990721  
O  -11.7048292    0.3412228   -3.6522017  
C   -9.7949897    0.2959745   -2.1968846  
O  -10.7384686    0.3374642   -1.1911668  
C   -8.4329000    0.2544994   -1.9835359  
H   -5.4113537    0.1512902   -2.4990378  
H   -7.2193792    0.1596976   -6.2980694  
H   -9.9772989    0.2650146   -5.5990420  
H  -12.0796060    0.3631420   -2.7620741  
H  -10.2811732    0.3320911   -0.3447298  
H   -8.0376064    0.2531306   -0.9744675  
C    2.5128556    2.1077716    2.9199648  
C    1.9592212    1.6432552    4.0696553  
C    0.8915788    0.7479214    3.6910360  
C    0.8684491    0.7287414    2.2159470  
N    1.8754542    1.5738793    1.8102719  
C    0.0000000    0.0000000    1.4700000  
C   -0.9772830   -0.8200135    2.1664417  
O   -1.8021297   -1.5120829    1.5842315  
C   -0.9711318   -0.8147624    3.7284083  
O   -1.7894187   -1.5009653    4.3257297  
C    0.0140216    0.0115358    4.4216297  
H    2.2638494    1.8988021    5.0689105  
H    0.0117648    0.0094386    5.5031631  
H    3.3327358    2.7953732    2.7900019  
H    2.1123206    1.7707734    0.8551938  
