60

C    5.6484568    0.0004439   -0.6807742  
C    4.7161324   -0.0005436   -1.6923263  
C    5.4371285   -0.0001080   -2.9230842  
C    6.8175142    0.0008760   -2.5968006  
N    6.9105273    0.0031395   -1.2271436  
C    7.8240137    0.0012220   -3.5672374  
C    7.4298413    0.0002555   -4.8911726  
O    8.3714604    0.0001894   -5.8792857  
C    6.0574641   -0.0003586   -5.2367109  
O    5.8267423   -0.0008767   -6.5968982  
C    5.0639869   -0.0004269   -4.2798782  
H    7.7671531   -0.0062908   -0.7036119  
H    8.8778481    0.0021150   -3.3250882  
H    7.8889788   -0.0002466   -6.7162298  
H    4.8759898   -0.0013000   -6.7441177  
H    4.0211717   -0.0007220   -4.5748589  
H    5.5130312    0.0008845    0.3872233  
C    3.2573666   -0.0002920   -1.5109384  
C    2.5379463   -0.0001710   -0.3591964  
C    1.1435039    0.0000331   -0.7338498  
C    1.1092600   -0.0000083   -2.2088476  
N    2.4227554    0.0001909   -2.6182613  
C   -0.0265538   -0.0002524   -2.9515660  
C   -1.3003040   -0.0002640   -2.2514976  
O   -2.3786789   -0.0004133   -2.8306420  
C   -1.2877727    0.0000311   -0.6895603  
O   -2.3539960    0.0003306   -0.0892032  
C    0.0000000    0.0000000    0.0000000  
H    2.9384090   -0.0000368    0.6389236  
H    2.7280484   -0.0013407   -3.5742118  
C    2.4782000   -2.1081880   -5.8783654  
C    1.9212487   -1.6438943   -7.0265430  
C    0.8545957   -0.7486155   -6.6450164  
C    0.8356614   -0.7292248   -5.1698703  
N    1.8439038   -1.5742006   -4.7669401  
C   -0.0307367   -0.0004647   -4.4215603  
C   -1.0100819    0.8193479   -5.1153365  
O   -1.8333399    1.5114168   -4.5308810  
C   -1.0083747    0.8138718   -6.6773133  
O   -1.8284286    1.4999045   -7.2724029  
C   -0.0251127   -0.0124254   -7.3732162  
H    2.2230587   -1.8995542   -8.0266241  
H   -0.0304472   -0.0104847   -8.4547391  
H    3.2985176   -2.7956866   -5.7506369  
H    2.0835073   -1.7709325   -3.8125117  
C    2.5528530    2.1414826    2.8079335  
C    2.0663498    1.7338582    4.0032312  
C    0.9804344    0.8229586    3.6752840  
C    0.9495562    0.7966882    2.1971295  
N    1.8690446    1.5676019    1.6831036  
C    0.0000000    0.0000000    1.4700000  
C   -0.8785127   -0.7372425    2.1869543  
O   -1.8187535   -1.5261249    1.6395491  
C   -0.8723269   -0.7321790    3.6796354  
O   -1.7010379   -1.4274584    4.2670412  
C    0.1115397    0.0933559    4.4024240  
H    2.4028853    2.0163452    4.9860947  
H   -2.2861435   -1.9184361    2.3990168  
H    0.0832434    0.0693689    5.4835595  
H    3.3664920    2.8238276    2.6198634  
