62

C    3.3041277    0.0001176   -1.5420422  
C    2.5845371   -0.0004780   -0.3695846  
C    1.2040006   -0.0000008   -0.7283586  
C    1.1422384    0.0006037   -2.1454371  
N    2.4348644    0.0026109   -2.6077459  
C   -0.0655172    0.0008798   -2.8497916  
C   -1.2321763    0.0002325   -2.1101401  
O   -2.4392807    0.0001147   -2.7472523  
C   -1.1911213   -0.0000008   -0.6955266  
O   -2.4371520   -0.0002319   -0.1032867  
C    0.0000000    0.0000000    0.0000000  
H    3.0031534   -0.0000661    0.6222589  
H    2.7054633   -0.0071100   -3.5745256  
H   -0.1193541    0.0014843   -3.9297470  
H   -3.1132989   -0.0000648   -2.0551790  
H   -2.3200289   -0.0004070    0.8516405  
C    6.6801369   -0.0033359    1.2661402  
C    7.7093287   -0.0019930    0.3802296  
C    7.1273480   -0.0004471   -0.9411831  
C    5.6642442   -0.0009742   -0.7511341  
N    5.4589562   -0.0031398    0.6092857  
C    4.7577224    0.0005128   -1.7610450  
C    5.2563301    0.0025578   -3.1262999  
O    4.5202056    0.0039396   -4.1042669  
C    6.8020700    0.0028971   -3.3510072  
O    7.2336242    0.0043058   -4.4960050  
C    7.6791169    0.0014555   -2.1828292  
H    8.7566703   -0.0022582    0.6245425  
H    6.7110416   -0.0046692    2.3436059  
H    4.5604253   -0.0024244    1.0561502  
C   10.0556511   -0.7251711   -1.6705188  
C   11.3176119   -0.5075049   -2.1223498  
C   11.2162616    0.4212003   -3.2232904  
C    9.7815253    0.7289763   -3.3769035  
N    9.1320829    0.0020687   -2.4059662  
C    9.2714730    1.5708027   -4.3111836  
C   10.1973546    2.2166677   -5.2266818  
O    9.8362177    2.9913635   -6.1028825  
C   11.7211385    1.9051267   -5.0823572  
O   12.5101598    2.4427379   -5.8476544  
C   12.1504245    0.9805585   -4.0360599  
H   12.2168454   -0.9474699   -1.7293813  
H    8.2156575    1.7829748   -4.4068247  
H   13.2072117    0.7703200   -3.9426431  
H    9.7226191   -1.3558352   -0.8622851  
C    2.5311839    2.1237619    3.0120429  
C    1.9795631    1.6616747    1.8395852  
C    0.9223175    0.7739173    2.1983588  
C    0.8753926    0.7337535    3.6154372  
N    1.8668922    1.5631002    4.0777464  
C   -0.0496243   -0.0427881    4.3197917  
C   -0.9437528   -0.7922060    3.5801400  
O   -1.8685244   -1.5680278    4.2172520  
C   -0.9124520   -0.7656372    2.1655264  
O   -1.8671164   -1.5663939    1.5732860  
C    0.0000000    0.0000000    1.4700000  
H    2.3005065    1.9304404    0.8477417  
H    2.0679347    1.7444845    5.0445261  
H   -0.0904770   -0.0778569    5.3997470  
H   -2.3849669   -2.0011402    3.5251786  
H   -1.7775064   -1.4909735    0.6183591  
H    3.3468514    2.8078103    3.1724291  
