60

C   -0.0307358   -0.0004643   -4.4215602  
C    1.0189053   -0.0016745   -5.3107841  
C    0.4547307   -0.0019269   -6.6208635  
C   -0.9553011   -0.0005395   -6.4668059  
N   -1.2160420   -0.0016280   -5.1189819  
C   -1.8348247   -0.0000666   -7.5536491  
C   -1.2808357   -0.0007044   -8.8190642  
O   -2.0937964    0.0000674   -9.9154713  
C    0.1236162   -0.0024638   -8.9932144  
O    0.5198527   -0.0033255  -10.3147053  
C    0.9918880   -0.0032045   -7.9214728  
H    2.0627975   -0.0034036   -5.0475750  
H   -2.1305290    0.0095157   -4.7047714  
H   -2.9104370    0.0008455   -7.4429316  
H   -1.5120550   -0.0008701  -10.6867310  
H    1.4814922   -0.0044772  -10.3438913  
H    2.0630623   -0.0047375   -8.0859770  
C    3.2573667   -0.0002917   -1.5109384  
C    2.5379466   -0.0001708   -0.3591963  
C    1.1435040    0.0000333   -0.7338502  
C    1.1092604   -0.0000080   -2.2088477  
N    2.4227557    0.0001912   -2.6182616  
C   -0.0265537   -0.0002520   -2.9515661  
C   -1.3003040   -0.0002638   -2.2514979  
O   -2.3786786   -0.0004130   -2.8306424  
C   -1.2877728    0.0000313   -0.6895606  
O   -2.3539959    0.0003306   -0.0892032  
C    0.0000000    0.0000000    0.0000000  
H    2.9384091   -0.0000367    0.6389235  
H    2.7280487   -0.0013403   -3.5742117  
C    6.5597225   -0.0008209    1.3835018  
C    7.6114516   -0.0009111    0.5244669  
C    7.0637934   -0.0009868   -0.8115368  
C    5.5962696   -0.0009035   -0.6593384  
N    5.3559137   -0.0012036    0.6953272  
C    4.7161330   -0.0005432   -1.6923264  
C    5.2498352   -0.0004417   -3.0442499  
O    4.5392139   -0.0001855   -4.0409035  
C    6.8008628   -0.0007792   -3.2289600  
O    7.2618446   -0.0010037   -4.3624311  
C    7.6474462   -0.0008757   -2.0385196  
H    8.6521340   -0.0011057    0.7957482  
H    8.7203348   -0.0009043   -2.1750268  
H    6.5627892   -0.0007239    2.4614074  
H    4.4461412    0.0003273    1.1188349  
C    2.3971438    2.0127888    3.1728260  
C    1.9431056    1.6308205    1.9564670  
C    0.8496017    0.7127664    2.2356185  
C    0.7794028    0.6545384    3.7115134  
N    1.6840587    1.4146091    4.2663826  
C   -0.1885723   -0.1578550    4.3957118  
C   -1.0476298   -0.8789867    3.6398520  
O   -2.0015663   -1.6796266    4.1448486  
C   -1.0022026   -0.8410666    2.1483229  
O   -1.8147390   -1.5232959    1.5241687  
C    0.0000000    0.0000000    1.4700000  
H    2.3054237    1.9346118    0.9892483  
H   -0.2170646   -0.1815267    5.4753125  
H   -2.4487139   -2.0549881    3.3649027  
H    3.2048689    2.6911772    3.3971983  
