64

C    5.7620322   -2.3732353   -6.5607860  
C    5.3267038   -1.0701842   -6.6315997  
C    6.0790286   -0.4353809   -7.6638949  
C    6.9652550   -1.4089461   -8.1918146  
N    6.7480598   -2.5736294   -7.4983047  
C    7.8608332   -1.1329330   -9.2293821  
C    7.8615748    0.1491638   -9.7435857  
O    8.7157286    0.4727484  -10.7578483  
C    6.9851116    1.1344338   -9.2299024  
O    7.1064933    2.3624466   -9.8468272  
C    6.1015264    0.8629198   -8.2061417  
H    7.2247333   -3.4424475   -7.6592998  
H    8.5389423   -1.8704797   -9.6360699  
H    8.5552585    1.4028807  -10.9636823  
H    6.4802593    2.9698185   -9.4411988  
H    5.4423543    1.6380883   -7.8332044  
H    5.4481934   -3.1751601   -5.9147361  
C    4.1066128   -0.7198880   -4.4477715  
C    3.0267438   -0.0008951   -3.9901699  
C    2.5093612    0.7266862   -5.1026182  
C    3.3209994    0.4088810   -6.2216218  
N    4.2823369   -0.4703591   -5.7887433  
C    3.1008509    0.9475204   -7.4929166  
C    2.0418855    1.8226941   -7.6372805  
O    1.7817952    2.3774835   -8.8569421  
C    1.2209696    2.1524221   -6.5326563  
O    0.2080029    3.0379800   -6.8376641  
C    1.4377308    1.6216290   -5.2781445  
H    3.7159022    0.7094363   -8.3497890  
H    1.0124307    2.9495408   -8.7382256  
H   -0.2987967    3.2076314   -6.0376790  
H    0.7922735    1.8929848   -4.4509629  
H    4.7662585   -1.3898540   -3.9233934  
C    3.3003547    0.0005277   -1.4738986  
C    2.5232816    0.0003497   -2.6090746  
C    1.1623203   -0.0001319   -2.1820102  
C    1.1711884    0.0000584   -0.7636141  
N    2.4852301   -0.0014919   -0.3662359  
C    0.0000000    0.0000000    0.0000000  
C   -1.2020383    0.0000520   -0.6806479  
O   -2.3759248    0.0003493    0.0157745  
C   -1.2314655   -0.0005115   -2.0955511  
O   -2.5054388   -0.0008040   -2.6250184  
C   -0.0764513   -0.0007274   -2.8495195  
H    2.8036266    0.0088183    0.5858662  
H   -3.0835639    0.0000346   -0.6418822  
H   -2.4360043   -0.0011529   -3.5845924  
H   -0.1304091   -0.0013423   -3.9319089  
H    4.3715553    0.0004897   -1.3667133  
C    2.3971438    2.0127888    3.1728260  
C    1.9431056    1.6308205    1.9564670  
C    0.8496017    0.7127664    2.2356185  
C    0.7794028    0.6545384    3.7115134  
N    1.6840587    1.4146091    4.2663826  
C   -0.1885723   -0.1578550    4.3957118  
C   -1.0476298   -0.8789867    3.6398520  
O   -2.0015663   -1.6796266    4.1448486  
C   -1.0022026   -0.8410666    2.1483229  
O   -1.8147390   -1.5232959    1.5241687  
C    0.0000000    0.0000000    1.4700000  
H    2.3054237    1.9346118    0.9892483  
H   -0.2170646   -0.1815267    5.4753125  
H   -2.4487139   -2.0549881    3.3649027  
H    3.2048689    2.6911772    3.3971983  
