60

C    4.9709057   -3.0380698   -9.5932548  
C    5.1534554   -2.2498414  -10.7058365  
C    4.7993356   -0.9186219  -10.3356284  
C    4.4054090   -0.9562438   -8.9735232  
N    4.5195605   -2.2584304   -8.5541211  
C    3.9905199    0.1813347   -8.2745452  
C    3.9732675    1.3787579   -8.9630629  
O    3.5769913    2.5204248   -8.3285756  
C    4.3623249    1.4364862  -10.3225196  
O    4.2901813    2.7015940  -10.8680830  
C    4.7714770    0.3145887  -11.0127841  
H    5.4982636   -2.5924135  -11.6664326  
H    4.3186010   -2.5895504   -7.6278626  
H    3.6381830    3.2305267   -8.9807067  
H    4.5694724    2.6527351  -11.7874367  
H    5.0635093    0.3896806  -12.0537247  
H    5.1255792   -4.0949722   -9.4591252  
C    5.6703525   -2.0177346   -4.9085748  
C    4.8680133   -1.6338541   -3.8885421  
C    3.9117991   -0.7160921   -4.4884317  
C    4.2939630   -0.6601082   -5.9158072  
N    5.3241004   -1.4211364   -6.1680812  
C    3.5804909    0.1513597   -6.8632059  
C    2.5326218    0.8737501   -6.4055410  
O    1.7779987    1.6737360   -7.1779443  
C    2.1221162    0.8381010   -4.9708373  
O    1.1586084    1.5213824   -4.6244274  
C    2.8699641   -0.0020530   -4.0185824  
H    4.9187307   -1.9362135   -2.8565138  
H    1.1149868    2.0503428   -6.5715331  
H    6.5076563   -2.6965644   -4.8756220  
C    3.2573670   -0.0002921   -1.5109382  
C    2.5379468   -0.0001711   -0.3591962  
C    1.1435043    0.0000330   -0.7338498  
C    1.1092608   -0.0000085   -2.2088474  
N    2.4227562    0.0001906   -2.6182610  
C   -0.0265533   -0.0002525   -2.9515663  
C   -1.3003033   -0.0002641   -2.2514979  
O   -2.3786785   -0.0004132   -2.8306425  
C   -1.2877724    0.0000310   -0.6895608  
O   -2.3539956    0.0003306   -0.0892035  
C    0.0000000    0.0000000    0.0000000  
H    2.9384091   -0.0000370    0.6389240  
H   -0.0296290   -0.0004088   -4.0327231  
H    4.3270394   -0.0004767   -1.6439445  
C    2.5128556    2.1077716    2.9199648  
C    1.9592212    1.6432552    4.0696553  
C    0.8915788    0.7479214    3.6910360  
C    0.8684491    0.7287414    2.2159470  
N    1.8754542    1.5738793    1.8102719  
C    0.0000000    0.0000000    1.4700000  
C   -0.9772830   -0.8200135    2.1664417  
O   -1.8021297   -1.5120829    1.5842315  
C   -0.9711318   -0.8147624    3.7284083  
O   -1.7894187   -1.5009653    4.3257297  
C    0.0140216    0.0115358    4.4216297  
H    2.2638494    1.8988021    5.0689105  
H    0.0117648    0.0094386    5.5031631  
H    3.3327358    2.7953732    2.7900019  
H    2.1123206    1.7707734    0.8551938  
