62

C    1.1243407    0.0100080   -0.7919011  
C    0.7474070    0.0234653   -2.1148553  
C   -0.6787391    0.0234400   -2.1414701  
C   -1.1201749    0.0098439   -0.7935549  
N    0.0000000    0.0000000    0.0000000  
C   -2.4730817    0.0063367   -0.4408239  
C   -3.3971963    0.0170513   -1.4675052  
O   -4.7313521    0.0145605   -1.1793463  
C   -2.9763659    0.0303100   -2.8186317  
O   -4.0166484    0.0394568   -3.7247616  
C   -1.6418574    0.0335038   -3.1673481  
H    1.4178702    0.0311175   -2.9571215  
H   -2.8160163   -0.0041503    0.5845965  
H   -5.1938822    0.0230150   -2.0274371  
H   -3.6464692    0.0481798   -4.6127337  
H    2.1062463    0.0053113   -0.3505413  
C    1.5731598   -2.0886860   -5.2038823  
C    1.4268801   -1.6686673   -6.4820708  
C    0.2928463   -0.7579271   -6.4501491  
C   -0.1353074   -0.7453027   -5.0348366  
N    0.6115276   -1.5234345   -4.2994877  
C   -1.2456348    0.0471564   -4.5828768  
C   -1.8983162    0.7933926   -5.5029159  
O   -2.9512310    1.5796901   -5.2215856  
C   -1.4900237    0.8021756   -6.9386669  
O   -2.1296692    1.5051133   -7.7209413  
C   -0.3478286   -0.0192615   -7.3774783  
H   -3.1965795    1.9802972   -6.0750906  
H   -0.0836670    0.0148416   -8.4259468  
H    2.3059288   -2.7749403   -4.8100834  
C    3.2678603   -5.4352337   -7.9947553  
C    2.5829509   -4.5644909   -7.2173967  
C    2.6875878   -3.2861962   -7.9040652  
C    3.4914755   -3.5760787   -9.1108435  
N    3.8344514   -4.8342208   -9.1694609  
C    3.8230505   -2.5560790  -10.0672672  
C    3.3717175   -1.3035079   -9.8291494  
O    3.6058940   -0.2551571  -10.6367151  
C    2.5578843   -0.9794478   -8.6205046  
O    2.1807445    0.1822824   -8.4676363  
C    2.2310677   -2.0431341   -7.6542296  
H    2.0699915   -4.7649092   -6.2923122  
H    4.4122567   -2.7961261  -10.9402634  
H    3.1595263    0.4952823  -10.2045710  
H    3.4259584   -6.4893379   -7.8309200  
C    0.8676693    0.7151171    2.2619005  
C    0.5875920    0.4624972    3.5848544  
C   -0.5048400   -0.4542819    3.6114698  
C   -0.8517165   -0.7276451    2.2635546  
N    0.0000000    0.0000000    1.4700000  
C   -1.8902865   -1.5946756    1.9108239  
C   -2.5912627   -2.1969500    2.9375057  
O   -3.6148162   -3.0527051    2.6493466  
C   -2.2603868   -1.9365747    4.2886322  
O   -3.0513550   -2.6123276    5.1947621  
C   -1.2361111   -1.0811317    4.6373480  
H    1.1060808    0.8876438    4.4271209  
H   -2.1597133   -1.8070987    0.8854031  
H   -3.9636755   -3.3565188    3.4974381  
H   -2.7621927   -2.3810384    6.0827341  
H   -1.0058879   -0.9010589    5.6809233  
H    1.6167816    1.3499334    1.8205408  
