60

C    1.0575726   -3.0134119  -10.2805093  
C    0.6056187   -2.3323768   -9.1739845  
C    0.4675398   -0.9646407   -9.5545526  
C    0.8526902   -0.8706424  -10.9164451  
N    1.2069399   -2.1322239  -11.3257576  
C    0.8406732    0.3350058  -11.6242980  
C    0.4321224    1.4663200  -10.9450399  
O    0.4010909    2.6696895  -11.5884322  
C    0.0444316    1.3928321   -9.5859555  
O   -0.3363284    2.6058104   -9.0501856  
C    0.0562974    0.2038165   -8.8869372  
H    0.4017110   -2.7676298   -8.2106730  
H    1.5141810   -2.3777705  -12.2494950  
H    1.1331630    0.4133297  -12.6623347  
H    0.0913957    3.3171404  -10.9417777  
H   -0.5826009    2.4681667   -8.1303988  
H    1.2865657   -4.0577601  -10.4064378  
C    1.7371422   -2.0043750   -5.5274505  
C    0.9346266   -1.6238670   -4.5062936  
C   -0.0220098   -0.7047840   -5.1034811  
C    0.3601280   -0.6444241   -6.5306852  
N    1.3906155   -1.4042325   -6.7851963  
C   -0.3537176    0.1694996   -7.4756927  
C   -1.4019189    0.8900579   -7.0159054  
O   -2.1569101    1.6919658   -7.7859521  
C   -1.8124079    0.8499980   -5.5813134  
O   -2.7762301    1.5318137   -5.2328955  
C   -1.0641734    0.0073898   -4.6315339  
H    0.9854833   -1.9292388   -3.4751597  
H   -2.8200953    2.0664814   -7.1784361  
H    2.5747583   -2.6829136   -5.4964944  
C    1.1319248    0.0015675   -0.8009270  
C    0.7969916    0.0034959   -2.1169404  
C   -0.6453336    0.0035703   -2.1842672  
C   -1.1266831    0.0015415   -0.7896027  
N    0.0000000    0.0000000    0.0000000  
C   -2.4346129    0.0013924   -0.4276297  
C   -3.4350110    0.0031352   -1.4820184  
O   -4.6384610    0.0030897   -1.2583919  
C   -2.9478958    0.0050460   -2.9661075  
O   -3.7809377    0.0062160   -3.8623775  
C   -1.5113821    0.0053068   -3.2312125  
H    1.4821240    0.0045436   -2.9459192  
H   -2.7664565    0.0000185    0.6013447  
H    2.1104318    0.0009428   -0.3488058  
C    2.5528530    2.1414826    2.8079335  
C    2.0663498    1.7338582    4.0032312  
C    0.9804344    0.8229586    3.6752840  
C    0.9495562    0.7966882    2.1971295  
N    1.8690446    1.5676019    1.6831036  
C    0.0000000    0.0000000    1.4700000  
C   -0.8785127   -0.7372425    2.1869543  
O   -1.8187535   -1.5261249    1.6395491  
C   -0.8723269   -0.7321790    3.6796354  
O   -1.7010379   -1.4274584    4.2670412  
C    0.1115397    0.0933559    4.4024240  
H    2.4028853    2.0163452    4.9860947  
H   -2.2861435   -1.9184361    2.3990168  
H    0.0832434    0.0693689    5.4835595  
H    3.3664920    2.8238276    2.6198634  
