64

C    7.4936754   -0.5537384   -4.9336137  
C    6.9462792    0.6782339   -5.2076005  
C    8.0302315    1.5968707   -5.3331153  
C    9.2251450    0.8617450   -5.1240723  
N    8.8632812   -0.4402364   -4.8821695  
C   10.4929701    1.4490077   -5.1743483  
C   10.5556979    2.8029819   -5.4408014  
O   11.7681470    3.4269012   -5.5016529  
C    9.3746377    3.5535738   -5.6518159  
O    9.6034116    4.8901858   -5.9057306  
C    8.1235459    2.9749367   -5.6020985  
H    9.4999596   -1.1968519   -4.7085208  
H   11.4074812    0.8942731   -5.0157819  
H   11.5877329    4.3558792   -5.6958574  
H    8.7549559    5.3245005   -6.0364825  
H    7.2367357    3.5754547   -5.7677005  
H    7.0154272   -1.5041448   -4.7694021  
C    3.4064260   -0.7320630   -2.9766960  
C    4.6700292   -0.5172678   -3.4253008  
C    4.5733626    0.4097442   -4.5280880  
C    3.1395865    0.7196554   -4.6863006  
N    2.4861704   -0.0045255   -3.7159919  
C    2.6336019    1.5607526   -5.6234447  
C    3.5631615    2.2035236   -6.5373922  
O    3.2058149    2.9773403   -7.4159207  
C    5.0860058    1.8896829   -6.3882080  
O    5.8780985    2.4246821   -7.1521622  
C    5.5107680    0.9661680   -5.3391375  
H    5.5674032   -0.9580692   -3.0290347  
H    1.5784195    1.7745259   -5.7224472  
H    3.0700425   -1.3608041   -2.1683516  
C    0.0000000    0.0000000    0.0000000  
C    1.0521669   -0.0011848   -0.8862341  
C    0.4917221   -0.0011931   -2.1979130  
C   -0.9187427    0.0003100   -2.0478683  
N   -1.1833170   -0.0009472   -0.7007915  
C   -1.7951698    0.0010259   -3.1372090  
C   -1.2375835    0.0005161   -4.4010425  
O   -2.0474208    0.0015256   -5.4997580  
C    0.1673584   -0.0013557   -4.5711962  
O    0.5673529   -0.0020659   -5.8915551  
C    1.0325773   -0.0023359   -3.4969890  
H    2.0953059   -0.0030542   -0.6200560  
H   -2.0989777    0.0102265   -0.2891825  
H   -2.8710930    0.0020274   -3.0295514  
H   -1.4634881    0.0006427   -6.2693593  
H    1.5290715   -0.0033076   -5.9180042  
C    1.1188642   -0.0008217    2.2703808  
C    0.0000000    0.0000000    1.4700000  
C   -1.1323862   -0.0008904    2.3373528  
C   -0.6382662   -0.0019682    3.6669281  
N    0.7324016   -0.0038477    3.5902241  
C   -1.4770914   -0.0027325    4.7854808  
C   -2.8395474   -0.0020958    4.5576857  
O   -3.7039201   -0.0024443    5.6140350  
C   -3.3517868   -0.0013946    3.2384331  
O   -4.7300496   -0.0012389    3.1773122  
C   -2.5248543   -0.0009135    2.1344818  
H    1.3576314    0.0056174    4.3757045  
H   -1.1067570   -0.0036993    5.8013813  
H   -4.5940033   -0.0021850    5.2385129  
H   -4.9934601   -0.0007286    2.2519915  
H   -2.9462578   -0.0005617    1.1360343  
H    2.1619896   -0.0009344    2.0042067  
