62

C    4.5186884    0.0147541   -8.1525001  
C    5.5779383   -0.6613911   -8.7122202  
C    5.6204388   -0.3001741  -10.0914645  
C    4.5537102    0.6070596  -10.3171710  
N    3.9037792    0.7749104   -9.1196601  
C    4.2932358    1.1716539  -11.5694392  
C    5.1249509    0.8141187  -12.6127982  
O    4.9158375    1.3361630  -13.8564840  
C    6.1943205   -0.0898315  -12.4075182  
O    6.9315708   -0.3462194  -13.5450882  
C    6.4517076   -0.6474142  -11.1724544  
H    6.2380381   -1.3332638   -8.1908291  
H    3.1104879    1.3714190   -8.9685097  
H    3.4817457    1.8635999  -11.7480371  
H    5.5981013    0.9609838  -14.4283419  
H    7.6329655   -0.9650445  -13.3199103  
H    7.2780496   -1.3370293  -11.0456941  
C    5.8883843   -2.0954747   -4.5533056  
C    4.9762278   -1.6321311   -3.6603566  
C    4.1010834   -0.7362692   -4.3789590  
C    4.5815870   -0.7155461   -5.7737626  
N    5.6672535   -1.5597493   -5.8130035  
C    4.0183665    0.0134745   -6.7702646  
C    2.8618713    0.8325282   -6.4474559  
O    2.2840245    1.5248516   -7.2751532  
C    2.3361184    0.8260250   -4.9766243  
O    1.3633190    1.5118827   -4.6928611  
C    3.0267438   -0.0008951   -3.9901699  
H    4.9226753   -1.8885071   -2.6172761  
H    6.7036721   -2.7830650   -4.3970508  
H    6.2134532   -1.7579035   -6.6312015  
C    3.3003547    0.0005277   -1.4738986  
C    2.5232816    0.0003497   -2.6090746  
C    1.1623203   -0.0001319   -2.1820102  
C    1.1711884    0.0000584   -0.7636141  
N    2.4852301   -0.0014919   -0.3662359  
C    0.0000000    0.0000000    0.0000000  
C   -1.2020383    0.0000520   -0.6806479  
O   -2.3759248    0.0003493    0.0157745  
C   -1.2314655   -0.0005115   -2.0955511  
O   -2.5054388   -0.0008040   -2.6250184  
C   -0.0764513   -0.0007274   -2.8495195  
H    2.8036266    0.0088183    0.5858662  
H   -3.0835639    0.0000346   -0.6418822  
H   -2.4360043   -0.0011529   -3.5845924  
H   -0.1304091   -0.0013423   -3.9319089  
H    4.3715553    0.0004897   -1.3667133  
C    0.8400945    0.7047457    2.2710304  
C    0.0000000    0.0000000    1.4700000  
C   -0.8844236   -0.7423113    2.3369512  
C   -0.4878984   -0.4098547    3.7186280  
N    0.5629682    0.4714286    3.6095011  
C   -1.0836927   -0.9095027    4.8308716  
C   -2.1891196   -1.8367527    4.6554461  
O   -2.7906899   -2.3413415    5.5944904  
C   -2.6257283   -2.2031529    3.2011665  
O   -3.5549479   -2.9829990    3.0410059  
C   -1.9068976   -1.5999348    2.0816745  
H   -0.7774656   -0.6525820    5.8354244  
H   -2.2155208   -1.8586617    1.0779135  
H    1.6384792    1.3747609    1.9961646  
H    1.0518368    0.8833920    4.3830260  
