60

C    7.2245580   -0.0007147    2.3474575  
C    5.9908358   -0.0024218    2.9560576  
C    6.2209986   -0.0033677    4.3637598  
C    7.6263723   -0.0018717    4.5557130  
N    8.2057165   -0.0022314    3.3111341  
C    8.2165537   -0.0019666    5.8231814  
C    7.3726435   -0.0032944    6.9167958  
O    7.8959273   -0.0030967    8.1774260  
C    5.9678177   -0.0051730    6.7456876  
O    5.2633865   -0.0067519    7.9319075  
C    5.3848963   -0.0053538    5.4955963  
H    5.0417425   -0.0040287    2.4479119  
H    9.1932854    0.0091516    3.1306902  
H    9.2869666   -0.0009753    5.9762084  
H    7.1447445   -0.0044591    8.7848702  
H    4.3232973   -0.0079368    7.7273727  
H    4.3057664   -0.0069949    5.3958297  
C    4.7390840    0.0009613   -1.2727298  
C    5.7159780    0.0017141   -2.2159966  
C    6.9782053    0.0017425   -1.5148412  
C    6.6542735    0.0009095   -0.0754460  
N    5.2807306    0.0008646    0.0037338  
C    7.5764447    0.0002872    0.9201961  
C    8.9818047    0.0006749    0.5493874  
O    9.8878536    0.0002343    1.3724151  
C    9.3478544    0.0018088   -0.9691024  
O   10.5277192    0.0024502   -1.2934180  
C    8.2653746    0.0021244   -1.9499644  
H    5.5691183    0.0023771   -3.2813817  
H    8.5272584    0.0027054   -2.9993165  
H    4.7530487   -0.0011860    0.8573115  
C    3.2798077    0.0005856   -1.4499661  
C    2.5571132    0.0005565   -2.5996564  
C    1.1637425    0.0001547   -2.2210366  
C    1.1336959   -0.0000200   -0.7459475  
N    2.4483509   -0.0001429   -0.3402730  
C    0.0000000    0.0000000    0.0000000  
C   -1.2757370   -0.0000187   -0.6964411  
O   -2.3524597   -0.0000640   -0.1142306  
C   -1.2676502   -0.0000874   -2.2584078  
O   -2.3355774   -0.0004102   -2.8557287  
C    0.0181551    0.0001758   -2.9516297  
H    2.9547342    0.0006074   -3.5989118  
H    0.0150776    0.0003317   -4.0331632  
H    2.7563626    0.0012823    0.6148051  
C    0.8175213    0.6860729    2.3021913  
C    0.0000000    0.0000000    1.4700000  
C   -0.8887526   -0.7456559    2.3478473  
C   -0.4549825   -0.3816753    3.7138435  
N    0.5448156    0.4573574    3.6934124  
C   -1.0945674   -0.9182058    4.8835240  
C   -2.1210866   -1.7789155    4.6970523  
O   -2.8083856   -2.3554314    5.6976972  
C   -2.5824069   -2.1655116    3.3310774  
O   -3.5227682   -2.9541547    3.2362962  
C   -1.9100805   -1.6015804    2.1470656  
H   -0.7567140   -0.6349833    5.8697035  
H   -3.4728268   -2.9124471    5.2533954  
H   -2.2742832   -1.9066565    1.1752040  
H    1.6189533    1.3585343    2.0405121  
