60

C    2.7684270   -3.2434558   -8.8083022  
C    3.0994329   -3.1973246  -10.1427598  
C    2.9062138   -1.8512794  -10.5733733  
C    2.4529229   -1.1154772   -9.4486296  
N    2.3784915   -1.9913470   -8.3941489  
C    2.1602454    0.2504614   -9.5064268  
C    2.3285133    0.8852399  -10.7217132  
O    2.0575605    2.2182784  -10.8339890  
C    2.7794856    0.1681436  -11.8553864  
O    2.8960888    0.9413761  -12.9919858  
C    3.0681502   -1.1794610  -11.7991631  
H    3.4374037   -4.0314918  -10.7334664  
H    1.8142689    0.8169356   -8.6528412  
H    2.2385105    2.4572816  -11.7523560  
H    3.2056513    0.3813319  -13.7104041  
H    3.4116695   -1.7021383  -12.6841943  
H    2.7782652   -4.0707543   -8.1195076  
C    2.5229104   -2.1069161   -5.8790361  
C    1.9659599   -1.6422908   -7.0270794  
C    0.8993071   -0.7471214   -6.6452951  
C    0.8803723   -0.7281566   -5.1701439  
N    1.8886141   -1.5732494   -4.7674571  
C    0.0139741    0.0003876   -4.4216236  
C   -0.9653705    0.8204010   -5.1151637  
O   -1.7886283    1.5123015   -4.5305090  
C   -0.9636625    0.8153758   -6.6771425  
O   -1.7837157    1.5015804   -7.2720341  
C    0.0195994   -0.0107210   -7.3732829  
H    0.0142656   -0.0084680   -8.4548052  
H    3.3432276   -2.7944518   -5.7515060  
H    2.1282169   -1.7702569   -3.8130854  
C    3.2798085    0.0005853   -1.4499648  
C    2.5571144    0.0005562   -2.5996554  
C    1.1637436    0.0001546   -2.2210360  
C    1.1336965   -0.0000201   -0.7459470  
N    2.4483513   -0.0001430   -0.3402717  
C    0.0000000    0.0000000    0.0000000  
C   -1.2757367   -0.0000188   -0.6964414  
O   -2.3524597   -0.0000640   -0.1142313  
C   -1.2676494   -0.0000875   -2.2584081  
O   -2.3355762   -0.0004102   -2.8557294  
C    0.0181562    0.0001757   -2.9516296  
H    2.9547357    0.0006072   -3.5989105  
H    4.3498550    0.0008609   -1.3200021  
H    2.7563627    0.0012824    0.6148063  
C    0.8175213    0.6860729    2.3021913  
C    0.0000000    0.0000000    1.4700000  
C   -0.8887526   -0.7456559    2.3478473  
C   -0.4549825   -0.3816753    3.7138435  
N    0.5448156    0.4573574    3.6934124  
C   -1.0945674   -0.9182058    4.8835240  
C   -2.1210866   -1.7789155    4.6970523  
O   -2.8083856   -2.3554314    5.6976972  
C   -2.5824069   -2.1655116    3.3310774  
O   -3.5227682   -2.9541547    3.2362962  
C   -1.9100805   -1.6015804    2.1470656  
H   -0.7567140   -0.6349833    5.8697035  
H   -3.4728268   -2.9124471    5.2533954  
H   -2.2742832   -1.9066565    1.1752040  
H    1.6189533    1.3585343    2.0405121  
