62

C    6.6962557   -0.0006581    0.9128047  
C    7.6449135   -0.0016132   -0.0834455  
C    6.9440360   -0.0023812   -1.3257700  
C    5.5585247   -0.0015567   -1.0219873  
N    5.4432387   -0.0024701    0.3459767  
C    4.5679461   -0.0016852   -2.0086700  
C    4.9836052   -0.0023570   -3.3260177  
O    4.0581870   -0.0021606   -4.3293193  
C    6.3614225   -0.0035602   -3.6491824  
O    6.6142423   -0.0045342   -5.0054359  
C    7.3392012   -0.0037073   -2.6763129  
H    8.7109488   -0.0028458    0.0667592  
H    4.5782209    0.0083752    0.8554934  
H    4.5542211   -0.0030156   -5.1583033  
H    7.5672642   -0.0052860   -5.1371678  
H    8.3866773   -0.0048227   -2.9542896  
H    6.8142880   -0.0002734    1.9828638  
C    3.1301152   -0.0010311   -1.7028251  
C    2.5367770   -0.0002766   -0.4864665  
C    1.1089905    0.0001028   -0.7656183  
C    1.0177873   -0.0004148   -2.2415130  
N    2.1993580   -0.0011610   -2.7963820  
C   -0.2459208   -0.0002877   -2.9257119  
C   -1.3675318   -0.0000605   -2.1698523  
O   -2.6129310    0.0000866   -2.6748492  
C   -1.3083584    0.0000911   -0.6783232  
O   -2.3693259    0.0004206   -0.0541692  
C    0.0000000    0.0000000    0.0000000  
H    3.0096019   -0.0001007    0.4807529  
H   -3.1967440    0.0002093   -1.8949035  
C    0.4920779   -0.6868678   -5.2544642  
C   -0.2963281   -0.0005339   -4.3948471  
C   -1.2145535    0.7451072   -5.2418312  
C   -0.8279315    0.3808332   -6.6218357  
N    0.1718593   -0.4583448   -6.6355552  
C   -1.5071728    0.9172630   -7.7689887  
C   -2.5265708    1.7781567   -7.5475753  
O   -3.2476960    2.3546073   -8.5241629  
C   -2.9407244    2.1650503   -6.1666509  
O   -3.8771697    2.9538492   -6.0398161  
C   -2.2282735    1.6012172   -5.0062931  
H   -1.2033753    0.6338251   -8.7661249  
H   -3.8964313    2.9117964   -8.0574346  
H   -2.5588923    1.9065103   -4.0225667  
H    1.3019156   -1.3594047   -5.0203046  
C    2.5311839    2.1237619    3.0120429  
C    1.9795631    1.6616747    1.8395852  
C    0.9223175    0.7739173    2.1983588  
C    0.8753926    0.7337535    3.6154372  
N    1.8668922    1.5631002    4.0777464  
C   -0.0496243   -0.0427881    4.3197917  
C   -0.9437528   -0.7922060    3.5801400  
O   -1.8685244   -1.5680278    4.2172520  
C   -0.9124520   -0.7656372    2.1655264  
O   -1.8671164   -1.5663939    1.5732860  
C    0.0000000    0.0000000    1.4700000  
H    2.3005065    1.9304404    0.8477417  
H    2.0679347    1.7444845    5.0445261  
H   -0.0904770   -0.0778569    5.3997470  
H   -2.3849669   -2.0011402    3.5251786  
H   -1.7775064   -1.4909735    0.6183591  
H    3.3468514    2.8078103    3.1724291  
