60

C   -6.4453444   -0.0017730    0.3535602  
C   -5.3488820   -0.0013041    1.1843652  
C   -5.8409505   -0.0010805    2.5231965  
C   -7.2572754   -0.0017206    2.4460751  
N   -7.5909540   -0.0001786    1.1144321  
C   -8.0763709   -0.0020100    3.5791565  
C   -7.4543614   -0.0019537    4.8125591  
O   -8.2064722   -0.0025779    5.9515691  
C   -6.0425148   -0.0009436    4.9100469  
O   -5.5749732   -0.0005972    6.2080261  
C   -5.2338328   -0.0003843    3.7926578  
H   -4.3208541   -0.0000380    0.8647563  
H   -8.5266261   -0.0107626    0.7505822  
H   -9.1564137   -0.0023536    3.5271175  
H   -7.5836345   -0.0021178    6.6900392  
H   -4.6131695    0.0000629    6.1848536  
H   -4.1552949    0.0005697    3.8986449  
C   -3.3460096   -0.0004265   -2.7913646  
C   -4.0050885   -0.0007133   -1.6040609  
C   -5.4169935   -0.0010569   -1.9063179  
C   -5.5272434   -0.0009753   -3.3775878  
N   -4.2366049   -0.0001893   -3.8541817  
C   -6.6998418   -0.0016248   -4.0607552  
C   -7.9358013   -0.0022338   -3.2959434  
O   -9.0426027   -0.0027797   -3.8187159  
C   -7.8427528   -0.0020788   -1.7367297  
O   -8.8766026   -0.0022807   -1.0821958  
C   -6.5211390   -0.0016361   -1.1144843  
H   -3.5536954   -0.0005046   -0.6279167  
H   -6.7586585   -0.0016816   -5.1403160  
H   -3.9810067   -0.0015043   -4.8246017  
C    0.0000000    0.0000000    0.0000000  
C    1.0662919   -0.0000103   -0.8334269  
C    0.4961869    0.0000064   -2.1718889  
C   -0.9663859   -0.0000850   -1.9540246  
N   -1.2632774   -0.0000084   -0.6828657  
C   -1.8985363   -0.0000518   -3.0477257  
C   -1.3925778    0.0004564   -4.3020545  
O   -2.1456384    0.0005409   -5.4151311  
C    0.0786230    0.0009323   -4.5544998  
O    0.4683758    0.0012588   -5.7221098  
C    1.0143164    0.0008442   -3.4159030  
H    2.1107195    0.0000633   -0.5721867  
H   -1.5042275    0.0009691   -6.1484418  
H    2.0724152    0.0013148   -3.6409744  
C    1.0965515   -0.0001358    2.2710304  
C    0.0000000    0.0000000    1.4700000  
C   -1.1546562   -0.0001469    2.3369512  
C   -0.6372014   -0.0003519    3.7186280  
N    0.7342871   -0.0007337    3.6095011  
C   -1.4147739   -0.0001353    4.8308716  
C   -2.8576048    0.0001048    4.6554461  
O   -3.6427778    0.0002493    5.5944904  
C   -3.4275839    0.0000726    3.2011665  
O   -4.6406829   -0.0000333    3.0410059  
C   -2.4891866    0.0001091    2.0816745  
H   -1.0150448   -0.0001615    5.8354244  
H   -2.8919121    0.0002919    1.0779135  
H    2.1388271   -0.0000662    1.9961646  
H    1.3735872    0.0006099    4.3830260  
