62

C    9.0750154   -0.0448928    0.9442121  
C    9.8544650   -0.0491032   -0.1893260  
C   11.2144628   -0.0623863    0.2405944  
C   11.2025818   -0.0660638    1.6589635  
N    9.8877711   -0.0532615    2.0535850  
C   12.3720953   -0.0788476    2.4250319  
C   13.5755234   -0.0883943    1.7469111  
O   14.7478750   -0.1013900    2.4457928  
C   13.6079594   -0.0845445    0.3320787  
O   14.8830002   -0.0947980   -0.1947104  
C   12.4545996   -0.0716614   -0.4243097  
H    9.4879238   -0.0422080   -1.2015477  
H    9.5672717   -0.0629987    3.0049875  
H   12.3698008   -0.0815691    3.5063227  
H   15.4568813   -0.1060183    1.7896263  
H   14.8156095   -0.0913864   -1.1544244  
H   12.5108576   -0.0688254   -1.5065782  
C    5.7554374   -0.0090721   -2.0505789  
C    6.9923857   -0.0221241   -1.4487024  
C    6.7698805   -0.0219076   -0.0397696  
C    5.3656331   -0.0086180    0.1598295  
N    4.7795901    0.0008674   -1.0815733  
C    4.7823664   -0.0050315    1.4304891  
C    5.6321562   -0.0153500    2.5194922  
O    5.1157427   -0.0127650    3.7829492  
C    7.0359719   -0.0282987    2.3407427  
O    7.7467977   -0.0370673    3.5231108  
C    7.6120769   -0.0315708    1.0874996  
H    7.9386730   -0.0296356   -1.9620031  
H    3.7128509    0.0052233    1.5893384  
H    5.8701764   -0.0209312    4.3862960  
H    8.6857218   -0.0455984    3.3134631  
H    5.4920798   -0.0046209   -3.0944090  
C    3.3321168    0.0004716   -1.3379341  
C    2.6974177    0.0000118   -2.5332316  
C    1.2800432   -0.0002116   -2.2052842  
C    1.2395033    0.0000644   -0.7271298  
N    2.4394059    0.0005460   -0.2131041  
C    0.0000000    0.0000000    0.0000000  
C   -1.1468704    0.0000635   -0.7169542  
O   -2.3742206    0.0000074   -0.1695488  
C   -1.1388774    0.0001608   -2.2096352  
O   -2.2206238    0.0000906   -2.7970409  
C    0.1454514    0.0001818   -2.9324241  
H    3.1367978   -0.0000649   -3.5160956  
H   -2.9844350    0.0001027   -0.9290164  
H    0.1083567    0.0003684   -4.0135594  
C    0.8400945    0.7047457    2.2710304  
C    0.0000000    0.0000000    1.4700000  
C   -0.8844236   -0.7423113    2.3369512  
C   -0.4878984   -0.4098547    3.7186280  
N    0.5629682    0.4714286    3.6095011  
C   -1.0836927   -0.9095027    4.8308716  
C   -2.1891196   -1.8367527    4.6554461  
O   -2.7906899   -2.3413415    5.5944904  
C   -2.6257283   -2.2031529    3.2011665  
O   -3.5549479   -2.9829990    3.0410059  
C   -1.9068976   -1.5999348    2.0816745  
H   -0.7774656   -0.6525820    5.8354244  
H   -2.2155208   -1.8586617    1.0779135  
H    1.6384792    1.3747609    1.9961646  
H    1.0518368    0.8833920    4.3830260  
