62

C    0.6675599   -0.7200189   -5.1594013  
C   -0.1496426   -0.0015617   -4.3176960  
C   -1.0591328    0.7259461   -5.1412001  
C   -0.7463754    0.4086505   -6.4878378  
N    0.3079380   -0.4702285   -6.4630981  
C   -1.4437241    0.9473687   -7.5733226  
C   -2.4757934    1.8220988   -7.2942917  
O   -3.1898683    2.3769422   -8.3166711  
C   -2.8026938    2.1513147   -5.9572915  
O   -3.8548535    3.0364713   -5.8441467  
C   -2.1149953    1.6204442   -4.8859502  
H    0.7413906   -0.8795062   -7.2709297  
H   -1.2101819    0.7096716   -8.6019917  
H   -3.8527242    2.9486458   -7.9079640  
H   -4.0107587    3.2057906   -4.9100012  
H   -2.3881064    1.8914032   -3.8728017  
H    1.4794294   -1.3897680   -4.9329880  
C    3.3003539    0.0005272   -1.4738994  
C    2.5232807    0.0003493   -2.6090753  
C    1.1623195   -0.0001323   -2.1820106  
C    1.1711880    0.0000582   -0.7636143  
N    2.4852298   -0.0014922   -0.3662365  
C    0.0000000    0.0000000    0.0000000  
C   -1.2020387    0.0000519   -0.6806475  
O   -2.3759248    0.0003494    0.0157747  
C   -1.2314661   -0.0005114   -2.0955507  
O   -2.5054400   -0.0008040   -2.6250174  
C   -0.0764524   -0.0007276   -2.8495195  
H    2.8919944   -0.0005625   -3.6205309  
H    2.8036264    0.0088180    0.5858657  
H   -3.0835644    0.0000351   -0.6418811  
H   -2.4360058   -0.0011530   -3.5845915  
C    5.6692764    0.0013278   -2.3388906  
C    4.7630501    0.0004753   -1.3275413  
C    5.5107321   -0.0007727   -0.0923065  
C    6.9370630   -0.0005468   -0.4696258  
N    6.9650281    0.0003468   -1.8451644  
C    7.9663625   -0.0010903    0.4148217  
C    7.6481556   -0.0021817    1.8330170  
O    8.5043593   -0.0027983    2.7077827  
C    6.1443527   -0.0026910    2.2553709  
O    5.8642083   -0.0039159    3.4464954  
C    5.1238536   -0.0017450    1.2101764  
H    9.0057223   -0.0007814    0.1170954  
H    4.0849830   -0.0019001    1.5109630  
H    5.4995484    0.0023734   -3.4033535  
H    7.7983606    0.0022558   -2.4042718  
C    0.8175213    0.6860729    2.3021913  
C    0.0000000    0.0000000    1.4700000  
C   -0.8887526   -0.7456559    2.3478473  
C   -0.4549825   -0.3816753    3.7138435  
N    0.5448156    0.4573574    3.6934124  
C   -1.0945674   -0.9182058    4.8835240  
C   -2.1210866   -1.7789155    4.6970523  
O   -2.8083856   -2.3554314    5.6976972  
C   -2.5824069   -2.1655116    3.3310774  
O   -3.5227682   -2.9541547    3.2362962  
C   -1.9100805   -1.6015804    2.1470656  
H   -0.7567140   -0.6349833    5.8697035  
H   -3.4728268   -2.9124471    5.2533954  
H   -2.2742832   -1.9066565    1.1752040  
H    1.6189533    1.3585343    2.0405121  
