62

C    4.5587516    0.0005405   -6.6513177  
C    5.7450317   -0.6739360   -6.8253543  
C    6.2463084   -0.3099604   -8.1102052  
C    5.3156025    0.5971588   -8.6784022  
N    4.3021464    0.7622913   -7.7672199  
C    5.4886440    1.1640999   -9.9446658  
C    6.6220231    0.8090731  -10.6500642  
O    6.8406398    1.3334745  -11.8911216  
C    7.5620496   -0.0947206  -10.1002245  
O    8.6378305   -0.3484631  -10.9258488  
C    7.3918510   -0.6546177   -8.8511964  
H    6.1933221   -1.3464950   -6.1142332  
H    3.5033281    1.3580818   -7.8893006  
H    4.7829365    1.8559726  -10.3834049  
H    7.6753924    0.9597892  -12.2022681  
H    9.2241171   -0.9673652  -10.4799429  
H    8.1289009   -1.3440487   -8.4563291  
C    4.5939379   -2.1037475   -2.7696727  
C    4.8996522   -1.6376004   -4.0079461  
C    3.8355764   -0.7416514   -4.3950537  
C    2.8780295   -0.7238871   -3.2727447  
N    3.3957275   -1.5703488   -2.3196540  
C    1.7334695    0.0049281   -3.2500363  
C    1.4239149    0.8265210   -4.4083521  
O    0.4172712    1.5187838   -4.4841266  
C    2.4237222    0.8227861   -5.6084260  
O    2.1735668    1.5103253   -6.5892280  
C    3.6246412   -0.0037449   -5.5162755  
H    5.7710263   -1.8924546   -4.5844616  
H    5.1430573   -2.7922317   -2.1481040  
H    2.9698478   -1.7683918   -1.4328324  
C    1.1319246    0.0015678   -0.8009268  
C    0.7969914    0.0034958   -2.1169401  
C   -0.6453340    0.0035696   -2.1842669  
C   -1.1266832    0.0015410   -0.7896025  
N    0.0000000    0.0000000    0.0000000  
C   -2.4346129    0.0013913   -0.4276292  
C   -3.4350111    0.0031335   -1.4820181  
O   -4.6384614    0.0030875   -1.2583914  
C   -2.9478961    0.0050442   -2.9661074  
O   -3.7809382    0.0062135   -3.8623773  
C   -1.5113825    0.0053055   -3.2312122  
H   -2.7664565    0.0000174    0.6013448  
H   -1.1823533    0.0068381   -4.2614848  
H    2.1104316    0.0009435   -0.3488059  
C    2.5311839    2.1237619    3.0120429  
C    1.9795631    1.6616747    1.8395852  
C    0.9223175    0.7739173    2.1983588  
C    0.8753926    0.7337535    3.6154372  
N    1.8668922    1.5631002    4.0777464  
C   -0.0496243   -0.0427881    4.3197917  
C   -0.9437528   -0.7922060    3.5801400  
O   -1.8685244   -1.5680278    4.2172520  
C   -0.9124520   -0.7656372    2.1655264  
O   -1.8671164   -1.5663939    1.5732860  
C    0.0000000    0.0000000    1.4700000  
H    2.3005065    1.9304404    0.8477417  
H    2.0679347    1.7444845    5.0445261  
H   -0.0904770   -0.0778569    5.3997470  
H   -2.3849669   -2.0011402    3.5251786  
H   -1.7775064   -1.4909735    0.6183591  
H    3.3468514    2.8078103    3.1724291  
