64

C    9.8743616    0.7156571   -0.2878261  
C    9.2343996   -0.0017087    0.6961974  
C   10.2385074   -0.7302608    1.4001706  
C   11.4823711   -0.4146976    0.7958962  
N   11.2250641    0.4641985   -0.2268211  
C   12.6950047   -0.9547994    1.2347599  
C   12.6511991   -1.8291570    2.3032906  
O   13.8060016   -2.3853025    2.7724903  
C   11.4198590   -2.1566525    2.9192160  
O   11.5422432   -3.0416495    3.9704758  
C   10.2231506   -1.6244168    2.4866210  
H   11.9168887    0.8724334   -0.8290704  
H   13.6463530   -0.7184257    0.7784008  
H   13.5540950   -2.9564724    3.5097639  
H   10.6658869   -3.2097679    4.3301141  
H    9.2956844   -1.8940717    2.9781203  
H    9.4740368    1.3856854   -1.0292846  
C    5.7628302    0.0000245   -2.0437088  
C    4.7795901    0.0008674   -1.0815733  
C    5.4361690    0.0004501    0.1847223  
C    6.8315417   -0.0003741   -0.0699539  
N    6.9950519   -0.0025644   -1.4329936  
C    7.7866665   -0.0006597    0.9510872  
C    7.3247562    0.0002039    2.2529380  
O    8.2141754    0.0003228    3.2882870  
C    5.9363881    0.0006582    2.5272563  
O    5.6358413    0.0010892    3.8737390  
C    4.9935669    0.0006671    1.5204720  
H    7.8775299    0.0069799   -1.9116607  
H    7.6891811    0.0006695    4.0992409  
H    4.6787629    0.0014063    3.9717414  
H    3.9369291    0.0008392    1.7612932  
H    5.6826514   -0.0003807   -3.1172687  
C    3.3321168    0.0004716   -1.3379341  
C    2.6974177    0.0000118   -2.5332316  
C    1.2800432   -0.0002116   -2.2052842  
C    1.2395033    0.0000644   -0.7271298  
N    2.4394059    0.0005460   -0.2131041  
C    0.0000000    0.0000000    0.0000000  
C   -1.1468704    0.0000635   -0.7169542  
O   -2.3742206    0.0000074   -0.1695488  
C   -1.1388774    0.0001608   -2.2096352  
O   -2.2206238    0.0000906   -2.7970409  
C    0.1454514    0.0001818   -2.9324241  
H    3.1367978   -0.0000649   -3.5160956  
H   -2.9844350    0.0001027   -0.9290164  
H    0.1083567    0.0003684   -4.0135594  
C    2.5311839    2.1237619    3.0120429  
C    1.9795631    1.6616747    1.8395852  
C    0.9223175    0.7739173    2.1983588  
C    0.8753926    0.7337535    3.6154372  
N    1.8668922    1.5631002    4.0777464  
C   -0.0496243   -0.0427881    4.3197917  
C   -0.9437528   -0.7922060    3.5801400  
O   -1.8685244   -1.5680278    4.2172520  
C   -0.9124520   -0.7656372    2.1655264  
O   -1.8671164   -1.5663939    1.5732860  
C    0.0000000    0.0000000    1.4700000  
H    2.3005065    1.9304404    0.8477417  
H    2.0679347    1.7444845    5.0445261  
H   -0.0904770   -0.0778569    5.3997470  
H   -2.3849669   -2.0011402    3.5251786  
H   -1.7775064   -1.4909735    0.6183591  
H    3.3468514    2.8078103    3.1724291  
