62

C    1.1243403    0.0100029   -0.7919009  
C    0.7474064    0.0234619   -2.1148552  
C   -0.6787394    0.0234431   -2.1414700  
C   -1.1201752    0.0098490   -0.7935546  
N    0.0000000    0.0000000    0.0000000  
C   -2.4730820    0.0063480   -0.4408229  
C   -3.3971966    0.0170669   -1.4675046  
O   -4.7313529    0.0145821   -1.1793447  
C   -2.9763667    0.0303235   -2.8186309  
O   -4.0166495    0.0394751   -3.7247606  
C   -1.6418583    0.0335116   -3.1673474  
H    1.4178696    0.0311112   -2.9571216  
H   -2.8160166   -0.0041375    0.5845978  
H   -5.1938831    0.0230387   -2.0274364  
H   -3.6464704    0.0481967   -4.6127325  
H    2.1062461    0.0053017   -0.3505415  
C    1.5662356   -2.0369162   -5.3849803  
C    0.7247490   -1.5841809   -4.4200930  
C   -0.2036066   -0.6824642   -5.0603260  
C    0.1686564   -0.6467444   -6.4875381  
N    1.2488382   -1.4887384   -6.6184712  
C   -0.4698326    0.0914794   -7.4304386  
C   -1.5988986    0.9053202   -7.0116215  
O   -2.2390138    1.6051045   -7.7854791  
C   -2.0104680    0.8829708   -5.5049968  
O   -2.9592560    1.5643190   -5.1405433  
C   -1.2456357    0.0471620   -4.5828760  
H    0.7514465   -1.8512621   -3.3786672  
H   -0.1807858    0.1033808   -8.4721781  
H    2.3916716   -2.7247378   -5.2986885  
C    1.9550499   -1.7654723   -7.8776710  
C    3.0178100   -2.5796754   -8.0756427  
C    3.3066926   -2.4802015   -9.4980181  
C    2.2934281   -1.5376774  -10.0191010  
N    1.4983633   -1.1153037   -9.0738707  
C    2.2398330   -1.1689363  -11.4069924  
C    3.1570465   -1.7165710  -12.2365422  
O    3.2240417   -1.4618355  -13.5543671  
C    4.1925221   -2.6706298  -11.7408378  
O    4.9957752   -3.1304448  -12.5523643  
C    4.2267153   -3.0331450  -10.3127840  
H    3.5411446   -3.1742609   -7.3464892  
H    1.4884048   -0.4779919  -11.7603488  
H    3.9750421   -1.9949447  -13.8720865  
H    4.9924195   -3.7274042   -9.9935177  
C    0.8676693    0.7151171    2.2619005  
C    0.5875920    0.4624972    3.5848544  
C   -0.5048400   -0.4542819    3.6114698  
C   -0.8517165   -0.7276451    2.2635546  
N    0.0000000    0.0000000    1.4700000  
C   -1.8902865   -1.5946756    1.9108239  
C   -2.5912627   -2.1969500    2.9375057  
O   -3.6148162   -3.0527051    2.6493466  
C   -2.2603868   -1.9365747    4.2886322  
O   -3.0513550   -2.6123276    5.1947621  
C   -1.2361111   -1.0811317    4.6373480  
H    1.1060808    0.8876438    4.4271209  
H   -2.1597133   -1.8070987    0.8854031  
H   -3.9636755   -3.3565188    3.4974381  
H   -2.7621927   -2.3810384    6.0827341  
H   -1.0058879   -0.9010589    5.6809233  
H    1.6167816    1.3499334    1.8205408  
