62

C    3.3003546    0.0005277   -1.4738991  
C    2.5232814    0.0003500   -2.6090751  
C    1.1623200   -0.0001317   -2.1820105  
C    1.1711884    0.0000584   -0.7636149  
N    2.4852301   -0.0014918   -0.3662360  
C    0.0000000    0.0000000    0.0000000  
C   -1.2020381    0.0000520   -0.6806482  
O   -2.3759249    0.0003494    0.0157741  
C   -1.2314658   -0.0005112   -2.0955513  
O   -2.5054389   -0.0008037   -2.6250183  
C   -0.0764516   -0.0007271   -2.8495197  
H    2.8919954   -0.0005617   -3.6205304  
H    2.8036264    0.0088181    0.5858648  
H   -3.0835636    0.0000347   -0.6418825  
H   -2.4360049   -0.0011526   -3.5845926  
H    4.3715554    0.0004896   -1.3667140  
C   -0.1496415   -0.0015610   -4.3176962  
C    0.8605985   -0.0020141   -5.2251600  
C    0.2508223   -0.0027517   -6.5339793  
C   -1.2079382   -0.0026617   -6.3130523  
N   -1.3844307   -0.0023261   -4.9485967  
C   -2.1356001   -0.0028338   -7.3035813  
C   -1.6659557   -0.0033535   -8.6790695  
O   -2.4225831   -0.0036047   -9.6412625  
C   -0.1253096   -0.0037095   -8.9363927  
O    0.2819504   -0.0044544  -10.0902555  
C    0.7762281   -0.0032001   -7.7870096  
H    1.9128695   -0.0020326   -5.0030345  
H   -3.2010530   -0.0026332   -7.1199510  
H   -2.2733178   -0.0006339   -4.4828456  
C    3.1582157   -0.7077104   -7.3513421  
C    2.2241539   -0.0032620   -8.0408031  
C    2.9253725    0.7386643   -9.0619173  
C    4.3547696    0.4063057   -8.9097595  
N    4.4287353   -0.4745589   -7.8554843  
C    5.3474348    0.9056720   -9.6888322  
C    4.9837685    1.8324938  -10.7477389  
O    5.8048377    2.3368059  -11.5025996  
C    3.4759373    2.1987831  -10.9268563  
O    3.1577327    2.9782699  -11.8147786  
C    2.4973778    1.5958956  -10.0253024  
H    6.3897794    0.6488297   -9.5605362  
H    1.4553991    1.8545431  -10.1560965  
H    3.0253349   -1.3773994   -6.5172263  
H    5.2750583   -0.8863622   -7.5073419  
C    2.5311839    2.1237619    3.0120429  
C    1.9795631    1.6616747    1.8395852  
C    0.9223175    0.7739173    2.1983588  
C    0.8753926    0.7337535    3.6154372  
N    1.8668922    1.5631002    4.0777464  
C   -0.0496243   -0.0427881    4.3197917  
C   -0.9437528   -0.7922060    3.5801400  
O   -1.8685244   -1.5680278    4.2172520  
C   -0.9124520   -0.7656372    2.1655264  
O   -1.8671164   -1.5663939    1.5732860  
C    0.0000000    0.0000000    1.4700000  
H    2.3005065    1.9304404    0.8477417  
H    2.0679347    1.7444845    5.0445261  
H   -0.0904770   -0.0778569    5.3997470  
H   -2.3849669   -2.0011402    3.5251786  
H   -1.7775064   -1.4909735    0.6183591  
H    3.3468514    2.8078103    3.1724291  
