62

C    2.1808638   -3.0743700   -8.9598810  
C    1.8559635   -1.8420074   -8.4420106  
C    1.8380876   -0.9234346   -9.5331125  
C    2.1622401   -1.6589991  -10.7017857  
N    2.3661781   -2.9611714  -10.3178920  
C    2.2368745   -1.0719133  -11.9684938  
C    1.9792942    0.2823321  -12.0570916  
O    2.0380255    0.9060962  -13.2697245  
C    1.6545517    1.0333623  -10.9023997  
O    1.4256756    2.3702025  -11.1550200  
C    1.5810078    0.4548997   -9.6524004  
H    2.6004682   -3.7180867  -10.9344697  
H    2.4835537   -1.6269821  -12.8630609  
H    1.8281026    1.8353127  -13.1092486  
H    1.2130103    2.8048103  -10.3234587  
H    1.3300859    1.0557550   -8.7860921  
H    2.2964750   -4.0248638   -8.4677899  
C    2.2783847   -2.0910255   -5.9524496  
C    1.7853127   -1.6292412   -4.7744386  
C    0.6997749   -0.7327360   -5.0949402  
C    0.6001065   -0.7099363   -6.5667883  
N    1.5849250   -1.5536732   -7.0262771  
C   -0.3061445    0.0202236   -7.2648431  
C   -1.2459586    0.8383997   -6.5165965  
O   -2.1000523    1.5316272   -7.0534947  
C   -1.1584128    0.8296992   -4.9570889  
O   -1.9441938    1.5148019   -4.3164303  
C   -0.1387079    0.0017019   -4.3179684  
H    2.1415246   -1.8870540   -3.7929805  
H   -0.3624283    0.0226852   -8.3445354  
H    3.0901479   -2.7785183   -6.1264735  
C    3.3041273    0.0001178   -1.5420428  
C    2.5845373   -0.0004780   -0.3695851  
C    1.2040007   -0.0000007   -0.7283589  
C    1.1422374    0.0006038   -2.1454372  
N    2.4348641    0.0026111   -2.6077464  
C   -0.0655179    0.0008799   -2.8497918  
C   -1.2321766    0.0002325   -2.1101402  
O   -2.4392814    0.0001148   -2.7472522  
C   -1.1911209   -0.0000007   -0.6955266  
O   -2.4371528   -0.0002320   -0.1032862  
C    0.0000000    0.0000000    0.0000000  
H    3.0031533   -0.0000660    0.6222584  
H    2.7054631   -0.0071097   -3.5745261  
H   -3.1132988   -0.0000648   -2.0551787  
H   -2.3200282   -0.0004072    0.8516409  
H    4.3686625    0.0004073   -1.7024290  
C    2.5128556    2.1077716    2.9199648  
C    1.9592212    1.6432552    4.0696553  
C    0.8915788    0.7479214    3.6910360  
C    0.8684491    0.7287414    2.2159470  
N    1.8754542    1.5738793    1.8102719  
C    0.0000000    0.0000000    1.4700000  
C   -0.9772830   -0.8200135    2.1664417  
O   -1.8021297   -1.5120829    1.5842315  
C   -0.9711318   -0.8147624    3.7284083  
O   -1.7894187   -1.5009653    4.3257297  
C    0.0140216    0.0115358    4.4216297  
H    2.2638494    1.8988021    5.0689105  
H    0.0117648    0.0094386    5.5031631  
H    3.3327358    2.7953732    2.7900019  
H    2.1123206    1.7707734    0.8551938  
