64

C    3.7283956    0.8318349   -8.6130288  
C    4.8271693    0.0299350   -8.8182621  
C    5.1857978    0.1588525  -10.1928049  
C    4.2622948    1.0605073  -10.7810964  
N    3.3899186    1.4486081   -9.7947116  
C    4.3143581    1.4232172  -12.1303618  
C    5.3171413    0.8657881  -12.8996970  
O    5.4142364    1.1858270  -14.2230112  
C    6.2477602   -0.0360775  -12.3310108  
O    7.1859369   -0.5052795  -13.2271219  
C    6.1968342   -0.3945593  -11.0000616  
H    5.3100551   -0.5745323   -8.0696411  
H    2.6301819    2.0942110   -9.9129414  
H    3.6134086    2.1097668  -12.5848086  
H    6.1709407    0.6942529  -14.5680030  
H    7.7753350   -1.1075730  -12.7629488  
H    6.9233283   -1.0878979  -10.5926723  
C    4.1131419   -0.7164330   -4.4363686  
C    4.3031084   -0.4650141   -5.7754608  
C    3.2858793    0.4514279   -6.1754347  
C    2.4983379    0.7258327   -5.0280866  
N    3.0267438   -0.0008951   -3.9901699  
C    1.4017895    1.5928630   -5.0531650  
C    1.0948489    2.1940661   -6.2583700  
O    0.0345243    3.0497704   -6.3389623  
C    1.8684576    1.9326417   -7.4142266  
O    1.4356809    2.6073997   -8.5370582  
C    2.9502013    1.0771985   -7.3902826  
H    5.0787000   -0.8907247   -6.3888302  
H    0.7974643    1.8060768   -4.1822272  
H   -0.0027668    3.3527655   -7.2555144  
H    2.0114727    2.3754420   -9.2720839  
H    4.6657742   -1.3506598   -3.7645703  
C    3.3003547    0.0005277   -1.4738986  
C    2.5232816    0.0003497   -2.6090746  
C    1.1623203   -0.0001319   -2.1820102  
C    1.1711884    0.0000584   -0.7636141  
N    2.4852301   -0.0014919   -0.3662359  
C    0.0000000    0.0000000    0.0000000  
C   -1.2020383    0.0000520   -0.6806479  
O   -2.3759248    0.0003493    0.0157745  
C   -1.2314655   -0.0005115   -2.0955511  
O   -2.5054388   -0.0008040   -2.6250184  
C   -0.0764513   -0.0007274   -2.8495195  
H    2.8036266    0.0088183    0.5858662  
H   -3.0835639    0.0000346   -0.6418822  
H   -2.4360043   -0.0011529   -3.5845924  
H   -0.1304091   -0.0013423   -3.9319089  
H    4.3715553    0.0004897   -1.3667133  
C    0.8400945    0.7047457    2.2710304  
C    0.0000000    0.0000000    1.4700000  
C   -0.8844236   -0.7423113    2.3369512  
C   -0.4878984   -0.4098547    3.7186280  
N    0.5629682    0.4714286    3.6095011  
C   -1.0836927   -0.9095027    4.8308716  
C   -2.1891196   -1.8367527    4.6554461  
O   -2.7906899   -2.3413415    5.5944904  
C   -2.6257283   -2.2031529    3.2011665  
O   -3.5549479   -2.9829990    3.0410059  
C   -1.9068976   -1.5999348    2.0816745  
H   -0.7774656   -0.6525820    5.8354244  
H   -2.2155208   -1.8586617    1.0779135  
H    1.6384792    1.3747609    1.9961646  
H    1.0518368    0.8833920    4.3830260  
