60

C   -1.0832162    4.2768292    1.9847682  
C   -1.8110700    3.4721699    1.1390615  
C   -3.1788040    3.5906611    1.5261840  
C   -3.2246331    4.4890921    2.6228361  
N   -1.9350033    4.8853834    2.8766595  
C   -4.4169412    4.8419132    3.2621396  
C   -5.5842834    4.2777253    2.7855045  
O   -6.7767240    4.5880117    3.3727211  
C   -5.5589613    3.3789320    1.6926430  
O   -6.8035124    2.9021220    1.3361510  
C   -4.3830536    3.0302051    1.0616457  
H   -1.4059142    2.8726012    0.3419675  
H   -1.6566737    5.5309978    3.5933834  
H   -4.4585749    5.5259586    4.0985311  
H   -7.4540043    4.0930536    2.8935843  
H   -6.6975829    2.3025321    0.5912517  
H   -0.0237078    4.4636998    2.0232461  
C   -4.3991024    2.0926371   -0.0704360  
C   -3.3610094    1.6305294   -0.8140048  
C   -3.9159995    0.7341912   -1.8006147  
C   -5.3729687    0.7118414   -1.5692446  
N   -5.6007886    1.5556530   -0.5067146  
C   -6.2559171   -0.0180491   -2.2968195  
C   -5.7365712   -0.8363897   -3.3799324  
O   -6.4507762   -1.5294000   -4.0926375  
C   -4.1968640   -0.8281647   -3.6426858  
O   -3.7479703   -1.5134097   -4.5516380  
C   -3.3460097   -0.0004262   -2.7913647  
H   -2.3247247    1.8880235   -0.6858467  
H   -7.3209340   -0.0201819   -2.1106906  
H   -6.5015175    1.7527679   -0.1106336  
C    0.0000000    0.0000000    0.0000000  
C    1.0662919   -0.0000103   -0.8334272  
C    0.4961868    0.0000066   -2.1718889  
C   -0.9663860   -0.0000849   -1.9540248  
N   -1.2632775   -0.0000084   -0.6828659  
C   -1.8985364   -0.0000515   -3.0477258  
C   -1.3925778    0.0004567   -4.3020543  
O   -2.1456385    0.0005412   -5.4151314  
C    0.0786229    0.0009326   -4.5544999  
O    0.4683756    0.0012594   -5.7221104  
C    1.0143162    0.0008443   -3.4159034  
H    2.1107195    0.0000631   -0.5721869  
H   -1.5042277    0.0009692   -6.1484420  
H    2.0724151    0.0013151   -3.6409746  
C    0.0000000    0.0000000    1.4700000  
C    1.0662921    0.0000102    2.3034270  
C    0.4961870   -0.0000064    3.6418889  
C   -0.9663858    0.0000850    3.4240247  
N   -1.2632773    0.0000084    2.1528658  
C   -1.8985362    0.0000517    4.5177257  
C   -1.3925775   -0.0004564    5.7720543  
O   -2.1456383   -0.0005410    6.8851312  
C    0.0786232   -0.0009323    6.0245000  
O    0.4683759   -0.0012588    7.1921102  
C    1.0143166   -0.0008442    4.8859032  
H    2.1107198   -0.0000632    2.0421868  
H   -2.9622183    0.0003270    4.3293377  
H   -1.5042274   -0.0009692    7.6184419  
H    2.0724152   -0.0013148    5.1109744  
