64

C    9.8355500    0.6568330   -0.6265929  
C   11.1848291    0.3932149   -0.5774306  
C   11.3917180   -0.5199227    0.4986627  
C   10.1215412   -0.7798330    1.0740105  
N    9.1991383   -0.0480210    0.3681484  
C    9.9459056   -1.6399747    2.1621732  
C   11.0729975   -2.2490651    2.6787459  
O   10.9584702   -3.0985698    3.7409317  
C   12.3489872   -2.0021149    2.1186711  
O   13.3722365   -2.6832712    2.7450332  
C   12.5230359   -1.1534738    1.0453391  
H   11.9286257    0.8088829   -1.2354430  
H    8.9805424   -1.8421435    2.6053474  
H   11.8514408   -3.4088322    3.9399391  
H   14.1989689   -2.4610599    2.3060105  
H   13.5127701   -0.9836801    0.6378149  
H    9.2769713    1.2929879   -1.2916158  
C    5.6629606   -0.0084967   -2.3674579  
C    6.9418127   -0.0223572   -1.8606918  
C    6.8263037   -0.0236822   -0.4389830  
C    5.4411338   -0.0104562   -0.1339313  
N    4.7630507    0.0004755   -1.3275395  
C    4.9554551   -0.0082166    1.1771368  
C    5.8850280   -0.0198416    2.1988694  
O    5.4654672   -0.0186032    3.4977076  
C    7.2713413   -0.0327499    1.9146409  
O    8.0693949   -0.0429128    3.0399634  
C    7.7511932   -0.0346935    0.6214801  
H    7.8466485   -0.0294049   -2.4439721  
H    3.9009851    0.0019820    1.4162828  
H    6.2632936   -0.0275252    4.0423710  
H    8.9898116   -0.0513171    2.7600246  
H    5.3215560   -0.0028554   -3.3884233  
C    3.3003548    0.0005276   -1.4738982  
C    2.5232817    0.0003497   -2.6090743  
C    1.1623204   -0.0001319   -2.1820101  
C    1.1711886    0.0000583   -0.7636140  
N    2.4852302   -0.0014919   -0.3662356  
C    0.0000000    0.0000000    0.0000000  
C   -1.2020379    0.0000520   -0.6806479  
O   -2.3759249    0.0003495    0.0157742  
C   -1.2314652   -0.0005112   -2.0955511  
O   -2.5054384   -0.0008036   -2.6250184  
C   -0.0764510   -0.0007271   -2.8495195  
H    2.8919962   -0.0005619   -3.6205297  
H    2.8036267    0.0088181    0.5858667  
H   -3.0835636    0.0000348   -0.6418823  
H   -2.4360038   -0.0011526   -3.5845925  
H   -0.1304090   -0.0013420   -3.9319089  
C    0.8175213    0.6860729    2.3021913  
C    0.0000000    0.0000000    1.4700000  
C   -0.8887526   -0.7456559    2.3478473  
C   -0.4549825   -0.3816753    3.7138435  
N    0.5448156    0.4573574    3.6934124  
C   -1.0945674   -0.9182058    4.8835240  
C   -2.1210866   -1.7789155    4.6970523  
O   -2.8083856   -2.3554314    5.6976972  
C   -2.5824069   -2.1655116    3.3310774  
O   -3.5227682   -2.9541547    3.2362962  
C   -1.9100805   -1.6015804    2.1470656  
H   -0.7567140   -0.6349833    5.8697035  
H   -3.4728268   -2.9124471    5.2533954  
H   -2.2742832   -1.9066565    1.1752040  
H    1.6189533    1.3585343    2.0405121  
