64

C    0.6784432   -0.7158668   -5.1604799  
C   -0.1387079    0.0017021   -4.3179678  
C   -1.0481462    0.7302006   -5.1406538  
C   -0.7354113    0.4143970   -6.4876471  
N    0.3188392   -0.4645845   -6.4638953  
C   -1.4327211    0.9543855   -7.5725253  
C   -2.4647280    1.8288750   -7.2925111  
O   -3.1787633    2.3849189   -8.3142661  
C   -2.7916052    2.1566109   -5.9551419  
O   -3.8437009    3.0417144   -5.8410017  
C   -2.1039444    1.6244865   -4.8843976  
H    0.7522628   -0.8729846   -7.2721864  
H   -3.8415782    2.9562101   -7.9049164  
H   -3.9995947    3.2099947   -4.9066660  
H   -2.3770362    1.8943256   -3.8709453  
H    1.4902648   -1.3859278   -4.9348205  
C    3.3041273    0.0001182   -1.5420424  
C    2.5845375   -0.0004778   -0.3695843  
C    1.2040007   -0.0000007   -0.7283585  
C    1.1422375    0.0006039   -2.1454364  
N    2.4348642    0.0026113   -2.6077456  
C   -0.0655179    0.0008800   -2.8497912  
C   -1.2321766    0.0002325   -2.1101400  
O   -2.4392814    0.0001147   -2.7472515  
C   -1.1911210   -0.0000006   -0.6955257  
O   -2.4371527   -0.0002322   -0.1032861  
C    0.0000000    0.0000000    0.0000000  
H    3.0031533   -0.0000657    0.6222590  
H    2.7054634   -0.0071094   -3.5745252  
H   -3.1132988   -0.0000650   -2.0551786  
H   -2.3200282   -0.0004073    0.8516419  
H    4.3686625    0.0004079   -1.7024280  
C   -0.7718289   -0.6109020   -9.4485808  
C   -1.1152484    0.6327915   -8.9713424  
C   -1.0988917    1.5248902  -10.0842178  
C   -0.7357316    0.7622408  -11.2236946  
N   -0.5425064   -0.5298878  -10.8021674  
C   -0.6207022    1.3189450  -12.5010496  
C   -0.8772446    2.6700928  -12.6305219  
O   -0.7799266    3.2647259  -13.8552478  
C   -1.2405612    3.4478670  -11.5054057  
O   -1.4630423    4.7777461  -11.7974131  
C   -1.3539688    2.8993850  -10.2449167  
H   -0.2871286   -1.3008435  -11.3924125  
H   -0.3441752    0.7431383  -13.3735071  
H   -0.9963336    4.1970492  -13.7240769  
H   -1.7033425    5.2316920  -10.9839067  
H   -1.6338823    3.5202779   -9.4019346  
H   -0.6709269   -1.5490582   -8.9302748  
C    2.5528530    2.1414826    2.8079335  
C    2.0663498    1.7338582    4.0032312  
C    0.9804344    0.8229586    3.6752840  
C    0.9495562    0.7966882    2.1971295  
N    1.8690446    1.5676019    1.6831036  
C    0.0000000    0.0000000    1.4700000  
C   -0.8785127   -0.7372425    2.1869543  
O   -1.8187535   -1.5261249    1.6395491  
C   -0.8723269   -0.7321790    3.6796354  
O   -1.7010379   -1.4274584    4.2670412  
C    0.1115397    0.0933559    4.4024240  
H    2.4028853    2.0163452    4.9860947  
H   -2.2861435   -1.9184361    2.3990168  
H    0.0832434    0.0693689    5.4835595  
H    3.3664920    2.8238276    2.6198634  
