62

C    0.0180933    0.5684667   -9.3654999  
C    1.1059623   -0.2709197   -9.4321227  
C    1.5685319   -0.2467084  -10.7812125  
C    0.7167527    0.6326492  -11.4975426  
N   -0.2147368    1.1087535  -10.6085716  
C    0.8784446    0.8988483  -12.8605475  
C    1.9191422    0.2660447  -13.5122261  
O    2.1226061    0.4904655  -14.8431099  
C    2.7794553   -0.6150575  -12.8148471  
O    3.7675916   -1.1672481  -13.6035265  
C    2.6203688   -0.8783471  -11.4702662  
H    1.5150513   -0.8325360   -8.6097928  
H   -0.9451677    1.7618429  -10.8274923  
H    0.2325802    1.5679144  -13.4122844  
H    2.8885390   -0.0413267  -15.0957148  
H    4.3039114   -1.7490362  -13.0562719  
H    3.2949788   -1.5580617  -10.9629523  
C    0.0902054   -0.6999990   -5.1620326  
C   -0.9736297    0.0040464   -4.6965763  
C   -1.5078550    0.7471498   -5.8133736  
C   -0.6620036    0.4159214   -6.9759627  
N    0.2881867   -0.4654796   -6.5142698  
C   -0.8409755    0.9165753   -8.2245697  
C   -1.9398964    1.8436896   -8.4375675  
O   -2.1836151    2.3491293   -9.5254243  
C   -2.8482823    2.2087973   -7.2204661  
O   -3.7763822    2.9885178   -7.3875806  
C   -2.5561680    1.6045643   -5.9229974  
H   -3.1899797    1.8623995   -5.0854250  
H    0.7463586   -1.3702751   -4.6309184  
H    1.0125328   -0.8767605   -7.0739277  
C    1.1188642    0.0008222   -0.8003808  
C    0.0000000    0.0000000    0.0000000  
C   -1.1323862    0.0008899   -0.8673528  
C   -0.6382663    0.0019679   -2.1969280  
N    0.7324016    0.0038481   -2.1202242  
C   -1.4770914    0.0027318   -3.3154808  
C   -2.8395473    0.0020945   -3.0876857  
O   -3.7039201    0.0024425   -4.1440349  
C   -3.3517868    0.0013931   -1.7684331  
O   -4.7300497    0.0012366   -1.7073121  
C   -2.5248543    0.0009123   -0.6644817  
H    1.3576314   -0.0056167   -2.9057046  
H   -4.5940032    0.0021826   -3.7685128  
H   -4.9934602    0.0007259   -0.7819913  
H   -2.9462577    0.0005603    0.3339659  
H    2.1619895    0.0009355   -0.5342068  
C    2.5528530    2.1414826    2.8079335  
C    2.0663498    1.7338582    4.0032312  
C    0.9804344    0.8229586    3.6752840  
C    0.9495562    0.7966882    2.1971295  
N    1.8690446    1.5676019    1.6831036  
C    0.0000000    0.0000000    1.4700000  
C   -0.8785127   -0.7372425    2.1869543  
O   -1.8187535   -1.5261249    1.6395491  
C   -0.8723269   -0.7321790    3.6796354  
O   -1.7010379   -1.4274584    4.2670412  
C    0.1115397    0.0933559    4.4024240  
H    2.4028853    2.0163452    4.9860947  
H   -2.2861435   -1.9184361    2.3990168  
H    0.0832434    0.0693689    5.4835595  
H    3.3664920    2.8238276    2.6198634  
