60

C    2.7815116   -3.0383984   -4.7439604  
C    3.8023441   -3.6832030   -5.4031991  
C    4.4858544   -4.4781955   -4.4360381  
C    3.8313799   -4.2765140   -3.1938965  
N    2.8023824   -3.3953478   -3.4159919  
C    4.2382275   -4.9061185   -2.0137004  
C    5.3253814   -5.7550130   -2.0888678  
O    5.7644793   -6.3958809   -0.9665951  
C    5.9917576   -5.9688333   -3.3189249  
O    7.0564216   -6.8417082   -3.2299295  
C    5.5911078   -5.3478388   -4.4835591  
H    4.0274323   -3.5909666   -6.4519225  
H    2.1551518   -3.0716068   -2.7201003  
H    3.7437504   -4.7565032   -1.0638001  
H    6.5222055   -6.9309152   -1.2365121  
H    7.4506286   -6.9306214   -4.1030268  
H    6.1212911   -5.5310108   -5.4108309  
C    1.7704311   -2.0997828   -5.2515196  
C    1.5928577   -1.6333161   -6.5144339  
C    0.4607450   -0.7379004   -6.4771953  
C   -0.0100427   -0.7207974   -5.0790333  
N    0.8257125   -1.5670937   -4.3875237  
C   -1.0641734    0.0073898   -4.6315339  
C   -1.7831605    0.8289565   -5.5910241  
O   -2.7459477    1.5206786   -5.2862916  
C   -1.3021146    0.8259153   -7.0770899  
O   -1.8998129    1.5134388   -7.8939917  
C   -0.1528633    0.0000288   -7.4390073  
H    2.1870125   -1.8876235   -7.3740392  
H    0.1740146    0.0036602   -8.4699587  
H    0.7607707   -1.7654786   -3.4059568  
C    1.1319248    0.0015675   -0.8009270  
C    0.7969916    0.0034959   -2.1169404  
C   -0.6453336    0.0035703   -2.1842672  
C   -1.1266831    0.0015415   -0.7896027  
N    0.0000000    0.0000000    0.0000000  
C   -2.4346129    0.0013924   -0.4276297  
C   -3.4350110    0.0031352   -1.4820184  
O   -4.6384610    0.0030897   -1.2583919  
C   -2.9478958    0.0050460   -2.9661075  
O   -3.7809377    0.0062160   -3.8623775  
C   -1.5113821    0.0053068   -3.2312125  
H    1.4821240    0.0045436   -2.9459192  
H   -2.7664565    0.0000185    0.6013447  
H    2.1104318    0.0009428   -0.3488058  
C    2.4951002    2.0940188    2.9809380  
C    1.9440701    1.6314916    1.8291961  
C    0.8759964    0.7350050    2.2038498  
C    0.8497377    0.7130254    3.6788474  
N    1.8560616    1.5571714    4.0882609  
C   -0.0205033   -0.0168748    4.4215661  
C   -0.9962600   -0.8356168    3.7214979  
O   -1.8224391   -1.5286685    4.3006425  
C   -0.9864710   -0.8277881    2.1595606  
O   -1.8030528   -1.5133726    1.5592035  
C    0.0000000    0.0000000    1.4700000  
H    2.2509283    1.8888011    0.8310761  
H   -0.0229599   -0.0187323    5.5027230  
H    3.3143982    2.7817323    3.1139444  
H    2.0889452    1.7545833    5.0442112  
