62

C   -6.9358347    5.6336454    1.3137767  
C   -6.1829523    4.6487524    0.7174369  
C   -6.9403822    3.4424394    0.7929977  
C   -8.1571627    3.7555335    1.4512859  
N   -8.1210239    5.0937188    1.7555417  
C   -9.1496112    2.8025653    1.6996519  
C   -8.9094802    1.5100489    1.2754880  
O   -9.8450966    0.5401533    1.4921432  
C   -7.7014445    1.1780196    0.6172925  
O   -7.6117630   -0.1507070    0.2570337  
C   -6.7218118    2.1175760    0.3721797  
H   -5.2073221    4.7829890    0.2825581  
H   -8.8524399    5.6040001    2.2166538  
H  -10.0790874    3.0347706    2.2010069  
H   -9.4827041   -0.2760041    1.1236003  
H   -6.7668464   -0.2906282   -0.1813069  
H   -6.7205712    6.6782378    1.4602237  
C   -4.2186866    2.1401319   -0.0437262  
C   -5.4804250    1.7323141   -0.3144295  
C   -5.3466897    0.8217461   -1.4411419  
C   -3.8965662    0.7958597   -1.7293373  
N   -3.2302259    1.5666944   -0.9133753  
C   -3.3460097   -0.0004262   -2.7913647  
C   -4.2050297   -0.7376508   -3.5315800  
O   -3.8298204   -1.5261789   -4.5530898  
C   -5.6737587   -0.7329691   -3.2651710  
O   -6.3965398   -1.4282086   -3.9789291  
C   -6.2140638    0.0921568   -2.1701081  
H   -4.6590777   -1.9185767   -4.8809755  
H   -7.2835616    0.0679006   -2.0094323  
H   -3.8917478    2.8223391    0.7248296  
C    0.0000000    0.0000000    0.0000000  
C    1.0662919   -0.0000103   -0.8334272  
C    0.4961868    0.0000066   -2.1718889  
C   -0.9663860   -0.0000849   -1.9540248  
N   -1.2632775   -0.0000084   -0.6828659  
C   -1.8985364   -0.0000515   -3.0477258  
C   -1.3925778    0.0004567   -4.3020543  
O   -2.1456385    0.0005412   -5.4151314  
C    0.0786229    0.0009326   -4.5544999  
O    0.4683756    0.0012594   -5.7221104  
C    1.0143162    0.0008443   -3.4159034  
H    2.1107195    0.0000631   -0.5721869  
H   -1.5042277    0.0009692   -6.1484420  
H    2.0724151    0.0013151   -3.6409746  
C    3.3003543   -0.0005276    2.9438989  
C    2.5232812   -0.0003497    4.0790748  
C    1.1623199    0.0001319    3.6520102  
C    1.1711883   -0.0000583    2.2336141  
N    2.4852299    0.0014920    1.8362361  
C    0.0000000    0.0000000    1.4700000  
C   -1.2020384   -0.0000520    2.1506477  
O   -2.3759250   -0.0003494    1.4542253  
C   -1.2314658    0.0005113    3.5655508  
O   -2.5054393    0.0008037    4.0950179  
C   -0.0764518    0.0007272    4.3195194  
H    2.8919952    0.0005619    5.0905303  
H    2.8036267   -0.0088181    0.8841339  
H   -3.0835639   -0.0000348    2.1118817  
H   -2.4360050    0.0011527    5.0545920  
H   -0.1304098    0.0013421    5.4019087  
H    4.3715549   -0.0004895    2.8367138  
