62

C    6.1969058   -0.7293555   -3.4052262  
C    5.9544420   -0.0109645   -4.5530911  
C    7.1462195    0.7144428   -4.8498249  
C    8.0897020    0.3959928   -3.8396978  
N    7.4802880   -0.4815218   -2.9776075  
C    9.3805227    0.9325777   -3.8142265  
C    9.7252824    1.8063213   -4.8270895  
O   10.9730454    2.3590829   -4.8506738  
C    8.7977019    2.1366625   -5.8435959  
O    9.2914252    3.0206163   -6.7807230  
C    7.5240160    1.6078969   -5.8692043  
H    7.9089429   -0.8911805   -2.1674124  
H   10.1042280    0.6939920   -3.0470696  
H   11.0039096    2.9304172   -5.6290621  
H    8.6028444    3.1908137   -7.4307173  
H    6.8353001    1.8796765   -6.6605855  
H    5.5554450   -1.3978153   -2.8569123  
C    1.6707638   -0.0012342   -3.2725973  
C    3.0463717   -0.0037028   -3.2854242  
C    3.4499898   -0.0054153   -4.6535212  
C    2.2671975   -0.0035803   -5.4364169  
N    1.2050910   -0.0030098   -4.5666199  
C    2.2856097   -0.0042417   -6.8344325  
C    3.5205419   -0.0064951   -7.4533967  
O    3.5962550   -0.0068815   -8.8162170  
C    4.7118875   -0.0087248   -6.6895196  
O    5.8613553   -0.0112397   -7.4524495  
C    4.6944760   -0.0083472   -5.3103087  
H    3.6808651   -0.0053125   -2.4157067  
H    0.2370775    0.0087997   -4.8326878  
H    1.3876895   -0.0029966   -7.4368771  
H    4.5366398   -0.0088488   -9.0374357  
H    6.6195103   -0.0126057   -6.8601634  
C    1.0965515    0.0001359   -0.8010305  
C    0.0000000    0.0000000    0.0000000  
C   -1.1546564    0.0001470   -0.8669509  
C   -0.6372018    0.0003521   -2.2486279  
N    0.7342868    0.0007339   -2.1395011  
C   -1.4147743    0.0001355   -3.3608714  
C   -2.8576049   -0.0001046   -3.1854455  
O   -3.6427782   -0.0002491   -4.1244898  
C   -3.4275842   -0.0000725   -1.7311664  
O   -4.6406831    0.0000334   -1.5710053  
C   -2.4891868   -0.0001091   -0.6116742  
H   -1.0150456    0.0001619   -4.3654242  
H   -2.8919123   -0.0002920    0.3920869  
H    2.1388270    0.0000663   -0.5261648  
C    2.5128556    2.1077716    2.9199648  
C    1.9592212    1.6432552    4.0696553  
C    0.8915788    0.7479214    3.6910360  
C    0.8684491    0.7287414    2.2159470  
N    1.8754542    1.5738793    1.8102719  
C    0.0000000    0.0000000    1.4700000  
C   -0.9772830   -0.8200135    2.1664417  
O   -1.8021297   -1.5120829    1.5842315  
C   -0.9711318   -0.8147624    3.7284083  
O   -1.7894187   -1.5009653    4.3257297  
C    0.0140216    0.0115358    4.4216297  
H    2.2638494    1.8988021    5.0689105  
H    0.0117648    0.0094386    5.5031631  
H    3.3327358    2.7953732    2.7900019  
H    2.1123206    1.7707734    0.8551938  
