64

C    5.0533580   -2.4171681   -4.7820505  
C    6.2992310   -2.6404019   -5.3209692  
C    6.7162354   -1.4179154   -5.9261416  
C    5.6750547   -0.4763941   -5.7226578  
N    4.6798623   -1.1163603   -5.0264875  
C    5.7446085    0.8403476   -6.1875689  
C    6.8861513    1.2135119   -6.8700694  
O    7.0064020    2.4873234   -7.3454180  
C    7.9356387    0.2883781   -7.0834252  
O    9.0051060    0.8119858   -7.7801443  
C    7.8675874   -1.0108575   -6.6252963  
H    6.8403981   -3.5703131   -5.2835792  
H    4.9544387    1.5627198   -6.0358722  
H    7.8660576    2.5352430   -7.7835520  
H    9.6689707    0.1230125   -7.8811546  
H    8.6872100   -1.6969713   -6.8040280  
H    4.4009968   -3.0833260   -4.2438894  
C    2.7995515   -0.7227058   -3.3688293  
C    1.6478437   -0.0100096   -3.2702997  
C    1.5004231    0.7245491   -4.5046115  
C    2.6690165    0.3788788   -5.3362923  
N    3.4177244   -0.5018748   -4.5902369  
C    2.8986522    0.8683245   -6.5810469  
C    1.9303400    1.7977535   -7.1387824  
O    2.0476279    2.2937754   -8.2516643  
C    0.6853852    2.1780709   -6.2755031  
O   -0.1364814    2.9598682   -6.7344027  
C    0.5468489    1.5850649   -4.9477216  
H    3.7622164    0.6017885   -7.1744480  
H   -0.3180857    1.8534007   -4.3564451  
H    3.2488297   -1.3905090   -2.6518373  
C    1.1188642    0.0008224   -0.8003808  
C    0.0000000    0.0000000    0.0000000  
C   -1.1323861    0.0008899   -0.8673529  
C   -0.6382661    0.0019681   -2.1969282  
N    0.7324017    0.0038483   -2.1202240  
C   -1.4770912    0.0027320   -3.3154810  
C   -2.8395474    0.0020946   -3.0876860  
O   -3.7039199    0.0024426   -4.1440353  
C   -3.3517867    0.0013927   -1.7684331  
O   -4.7300496    0.0012363   -1.7073125  
C   -2.5248543    0.0009121   -0.6644818  
H   -1.1067568    0.0036992   -4.3313814  
H   -4.5940031    0.0021828   -3.7685133  
H   -4.9934602    0.0007260   -0.7819919  
H   -2.9462579    0.0005600    0.3339656  
H    2.1619896    0.0009357   -0.5342065  
C    2.5311839    2.1237619    3.0120429  
C    1.9795631    1.6616747    1.8395852  
C    0.9223175    0.7739173    2.1983588  
C    0.8753926    0.7337535    3.6154372  
N    1.8668922    1.5631002    4.0777464  
C   -0.0496243   -0.0427881    4.3197917  
C   -0.9437528   -0.7922060    3.5801400  
O   -1.8685244   -1.5680278    4.2172520  
C   -0.9124520   -0.7656372    2.1655264  
O   -1.8671164   -1.5663939    1.5732860  
C    0.0000000    0.0000000    1.4700000  
H    2.3005065    1.9304404    0.8477417  
H    2.0679347    1.7444845    5.0445261  
H   -0.0904770   -0.0778569    5.3997470  
H   -2.3849669   -2.0011402    3.5251786  
H   -1.7775064   -1.4909735    0.6183591  
H    3.3468514    2.8078103    3.1724291  
