62

C    1.1243404    0.0100102   -0.7919008  
C    0.7474062    0.0234664   -2.1148548  
C   -0.6787397    0.0234382   -2.1414696  
C   -1.1201750    0.0098415   -0.7935544  
N    0.0000000    0.0000000    0.0000000  
C   -2.4730824    0.0063316   -0.4408228  
C   -3.3971968    0.0170440   -1.4675051  
O   -4.7313529    0.0145507   -1.1793449  
C   -2.9763668    0.0303033   -2.8186311  
O   -4.0166497    0.0394476   -3.7247605  
C   -1.6418585    0.0335001   -3.1673474  
H   -2.8160164   -0.0041558    0.5845979  
H   -5.1938827    0.0230039   -2.0274362  
H   -3.6464700    0.0481712   -4.6127325  
H   -1.3497497    0.0435655   -4.2109228  
H    2.1062463    0.0053155   -0.3505418  
C    4.5318044   -2.0779042   -2.8537116  
C    4.8146796   -1.6020512   -4.0937200  
C    3.7436260   -0.7033090   -4.4541943  
C    2.8068744   -0.6944835   -3.3143654  
N    3.3420462   -1.5482590   -2.3775902  
C    1.6628930    0.0339167   -3.2649307  
C    1.3320574    0.8644651   -4.4109116  
O    0.3241595    1.5571084   -4.4627602  
C    2.3096316    0.8702832   -5.6291564  
O    2.0414545    1.5654080   -6.5997972  
C    3.5120792    0.0432844   -5.5655548  
H    5.6753183   -1.8522348   -4.6881295  
H    5.0922892   -2.7711139   -2.2477362  
H    2.9325526   -1.7532965   -1.4846616  
C    5.8106368   -3.1406387   -7.5843904  
C    4.9965656   -2.4418996   -6.7518479  
C    5.0380014   -1.0639284   -7.1811652  
C    5.9494559   -1.0168169   -8.3403984  
N    6.3842379   -2.3078248   -8.5331485  
C    6.2546734    0.1094763   -9.0332264  
C    5.6449542    1.3587045   -8.6087201  
O    5.8565265    2.4269122   -9.1677095  
C    4.6767123    1.3322506   -7.3833167  
O    4.1576575    2.3778689   -7.0165387  
C    4.4251627    0.0566028   -6.7175104  
H    4.4316692   -2.8456678   -5.9305825  
H    6.9256866    0.1222775   -9.8808637  
H    6.0399603   -4.1938720   -7.5845248  
H    7.0187524   -2.6003576   -9.2534706  
C    0.8676693    0.7151171    2.2619005  
C    0.5875920    0.4624972    3.5848544  
C   -0.5048400   -0.4542819    3.6114698  
C   -0.8517165   -0.7276451    2.2635546  
N    0.0000000    0.0000000    1.4700000  
C   -1.8902865   -1.5946756    1.9108239  
C   -2.5912627   -2.1969500    2.9375057  
O   -3.6148162   -3.0527051    2.6493466  
C   -2.2603868   -1.9365747    4.2886322  
O   -3.0513550   -2.6123276    5.1947621  
C   -1.2361111   -1.0811317    4.6373480  
H    1.1060808    0.8876438    4.4271209  
H   -2.1597133   -1.8070987    0.8854031  
H   -3.9636755   -3.3565188    3.4974381  
H   -2.7621927   -2.3810384    6.0827341  
H   -1.0058879   -0.9010589    5.6809233  
H    1.6167816    1.3499334    1.8205408  
