60

C    5.5752917   -2.9253130   -8.5101335  
C    6.2950328   -2.4570004   -9.5848994  
C    6.0149476   -1.0629526   -9.6979603  
C    5.1104366   -0.7343087   -8.6559522  
N    4.8628457   -1.8883070   -7.9548067  
C    4.6170335    0.5595433   -8.4628486  
C    5.0447525    1.5395448   -9.3373951  
O    4.5944659    2.8200663   -9.1941441  
C    5.9466373    1.2311825  -10.3834985  
O    6.2772755    2.3153616  -11.1699949  
C    6.4335901   -0.0450708  -10.5747601  
H    6.9414568   -3.0477330  -10.2111305  
H    4.2652126   -1.9623979   -7.1514852  
H    5.0098956    3.3358656   -9.8974457  
H    6.8894311    2.0213336  -11.8514755  
H    7.1232138   -0.2511346  -11.3849672  
H    5.5126548   -3.9173004   -8.0966172  
C    4.3913908   -0.7046356   -4.2635301  
C    3.2973506   -0.0000934   -3.8752374  
C    2.8435635    0.7418820   -5.0277935  
C    3.7695332    0.4094498   -6.1272747  
N    4.6845877   -0.4715001   -5.5986045  
C    3.6794138    0.9088337   -7.3859249  
C    2.5984069    1.8357536   -7.6770941  
O    2.4323277    2.3400889   -8.7799838  
C    1.6062052    2.2021221   -6.5276973  
O    0.6923303    2.9816918   -6.7608615  
C    1.8057158    1.5992067   -5.2121969  
H    1.1142471    1.8579096   -4.4218379  
H    5.0082528   -1.3743838   -3.6866343  
H    5.4466834   -0.8833671   -6.1051831  
C    3.3321174    0.0004714   -1.3379332  
C    2.6974186    0.0000115   -2.5332308  
C    1.2800441   -0.0002119   -2.2052838  
C    1.2395035    0.0000643   -0.7271293  
N    2.4394063    0.0005458   -0.2131034  
C    0.0000000    0.0000000    0.0000000  
C   -1.1468701    0.0000634   -0.7169542  
O   -2.3742201    0.0000072   -0.1695492  
C   -1.1388767    0.0001606   -2.2096354  
O   -2.2206229    0.0000903   -2.7970413  
C    0.1454526    0.0001815   -2.9324239  
H   -2.9844344    0.0001023   -0.9290168  
H    0.1083580    0.0003680   -4.0135594  
H    4.3940040    0.0007617   -1.1498630  
C    2.5128556    2.1077716    2.9199648  
C    1.9592212    1.6432552    4.0696553  
C    0.8915788    0.7479214    3.6910360  
C    0.8684491    0.7287414    2.2159470  
N    1.8754542    1.5738793    1.8102719  
C    0.0000000    0.0000000    1.4700000  
C   -0.9772830   -0.8200135    2.1664417  
O   -1.8021297   -1.5120829    1.5842315  
C   -0.9711318   -0.8147624    3.7284083  
O   -1.7894187   -1.5009653    4.3257297  
C    0.0140216    0.0115358    4.4216297  
H    2.2638494    1.8988021    5.0689105  
H    0.0117648    0.0094386    5.5031631  
H    3.3327358    2.7953732    2.7900019  
H    2.1123206    1.7707734    0.8551938  
