62

C    3.0766556   -0.7049122   -6.4287347  
C    4.4279928   -0.4563560   -6.4963807  
C    4.6303625    0.4540902   -7.5756090  
C    3.3554422    0.7279572   -8.1337317  
N    2.4346454    0.0066824   -7.4150431  
C    3.1745921    1.5896683   -9.2197963  
C    4.3012580    2.1860071   -9.7519432  
O    4.1817423    3.0364091  -10.8128615  
C    5.5819273    1.9250298   -9.2091777  
O    6.6040732    2.5945534   -9.8497231  
C    5.7611159    1.0748316   -8.1379257  
H    5.1760059   -0.8800822   -5.8483639  
H    2.2055947    1.8024425   -9.6498806  
H    5.0753204    3.3366440  -11.0241490  
H    7.4341819    2.3632810   -9.4218945  
H    6.7543555    0.8941485   -7.7438350  
H    2.5201358   -1.3346014   -5.7558777  
C   -1.0641738    0.0073911   -4.6315339  
C    0.2077342    0.0068494   -5.1556683  
C    0.0728976    0.0090250   -6.5756733  
C   -1.3163589    0.0111367   -6.8618346  
N   -1.9782052    0.0081252   -5.6591012  
C   -1.8198408    0.0139055   -8.1661683  
C   -0.9041960    0.0148613   -9.2004659  
O   -1.3413921    0.0178983  -10.4934707  
C    0.4859172    0.0124129   -8.9351413  
O    1.2686365    0.0133401  -10.0712285  
C    0.9833260    0.0094076   -7.6486338  
H    1.1204513    0.0039959   -4.5847635  
H   -2.9756842    0.0192487   -5.5455510  
H   -2.8775175    0.0153804   -8.3909329  
H   -0.5510068    0.0177656  -11.0489487  
H    2.1928166    0.0115764   -9.8038490  
C    1.1319245    0.0015656   -0.8009271  
C    0.7969914    0.0034943   -2.1169404  
C   -0.6453340    0.0035712   -2.1842672  
C   -1.1266833    0.0015434   -0.7896027  
N    0.0000000    0.0000000    0.0000000  
C   -2.4346131    0.0013965   -0.4276296  
C   -3.4350110    0.0031409   -1.4820182  
O   -4.6384610    0.0030975   -1.2583916  
C   -2.9478961    0.0050507   -2.9661073  
O   -3.7809383    0.0062220   -3.8623773  
C   -1.5113824    0.0053091   -3.2312124  
H    1.4821237    0.0045409   -2.9459193  
H   -2.7664564    0.0000233    0.6013449  
H    2.1104315    0.0009392   -0.3488061  
C    0.8681109    0.7263879    2.2709268  
C    0.6127770    0.5096195    3.5869401  
C   -0.4920590   -0.4175482    3.6542670  
C   -0.8620974   -0.7254003    2.2596025  
N    0.0000000    0.0000000    1.4700000  
C   -1.8641242   -1.5660088    1.8976294  
C   -2.6293522   -2.2103885    2.9520183  
O   -3.5512764   -2.9839180    2.7283916  
C   -2.2549728   -1.8987399    4.4361073  
O   -2.8923672   -2.4351063    5.3323774  
C   -1.1543735   -0.9755647    4.7012123  
H    1.1382914    0.9492124    4.4159191  
H   -2.1192137   -1.7782617    0.8686553  
H   -0.9013378   -0.7652422    5.7314848  
H    1.6172880    1.3558399    1.8188057  
