66

C    4.1072309   -0.7191034   -4.4475461  
C    3.0267439   -0.0008958   -3.9901693  
C    2.5087349    0.7258910   -5.1028450  
C    3.3206458    0.4084330   -6.2217500  
N    4.2827396   -0.4698441   -5.7885964  
C    3.1000334    0.9464840   -7.4932137  
C    2.0403153    1.8207013   -7.6378508  
O    1.7797478    2.3748838   -8.8576868  
C    1.2191171    2.1500691   -6.5333300  
O    0.2053889    3.0346599   -6.8386149  
C    1.4363353    1.6198567   -5.2786521  
H    4.9963749   -0.8790804   -6.3641242  
H    1.0098914    2.9463160   -8.7391489  
H   -0.3015560    3.2041262   -6.0386827  
H    0.7906454    1.8909166   -4.4515550  
H    4.7674530   -1.3883367   -3.9229585  
C    3.3003550    0.0005271   -1.4738980  
C    2.5232818    0.0003492   -2.6090740  
C    1.1623204   -0.0001324   -2.1820096  
C    1.1711884    0.0000582   -0.7636136  
N    2.4852300   -0.0014919   -0.3662355  
C    0.0000000    0.0000000    0.0000000  
C   -1.2020384    0.0000519   -0.6806474  
O   -2.3759249    0.0003495    0.0157742  
C   -1.2314655   -0.0005117   -2.0955509  
O   -2.5054387   -0.0008042   -2.6250186  
C   -0.0764509   -0.0007278   -2.8495195  
H    2.8036264    0.0088184    0.5858664  
H   -3.0835635    0.0000345   -0.6418820  
H   -2.4360043   -0.0011535   -3.5845924  
H   -0.1304089   -0.0013428   -3.9319088  
H    4.3715554    0.0004891   -1.3667124  
C    4.4384892   -0.6209629   -8.9622718  
C    3.9364605    0.6231674   -8.6580122  
C    4.3842205    1.5137437   -9.6782993  
C    5.1619189    0.7497584  -10.5857329  
N    5.1760954   -0.5416657  -10.1202864  
C    5.7645604    1.3047769  -11.7186790  
C    5.5784825    2.6555816  -11.9397645  
O    6.1443399    3.2485902  -13.0311668  
C    4.8062225    3.4346725  -11.0456447  
O    4.7147280    4.7640061  -11.4031970  
C    4.2116338    2.8878535   -9.9276196  
H    5.6409293   -1.3132706  -10.5636110  
H    6.3586049    0.7279464  -12.4140770  
H    5.8939096    4.1809560  -12.9958798  
H    4.1769881    5.2189183  -10.7478388  
H    3.6259279    3.5097276   -9.2607618  
H    4.3299579   -1.5583406   -8.4440985  
C    2.5311839    2.1237619    3.0120429  
C    1.9795631    1.6616747    1.8395852  
C    0.9223175    0.7739173    2.1983588  
C    0.8753926    0.7337535    3.6154372  
N    1.8668922    1.5631002    4.0777464  
C   -0.0496243   -0.0427881    4.3197917  
C   -0.9437528   -0.7922060    3.5801400  
O   -1.8685244   -1.5680278    4.2172520  
C   -0.9124520   -0.7656372    2.1655264  
O   -1.8671164   -1.5663939    1.5732860  
C    0.0000000    0.0000000    1.4700000  
H    2.3005065    1.9304404    0.8477417  
H    2.0679347    1.7444845    5.0445261  
H   -0.0904770   -0.0778569    5.3997470  
H   -2.3849669   -2.0011402    3.5251786  
H   -1.7775064   -1.4909735    0.6183591  
H    3.3468514    2.8078103    3.1724291  
