64

C    6.2084881   -2.3697957   -6.2475066  
C    5.7788232   -1.0668186   -6.3480376  
C    6.6020969   -0.4310557   -7.3240626  
C    7.5237875   -1.4039861   -7.7886270  
N    7.2584532   -2.5692311   -7.1130386  
C    8.4904495   -1.1269682   -8.7600246  
C    8.5271444    0.1554990   -9.2719904  
O    9.4508214    0.4800595  -10.2230414  
C    7.6161961    1.1401474   -8.8209287  
O    7.7805159    2.3686392   -9.4268590  
C    6.6624729    0.8676423   -7.8624514  
H    7.7456170   -3.4377962   -7.2405059  
H    9.1958864   -1.8640274   -9.1182232  
H    9.3050057    1.4102941  -10.4390649  
H    7.1269435    2.9755392   -9.0661379  
H    5.9783011    1.6423525   -7.5365523  
H    5.8499891   -3.1722759   -5.6258454  
C    4.4071365   -0.7184468   -4.2557781  
C    3.2973506   -0.0000934   -3.8752374  
C    2.8597412    0.7281416   -5.0210001  
C    3.7486367    0.4113758   -6.0799855  
N    4.6772283   -0.4679007   -5.5807785  
C    3.6188207    0.9508685   -7.3632955  
C    2.5724307    1.8258426   -7.5816217  
O    2.3991138    2.3814367   -8.8162437  
C    1.6752944    2.1545387   -6.5376284  
O    0.6861522    3.0400261   -6.9129343  
C    1.8029168    1.6229035   -5.2712939  
H    4.2930456    0.7135786   -8.1746616  
H    1.6230841    2.9531877   -8.7518675  
H    0.1239561    3.2089555   -6.1507000  
H    1.1004517    1.8934779   -4.4916717  
H    5.0282467   -1.3886014   -3.6865034  
C    3.3321174    0.0004714   -1.3379332  
C    2.6974186    0.0000115   -2.5332308  
C    1.2800441   -0.0002119   -2.2052838  
C    1.2395035    0.0000643   -0.7271293  
N    2.4394063    0.0005458   -0.2131034  
C    0.0000000    0.0000000    0.0000000  
C   -1.1468701    0.0000634   -0.7169542  
O   -2.3742201    0.0000072   -0.1695492  
C   -1.1388767    0.0001606   -2.2096354  
O   -2.2206229    0.0000903   -2.7970413  
C    0.1454526    0.0001815   -2.9324239  
H   -2.9844344    0.0001023   -0.9290168  
H    0.1083580    0.0003680   -4.0135594  
H    4.3940040    0.0007617   -1.1498630  
C    0.8676693    0.7151171    2.2619005  
C    0.5875920    0.4624972    3.5848544  
C   -0.5048400   -0.4542819    3.6114698  
C   -0.8517165   -0.7276451    2.2635546  
N    0.0000000    0.0000000    1.4700000  
C   -1.8902865   -1.5946756    1.9108239  
C   -2.5912627   -2.1969500    2.9375057  
O   -3.6148162   -3.0527051    2.6493466  
C   -2.2603868   -1.9365747    4.2886322  
O   -3.0513550   -2.6123276    5.1947621  
C   -1.2361111   -1.0811317    4.6373480  
H    1.1060808    0.8876438    4.4271209  
H   -2.1597133   -1.8070987    0.8854031  
H   -3.9636755   -3.3565188    3.4974381  
H   -2.7621927   -2.3810384    6.0827341  
H   -1.0058879   -0.9010589    5.6809233  
H    1.6167816    1.3499334    1.8205408  
