62

C    3.2554991   -3.0332430   -6.2095279  
C    4.0591787   -3.6831403   -5.3016733  
C    4.9779581   -4.4757322   -6.0515010  
C    4.6845428   -4.2669661   -7.4234526  
N    3.6323118   -3.3873214   -7.4838862  
C    5.3952937   -4.8920604   -8.4524718  
C    6.4211262   -5.7431762   -8.0899156  
O    7.1476930   -6.3793081   -9.0545133  
C    6.7287838   -5.9646186   -6.7264175  
O    7.7769530   -6.8394603   -6.5280828  
C    6.0278554   -5.3484957   -5.7107319  
H    3.9908303   -3.5974454   -4.2307028  
H    3.2110637   -3.0434784   -8.3278672  
H    5.1765131   -4.7372596   -9.5000284  
H    7.8033689   -6.9174106   -8.5921282  
H    7.9195813   -6.9335645   -5.5812959  
H    6.2863265   -5.5377569   -4.6754292  
C    2.1451924   -2.0951770   -5.9900948  
C    1.6340467   -1.6323750   -4.8202142  
C    0.5538821   -0.7357921   -5.1581773  
C    0.4770628   -0.7140554   -6.6314112  
N    1.4686352   -1.5584198   -7.0749457  
C   -0.4180301    0.0158497   -7.3439768  
C   -1.3690899    0.8348541   -6.6110023  
O   -2.2145433    1.5279317   -7.1615950  
C   -1.3057475    0.8272853   -5.0503179  
O   -2.1011642    1.5130918   -4.4224305  
C   -0.2963293   -0.0005341   -4.3948471  
H    1.9749144   -1.8895632   -3.8331597  
H   -0.4575591    0.0175268   -8.4244137  
H    1.6685731   -1.7560263   -8.0382859  
C    3.1301146   -0.0010313   -1.7028256  
C    2.5367765   -0.0002766   -0.4864669  
C    1.1089901    0.0001027   -0.7656184  
C    1.0177865   -0.0004150   -2.2415133  
N    2.1993571   -0.0011612   -2.7963824  
C   -0.2459219   -0.0002879   -2.9257116  
C   -1.3675326   -0.0000606   -2.1698520  
O   -2.6129318    0.0000865   -2.6748483  
C   -1.3083588    0.0000910   -0.6783229  
O   -2.3693264    0.0004206   -0.0541685  
C    0.0000000    0.0000000    0.0000000  
H    3.0096016   -0.0001007    0.4807518  
H   -3.1967444    0.0002093   -1.8949026  
H    4.1849275   -0.0015114   -1.9271979  
C    2.5285572    2.1210227    2.9438989  
C    1.9331703    1.6216660    4.0790748  
C    0.8903039    0.7472258    3.6520102  
C    0.8972198    0.7527806    2.2336141  
N    1.9028376    1.5986179    1.8362361  
C    0.0000000    0.0000000    1.4700000  
C   -0.9207814   -0.7726952    2.1506477  
O   -1.8198395   -1.5274828    1.4542253  
C   -0.9436862   -0.7911793    3.5655508  
O   -1.9197945   -1.6098497    4.0950179  
C   -0.0590329   -0.0485852    4.3195194  
H    2.2150357    1.8593692    5.0905303  
H    2.1533708    1.7953814    0.8841339  
H   -2.3621246   -1.9821033    2.1118817  
H   -1.8668290   -1.5649508    5.0545920  
H   -0.1007624   -0.0827977    5.4019087  
H    3.3491200    2.8096064    2.8367138  
