60

C    2.4963620   -2.1240792   -5.9704919  
C    1.9480114   -1.6619034   -4.7965367  
C    0.8896190   -0.7743524   -5.1524289  
C    0.8386567   -0.7344002   -6.5693737  
N    1.8289587   -1.5636688   -7.0343826  
C   -0.0884740    0.0419043   -7.2712052  
C   -0.9806045    0.7912982   -6.5291205  
O   -1.9072989    1.5668925   -7.1637111  
C   -0.9452756    0.7649386   -5.1145981  
O   -1.8983682    1.5656408   -4.5197594  
C   -0.0307359   -0.0004648   -4.4215606  
H    2.2718145   -1.9304788   -3.8055716  
H    2.0272766   -1.7451631   -8.0017035  
H   -0.1324047    0.0768112   -8.3510451  
H   -2.4218338    2.0000296   -6.4702335  
H   -1.8060311    1.4903718   -3.5650808  
H    3.3116701   -2.8080314   -6.1330999  
C    3.2573667   -0.0002920   -1.5109386  
C    2.5379466   -0.0001709   -0.3591965  
C    1.1435040    0.0000332   -0.7338503  
C    1.1092604   -0.0000083   -2.2088478  
N    2.4227557    0.0001908   -2.6182616  
C   -0.0265538   -0.0002523   -2.9515663  
C   -1.3003040   -0.0002641   -2.2514979  
O   -2.3786787   -0.0004133   -2.8306426  
C   -1.2877728    0.0000312   -0.6895607  
O   -2.3539959    0.0003306   -0.0892033  
C    0.0000000    0.0000000    0.0000000  
H    2.9384091   -0.0000368    0.6389234  
H    2.7280486   -0.0013408   -3.5742120  
C    6.7921796   -0.0024535    1.2037497  
C    5.5119029   -0.0013795    0.7650368  
C    5.6127421   -0.0007799   -0.6862837  
C    7.0661040   -0.0015331   -0.9589057  
N    7.7625303   -0.0025960    0.1451681  
C    7.5891407   -0.0012861   -2.2973820  
C    6.7006583   -0.0007190   -3.3171531  
O    7.0481221   -0.0004246   -4.6153482  
C    5.2278294   -0.0003232   -3.0743873  
O    4.4775292    0.0003123   -4.0502303  
C    4.7161330   -0.0005435   -1.6923266  
H    4.6104190   -0.0011267    1.3535967  
H    8.6559208   -0.0016449   -2.4673566  
H    6.2020978   -0.0000589   -5.0984593  
H    7.1449939   -0.0031697    2.2228159  
C    0.0000000    0.0000000    1.4700000  
C    1.0662921    0.0000102    2.3034270  
C    0.4961870   -0.0000064    3.6418889  
C   -0.9663858    0.0000850    3.4240247  
N   -1.2632773    0.0000084    2.1528658  
C   -1.8985362    0.0000517    4.5177257  
C   -1.3925775   -0.0004564    5.7720543  
O   -2.1456383   -0.0005410    6.8851312  
C    0.0786232   -0.0009323    6.0245000  
O    0.4683759   -0.0012588    7.1921102  
C    1.0143166   -0.0008442    4.8859032  
H    2.1107198   -0.0000632    2.0421868  
H   -2.9622183    0.0003270    4.3293377  
H   -1.5042274   -0.0009692    7.6184419  
H    2.0724152   -0.0013148    5.1109744  
