62

C    8.3264915    2.1245178   -5.0819650  
C    9.6083896    1.6270501   -5.1235512  
C    9.7520807    0.7525088   -4.0059065  
C    8.5145153    0.7560576   -3.3128365  
N    7.6718771    1.6008501   -3.9917357  
C    8.2934101    0.0026304   -2.1560093  
C    9.3406009   -0.7686606   -1.6905213  
O    9.1788683   -1.5239989   -0.5652124  
C   10.5830268   -0.7851360   -2.3679620  
O   11.5260108   -1.6025889   -1.7798342  
C   10.8019470   -0.0419029   -3.5091034  
H   10.3491872    1.8660460   -5.8672542  
H    6.7196832    1.7961486   -3.7404069  
H   10.0190387   -1.9774299   -0.4176350  
H   12.3347665   -1.5563606   -2.2988531  
H   11.7643523   -0.0745671   -4.0062819  
H    7.8277899    2.8125548   -5.7429184  
C    5.7595788    0.0007158   -2.0216249  
C    4.7795901    0.0008674   -1.0815733  
C    5.4318892    0.0011976    0.2065809  
C    6.8826348    0.0012557   -0.0619863  
N    7.0143611    0.0005548   -1.4314889  
C    7.8422287    0.0019360    0.8976401  
C    7.4178686    0.0024333    2.2877674  
O    8.2055925    0.0029965    3.2246729  
C    5.8864734    0.0021297    2.5953926  
O    5.5172082    0.0022369    3.7619705  
C    4.9477883    0.0016667    1.4761414  
H    8.9010988    0.0020958    0.6792261  
H    3.8891760    0.0016644    1.6976444  
H    5.6706931    0.0004913   -3.0958635  
C    3.3321168    0.0004716   -1.3379341  
C    2.6974177    0.0000118   -2.5332316  
C    1.2800432   -0.0002116   -2.2052842  
C    1.2395033    0.0000644   -0.7271298  
N    2.4394059    0.0005460   -0.2131041  
C    0.0000000    0.0000000    0.0000000  
C   -1.1468704    0.0000635   -0.7169542  
O   -2.3742206    0.0000074   -0.1695488  
C   -1.1388774    0.0001608   -2.2096352  
O   -2.2206238    0.0000906   -2.7970409  
C    0.1454514    0.0001818   -2.9324241  
H    3.1367978   -0.0000649   -3.5160956  
H   -2.9844350    0.0001027   -0.9290164  
H    0.1083567    0.0003684   -4.0135594  
C    0.8676693    0.7151171    2.2619005  
C    0.5875920    0.4624972    3.5848544  
C   -0.5048400   -0.4542819    3.6114698  
C   -0.8517165   -0.7276451    2.2635546  
N    0.0000000    0.0000000    1.4700000  
C   -1.8902865   -1.5946756    1.9108239  
C   -2.5912627   -2.1969500    2.9375057  
O   -3.6148162   -3.0527051    2.6493466  
C   -2.2603868   -1.9365747    4.2886322  
O   -3.0513550   -2.6123276    5.1947621  
C   -1.2361111   -1.0811317    4.6373480  
H    1.1060808    0.8876438    4.4271209  
H   -2.1597133   -1.8070987    0.8854031  
H   -3.9636755   -3.3565188    3.4974381  
H   -2.7621927   -2.3810384    6.0827341  
H   -1.0058879   -0.9010589    5.6809233  
H    1.6167816    1.3499334    1.8205408  
