62

C    6.0819817   -0.7222589   -1.0135712  
C    6.6040902   -0.0023257   -2.0631269  
C    7.7210105    0.7246360   -1.5545839  
C    7.8330631    0.4055016   -0.1770775  
N    6.8213627   -0.4739005    0.1191171  
C    8.8276817    0.9432366    0.6453363  
C    9.7257241    1.8188559    0.0665535  
O   10.7170634    2.3728032    0.8237870  
C    9.6300748    2.1499059   -1.3060618  
O   10.5977495    3.0357560   -1.7329334  
C    8.6489532    1.6200063   -2.1179307  
H    6.6544429   -0.8844103    1.0200058  
H    8.9183883    0.7041378    1.6959582  
H   11.2239764    2.9453633    0.2334668  
H   10.4618727    3.2063187   -2.6699762  
H    8.6006578    1.8923685   -3.1657688  
H    5.2398025   -1.3921530   -0.9829995  
C    2.4521485    0.0014838   -3.7217479  
C    3.5379007    0.0003034   -2.8769945  
C    4.7042704    0.0010689   -3.6980798  
C    4.2640505    0.0030183   -5.0464602  
N    2.8914059    0.0012707   -5.0249751  
C    5.1472042    0.0045259   -6.1303535  
C    6.4993915    0.0043639   -5.8479195  
O    7.4055691    0.0061451   -6.8686304  
C    6.9581315    0.0020568   -4.5091255  
O    8.3328189    0.0017762   -4.3925955  
C    6.0874477    0.0002954   -3.4393439  
H    3.4945818   -0.0020601   -1.8013036  
H    2.2982903    0.0125971   -5.8349547  
H    4.8180480    0.0058704   -7.1603320  
H    8.2798215    0.0053853   -6.4575981  
H    8.5587829    0.0001975   -3.4574264  
C    0.0000000    0.0000000    0.0000000  
C    1.0662924   -0.0000102   -0.8334267  
C    0.4961874    0.0000064   -2.1718888  
C   -0.9663853   -0.0000849   -1.9540250  
N   -1.2632772   -0.0000084   -0.6828660  
C   -1.8985357   -0.0000515   -3.0477261  
C   -1.3925767    0.0004566   -4.3020548  
O   -2.1456375    0.0005411   -5.4151316  
C    0.0786242    0.0009324   -4.5545000  
O    0.4683770    0.0012590   -5.7221099  
C    1.0143173    0.0008443   -3.4159029  
H    2.1107200    0.0000632   -0.5721862  
H   -2.9622180   -0.0003269   -2.8593382  
H   -1.5042262    0.0009694   -6.1484423  
C    0.0000000    0.0000000    1.4700000  
C    1.0662921    0.0000102    2.3034270  
C    0.4961870   -0.0000064    3.6418889  
C   -0.9663858    0.0000850    3.4240247  
N   -1.2632773    0.0000084    2.1528658  
C   -1.8985362    0.0000517    4.5177257  
C   -1.3925775   -0.0004564    5.7720543  
O   -2.1456383   -0.0005410    6.8851312  
C    0.0786232   -0.0009323    6.0245000  
O    0.4683759   -0.0012588    7.1921102  
C    1.0143166   -0.0008442    4.8859032  
H    2.1107198   -0.0000632    2.0421868  
H   -2.9622183    0.0003270    4.3293377  
H   -1.5042274   -0.0009692    7.6184419  
H    2.0724152   -0.0013148    5.1109744  
