64

C   -3.9665820    3.0748255    0.7604665  
C   -4.7624232    3.7535585    1.6540128  
C   -3.8938898    4.5197914    2.4865606  
C   -2.5683240    4.2664098    2.0499835  
N   -2.6483109    3.3834466    1.0018450  
C   -1.4498902    4.8568036    2.6460796  
C   -1.6737036    5.7189201    3.7019384  
O   -0.6173031    6.3230046    4.3200922  
C   -2.9888965    5.9841144    4.1522234  
O   -3.0463133    6.8639964    5.2132862  
C   -4.0927103    5.4018219    3.5648075  
H   -5.8367261    3.7018178    1.7007988  
H   -1.8667205    3.0280276    0.4814842  
H   -0.4370253    4.6677085    2.3181301  
H   -0.9897369    6.8752046    5.0198307  
H   -3.9690371    6.9886163    5.4554735  
H   -5.0879857    5.6239912    3.9316124  
C   -4.3329675    2.1450165   -0.3175488  
C   -5.5711461    1.7385426   -0.6826123  
C   -5.3538023    0.8273989   -1.7957513  
C   -3.8860920    0.7997430   -1.9736453  
N   -3.2823486    1.5701202   -1.1099313  
C   -3.2578655    0.0024282   -2.9908505  
C   -4.0594178   -0.7340900   -3.7935896  
O   -3.6090876   -1.5234311   -4.7836320  
C   -5.5440605   -0.7276259   -3.6388183  
O   -6.2117105   -1.4223052   -4.4049024  
C   -6.1645245    0.0985292   -2.5879063  
H   -6.5153538    2.0219323   -0.2499015  
H   -4.4116850   -1.9150023   -5.1730707  
H   -7.2431276    0.0755590   -2.5084194  
C    0.0000000    0.0000000    0.0000000  
C    1.0521666   -0.0011982   -0.8862343  
C    0.4917215   -0.0011996   -2.1979132  
C   -0.9187429    0.0003215   -2.0478682  
N   -1.1833171   -0.0009323   -0.7007913  
C   -1.7951703    0.0010483   -3.1372089  
C   -1.2375841    0.0005313   -4.4010422  
O   -2.0474218    0.0015510   -5.4997578  
C    0.1673576   -0.0013585   -4.5711963  
O    0.5673520   -0.0020735   -5.8915554  
C    1.0325768   -0.0023493   -3.4969892  
H    2.0953056   -0.0030808   -0.6200564  
H   -2.0989778    0.0102529   -0.2891822  
H   -1.4634888    0.0006601   -6.2693595  
H    1.5290707   -0.0033271   -5.9180047  
H    2.1042146   -0.0039770   -3.6584456  
C    3.3041272   -0.0001177    3.0120429  
C    2.5845372    0.0004780    1.8395852  
C    1.2040006    0.0000008    2.1983588  
C    1.1422373   -0.0006037    3.6154372  
N    2.4348639   -0.0026109    4.0777464  
C   -0.0655181   -0.0008797    4.3197917  
C   -1.2321768   -0.0002324    3.5801400  
O   -2.4392816   -0.0001146    4.2172520  
C   -1.1911209    0.0000007    2.1655264  
O   -2.4371527    0.0002320    1.5732860  
C    0.0000000    0.0000000    1.4700000  
H    3.0031534    0.0000661    0.8477417  
H    2.7054629    0.0071099    5.0445261  
H   -0.1193549   -0.0014844    5.3997470  
H   -3.1132988    0.0000648    3.5251786  
H   -2.3200282    0.0004071    0.6183591  
H    4.3686625   -0.0004071    3.1724291  
