66

C    1.7623877   -2.3629726   -7.2713191  
C    1.3266583   -1.0599342   -7.3398640  
C    2.0787867   -0.4231032   -8.3710516  
C    2.9653127   -1.3954749   -8.9006664  
N    2.7484762   -2.5614307   -8.2091844  
C    3.8608050   -1.1173800   -9.9377510  
C    3.8611516    0.1656099  -10.4497216  
O    4.7152054    0.4912230  -11.4634203  
C    2.9843854    1.1497145   -9.9343239  
O    3.1053887    2.3788366  -10.5491098  
C    2.1008848    0.8761466   -8.9110383  
H    3.2254171   -3.4298202   -8.3716917  
H    4.5391413   -1.8540090  -10.3457231  
H    4.5544489    1.4216628  -11.6676347  
H    2.4789680    2.9853088  -10.1424245  
H    1.4414738    1.6504617   -8.5367512  
H    1.4487963   -3.1661174   -6.6266662  
C    0.1064605   -0.7138162   -5.1554289  
C   -0.9736297    0.0040464   -4.6965763  
C   -1.4912368    0.7334041   -5.8077561  
C   -0.6795015    0.4177974   -6.9273113  
N    0.2821070   -0.4618990   -6.4959642  
C   -0.8998166    0.9585814   -8.1976665  
C   -1.9590513    1.8336789   -8.3405060  
O   -2.2193129    2.3905109   -9.5592008  
C   -2.7800680    2.1612306   -7.2353098  
O   -3.7933076    3.0470063   -7.5387755  
C   -2.5631429    1.6283211   -5.9817241  
H   -0.2846925    0.7221789   -9.0549516  
H   -2.9888537    2.9621237   -9.4394881  
H   -4.3001589    3.2151087   -6.7384967  
H   -3.2086829    1.8980376   -5.1540712  
H    0.7663125   -1.3844909   -4.6322175  
C    1.1188642    0.0008222   -0.8003808  
C    0.0000000    0.0000000    0.0000000  
C   -1.1323862    0.0008899   -0.8673528  
C   -0.6382663    0.0019679   -2.1969280  
N    0.7324016    0.0038481   -2.1202242  
C   -1.4770914    0.0027318   -3.3154808  
C   -2.8395473    0.0020945   -3.0876857  
O   -3.7039201    0.0024425   -4.1440349  
C   -3.3517868    0.0013931   -1.7684331  
O   -4.7300497    0.0012366   -1.7073121  
C   -2.5248543    0.0009123   -0.6644817  
H    1.3576314   -0.0056167   -2.9057046  
H   -4.5940032    0.0021826   -3.7685128  
H   -4.9934602    0.0007259   -0.7819913  
H   -2.9462577    0.0005603    0.3339659  
H    2.1619895    0.0009355   -0.5342068  
C    2.5285572    2.1210227    2.9438989  
C    1.9331703    1.6216660    4.0790748  
C    0.8903039    0.7472258    3.6520102  
C    0.8972198    0.7527806    2.2336141  
N    1.9028376    1.5986179    1.8362361  
C    0.0000000    0.0000000    1.4700000  
C   -0.9207814   -0.7726952    2.1506477  
O   -1.8198395   -1.5274828    1.4542253  
C   -0.9436862   -0.7911793    3.5655508  
O   -1.9197945   -1.6098497    4.0950179  
C   -0.0590329   -0.0485852    4.3195194  
H    2.2150357    1.8593692    5.0905303  
H    2.1533708    1.7953814    0.8841339  
H   -2.3621246   -1.9821033    2.1118817  
H   -1.8668290   -1.5649508    5.0545920  
H   -0.1007624   -0.0827977    5.4019087  
H    3.3491200    2.8096064    2.8367138  
