64

C   -3.3003526   -0.0035222   -1.4738992  
C   -2.5232794   -0.0026393   -2.6090750  
C   -1.1623190   -0.0009229   -2.1820104  
C   -1.1711884   -0.0011211   -0.7636141  
N   -2.4852306   -0.0007631   -0.3662362  
C    0.0000000    0.0000000    0.0000000  
C    1.2020373    0.0010386   -0.6806474  
O    2.3759243    0.0018063    0.0157751  
C    1.2314657    0.0016283   -2.0955506  
O    2.5054375    0.0030767   -2.6250173  
C    0.0764515    0.0007963   -2.8495192  
H   -2.8919940   -0.0020623   -3.6205304  
H   -2.8036173   -0.0113619    0.5858658  
H    3.0835634    0.0027629   -0.6418813  
H    2.4360039    0.0033627   -3.5845915  
H    0.1304089    0.0014601   -3.9319085  
C   -4.7630475   -0.0047973   -1.3275412  
C   -5.7197888   -0.0067901   -2.2912411  
C   -6.9965511   -0.0072674   -1.6169173  
C   -6.7031120   -0.0053463   -0.1709988  
N   -5.3315492   -0.0043072   -0.0628096  
C   -7.6461186   -0.0047617    0.8049324  
C   -9.0433272   -0.0063409    0.4045073  
O   -9.9665684   -0.0060304    1.2082034  
C   -9.3772040   -0.0086392   -1.1213781  
O  -10.5499505   -0.0102888   -1.4705544  
C   -8.2742368   -0.0087980   -2.0791442  
H   -5.5504459   -0.0079919   -3.3532840  
H   -8.5138854   -0.0101898   -3.1337961  
H   -4.8220255   -0.0013802    0.8017275  
C   -4.5362709    2.1215872    3.1214748  
C   -4.8684758    1.6235903    4.3600653  
C   -5.9788643    0.7480790    4.1726707  
C   -6.2824735    0.7516088    2.7871257  
N   -5.3888019    1.5973221    2.1782432  
C   -7.3244743   -0.0026599    2.2393105  
C   -8.0734382   -0.7747887    3.1059404  
O   -9.1025297   -1.5309691    2.6240938  
C   -7.7861860   -0.7912599    4.4915926  
O   -8.6221815   -1.6096045    5.2228711  
C   -6.7585496   -0.0471971    5.0327587  
H   -4.3723056    1.8628642    5.2850282  
H   -5.3528116    1.7928351    1.1941391  
H   -9.4874366   -1.9848890    3.3850592  
H   -8.3605721   -1.5633103    6.1475447  
H   -6.5624095   -0.0798804    6.0980941  
H   -3.7595574    2.8103800    2.8364487  
C    2.5285572    2.1210227    2.9438989  
C    1.9331703    1.6216660    4.0790748  
C    0.8903039    0.7472258    3.6520102  
C    0.8972198    0.7527806    2.2336141  
N    1.9028376    1.5986179    1.8362361  
C    0.0000000    0.0000000    1.4700000  
C   -0.9207814   -0.7726952    2.1506477  
O   -1.8198395   -1.5274828    1.4542253  
C   -0.9436862   -0.7911793    3.5655508  
O   -1.9197945   -1.6098497    4.0950179  
C   -0.0590329   -0.0485852    4.3195194  
H    2.2150357    1.8593692    5.0905303  
H    2.1533708    1.7953814    0.8841339  
H   -2.3621246   -1.9821033    2.1118817  
H   -1.8668290   -1.5649508    5.0545920  
H   -0.1007624   -0.0827977    5.4019087  
H    3.3491200    2.8096064    2.8367138  
