64

C    1.0950565   -0.9830232   -9.4888426  
C    1.4802578   -0.5683108  -10.7426776  
C    1.2302121    0.8342638  -10.8124036  
C    0.6879936    1.2231018   -9.5607119  
N    0.6176054    0.0952460   -8.7812236  
C    0.3215184    2.5410771   -9.2718781  
C    0.5060484    3.4837498  -10.2645996  
O    0.1654503    4.7855186  -10.0356794  
C    1.0452841    3.1152048  -11.5200734  
O    1.1670733    4.1679653  -12.4033656  
C    1.4067915    1.8151291  -11.8058059  
H    1.8899301   -1.1993075  -11.5127452  
H   -0.0923961    2.8438503   -8.3199300  
H    0.3721269    5.2684562  -10.8464328  
H    1.5384655    3.8337512  -13.2255414  
H    1.8171430    1.5628088  -12.7765906  
H    1.1217783   -1.9629174   -9.0438123  
C    2.0234324   -2.1203367   -5.1612091  
C    1.8898405   -1.6210653   -6.4361003  
C    0.7628122   -0.7468331   -6.4249093  
C    0.2448267   -0.7524210   -5.1044597  
N    1.0324260   -1.5980774   -4.3633998  
C   -0.8712826    0.0001710   -4.7267111  
C   -1.4753121    0.7727082   -5.6995997  
O   -2.5682872    1.5273083   -5.3849617  
C   -0.9734765    0.7912225   -7.0227155  
O   -1.6848160    1.6097207   -7.8755935  
C    0.1273886    0.0488144   -7.3961488  
H    2.5257350   -1.8586903   -7.2716639  
H    0.9132302   -1.7948165   -3.3861244  
H   -2.8290819    1.9818422   -6.1965340  
H   -1.2808198    1.5648553   -8.7475895  
H    2.7463507   -2.8087674   -4.7582059  
C    1.0965514    0.0001359   -0.8010305  
C    0.0000000    0.0000000    0.0000000  
C   -1.1546563    0.0001470   -0.8669513  
C   -0.6372014    0.0003519   -2.2486282  
N    0.7342871    0.0007337   -2.1395014  
C   -1.4147739    0.0001352   -3.3608717  
C   -2.8576049   -0.0001048   -3.1854462  
O   -3.6427779   -0.0002494   -4.1244907  
C   -3.4275840   -0.0000725   -1.7311666  
O   -4.6406831    0.0000333   -1.5710060  
C   -2.4891867   -0.0001091   -0.6116744  
H   -2.8919122   -0.0002918    0.3920866  
H    2.1388272    0.0000663   -0.5261648  
H    1.3735872   -0.0006099   -2.9130262  
C    0.8676693    0.7151171    2.2619005  
C    0.5875920    0.4624972    3.5848544  
C   -0.5048400   -0.4542819    3.6114698  
C   -0.8517165   -0.7276451    2.2635546  
N    0.0000000    0.0000000    1.4700000  
C   -1.8902865   -1.5946756    1.9108239  
C   -2.5912627   -2.1969500    2.9375057  
O   -3.6148162   -3.0527051    2.6493466  
C   -2.2603868   -1.9365747    4.2886322  
O   -3.0513550   -2.6123276    5.1947621  
C   -1.2361111   -1.0811317    4.6373480  
H    1.1060808    0.8876438    4.4271209  
H   -2.1597133   -1.8070987    0.8854031  
H   -3.9636755   -3.3565188    3.4974381  
H   -2.7621927   -2.3810384    6.0827341  
H   -1.0058879   -0.9010589    5.6809233  
H    1.6167816    1.3499334    1.8205408  
