62

C   -9.1941438    3.2869908   -1.7849201  
C   -8.0194146    2.6036578   -1.9983082  
C   -8.3660675    1.2370158   -2.2144616  
C   -9.7784547    1.1460227   -2.1206144  
N  -10.2495891    2.4082603   -1.8571629  
C  -10.4710722   -0.0578438   -2.2811619  
C   -9.7243114   -1.1904327   -2.5414859  
O  -10.3499180   -2.3921621   -2.7072464  
C   -8.3141878   -1.1199403   -2.6384323  
O   -7.7137401   -2.3338632   -2.9014866  
C   -7.6302191    0.0673161   -2.4798923  
H   -7.0337915    3.0367144   -1.9971035  
H  -11.2164383    2.6557976   -1.7480406  
H  -11.5473871   -0.1338761   -2.2106907  
H   -9.6544983   -3.0409084   -2.8769071  
H   -6.7625601   -2.1982638   -2.9512104  
H   -9.3625469    4.3314165   -1.5854855  
C   -4.3329665    2.1450166   -0.3175484  
C   -5.5711456    1.7385431   -0.6826118  
C   -5.3538018    0.8273993   -1.7957508  
C   -3.8860920    0.7997433   -1.9736450  
N   -3.2823480    1.5701205   -1.1099310  
C   -3.2578655    0.0024282   -2.9908505  
C   -4.0594180   -0.7340898   -3.7935894  
O   -3.6090879   -1.5234311   -4.7836320  
C   -5.5440614   -0.7276254   -3.6388177  
O   -6.2117105   -1.4223047   -4.4049022  
C   -6.1645244    0.0985302   -2.5879055  
H   -6.5153527    2.0219329   -0.2499008  
H   -4.4116857   -1.9150018   -5.1730704  
H   -4.0641812    2.8271376    0.4732985  
C    0.0000000    0.0000000    0.0000000  
C    1.0521666   -0.0011982   -0.8862343  
C    0.4917215   -0.0011996   -2.1979132  
C   -0.9187429    0.0003215   -2.0478682  
N   -1.1833171   -0.0009323   -0.7007913  
C   -1.7951703    0.0010483   -3.1372089  
C   -1.2375841    0.0005313   -4.4010422  
O   -2.0474218    0.0015510   -5.4997578  
C    0.1673576   -0.0013585   -4.5711963  
O    0.5673520   -0.0020735   -5.8915554  
C    1.0325768   -0.0023493   -3.4969892  
H    2.0953056   -0.0030808   -0.6200564  
H   -2.0989778    0.0102529   -0.2891822  
H   -1.4634888    0.0006601   -6.2693595  
H    1.5290707   -0.0033271   -5.9180047  
H    2.1042146   -0.0039770   -3.6584456  
C    3.2798086   -0.0005857    2.9199648  
C    2.5571146   -0.0005566    4.0696553  
C    1.1637436   -0.0001548    3.6910360  
C    1.1336965    0.0000200    2.2159470  
N    2.4483514    0.0001428    1.8102719  
C    0.0000000    0.0000000    1.4700000  
C   -1.2757367    0.0000186    2.1664417  
O   -2.3524596    0.0000640    1.5842315  
C   -1.2676493    0.0000873    3.7284083  
O   -2.3355761    0.0004100    4.3257297  
C    0.0181563   -0.0001760    4.4216297  
H    2.9547357   -0.0006076    5.0689105  
H    0.0150794   -0.0003319    5.5031631  
H    4.3498549   -0.0008612    2.7900019  
H    2.7563627   -0.0012824    0.8551938  
