62

C    5.8838805   -1.7974174   -5.0580262  
C    6.9710483   -2.6191136   -4.8700136  
C    7.7735791   -2.5232879   -6.0453268  
C    7.1203227   -1.6204898   -6.9229015  
N    5.9751735   -1.1999000   -6.2933349  
C    7.6304894   -1.2860003   -8.1809301  
C    8.8219715   -1.8733506   -8.5598316  
O    9.3649374   -1.5816434   -9.7776611  
C    9.4885160   -2.7768599   -7.6983176  
O   10.6636058   -3.2776468   -8.2195873  
C    8.9856678   -3.1075107   -6.4572133  
H    7.1616034   -3.2151965   -3.9940181  
H    5.3128029   -0.5459116   -6.6695602  
H    7.1373686   -0.5987441   -8.8545124  
H   10.1833733   -2.0909985   -9.8407910  
H   11.0501459   -3.8788630   -7.5755920  
H    9.5185255   -3.8028772   -5.8192430  
C    4.5551378   -2.0647521   -2.9129526  
C    3.4069297   -1.6070138   -2.3506641  
C    2.8049834   -0.7012746   -3.3004706  
C    3.7030479   -0.6686468   -4.4706014  
N    4.7450052   -1.5160901   -4.1721822  
C    3.4850378    0.0719021   -5.5867390  
C    2.2859710    0.8916867   -5.6389643  
O    2.0005484    1.5939524   -6.6000356  
C    1.3208825    0.8726932   -4.4109379  
O    0.3083946    1.5590471   -4.4433028  
C    1.6628945    0.0339172   -3.2649299  
H    3.0252945   -1.8733122   -1.3811003  
H    4.1564398    0.0814611   -6.4341099  
H    5.2786931   -2.7565742   -2.5132781  
C    1.1243410    0.0100105   -0.7919003  
C    0.7474072    0.0234665   -2.1148542  
C   -0.6787384    0.0234379   -2.1414698  
C   -1.1201748    0.0098411   -0.7935547  
N    0.0000000    0.0000000    0.0000000  
C   -2.4730818    0.0063307   -0.4408240  
C   -3.3971962    0.0170429   -1.4675058  
O   -4.7313520    0.0145490   -1.1793468  
C   -2.9763654    0.0303020   -2.8186325  
O   -4.0166484    0.0394464   -3.7247625  
C   -1.6418567    0.0334992   -3.1673480  
H   -2.8160166   -0.0041569    0.5845966  
H   -5.1938823    0.0230023   -2.0274386  
H   -3.6464680    0.0481700   -4.6127343  
H   -1.3497475    0.0435647   -4.2109234  
H    2.1062466    0.0053162   -0.3505405  
C    2.5128556    2.1077716    2.9199648  
C    1.9592212    1.6432552    4.0696553  
C    0.8915788    0.7479214    3.6910360  
C    0.8684491    0.7287414    2.2159470  
N    1.8754542    1.5738793    1.8102719  
C    0.0000000    0.0000000    1.4700000  
C   -0.9772830   -0.8200135    2.1664417  
O   -1.8021297   -1.5120829    1.5842315  
C   -0.9711318   -0.8147624    3.7284083  
O   -1.7894187   -1.5009653    4.3257297  
C    0.0140216    0.0115358    4.4216297  
H    2.2638494    1.8988021    5.0689105  
H    0.0117648    0.0094386    5.5031631  
H    3.3327358    2.7953732    2.7900019  
H    2.1123206    1.7707734    0.8551938  
