62

C    9.9125454   -0.7123037   -1.6505889  
C   11.1671484   -0.4626517   -2.1566660  
C   11.0042856    0.4462940   -3.2438151  
C    9.6165827    0.7181588   -3.3547119  
N    8.9823671   -0.0028154   -2.3735986  
C    9.0893953    1.5780179   -4.3229604  
C    9.9793276    2.1745299   -5.1949540  
O    9.5183407    3.0231735   -6.1594787  
C   11.3674231    1.9155360   -5.1004637  
O   12.1230392    2.5849704   -6.0408077  
C   11.8881826    1.0671650   -4.1456846  
H   12.0865013   -0.8847039   -1.7883528  
H    8.0327485    1.7892615   -4.4128152  
H   10.2933088    3.3238738   -6.6516848  
H   13.0477195    2.3551021   -5.9076488  
H   12.9559274    0.8879782   -4.0978091  
H    9.6074740   -1.3414398   -0.8320063  
C    6.5860086   -0.0008870    1.4009371  
C    7.6166242   -0.0011133    0.4897298  
C    7.0248897   -0.0012666   -0.8081341  
C    5.6184276   -0.0008354   -0.6243131  
N    5.3862298   -0.0025641    0.7287198  
C    4.7161325   -0.0005435   -1.6923264  
C    5.2432551   -0.0003826   -2.9691658  
O    4.4073062    0.0002541   -4.0481477  
C    6.6437146   -0.0011824   -3.1729577  
O    7.0119354   -0.0013266   -4.5025278  
C    7.5344416   -0.0017439   -2.1198051  
H    8.6658466   -0.0022671    0.7308191  
H    4.4806937    0.0078493    1.1621677  
H    4.9726182   -0.0000405   -4.8315292  
H    7.9727445   -0.0018528   -4.5520293  
H    6.6118216   -0.0011075    2.4771775  
C    3.2573665   -0.0002920   -1.5109385  
C    2.5379463   -0.0001709   -0.3591964  
C    1.1435038    0.0000331   -0.7338500  
C    1.1092599   -0.0000083   -2.2088477  
N    2.4227553    0.0001909   -2.6182613  
C   -0.0265539   -0.0002524   -2.9515660  
C   -1.3003040   -0.0002640   -2.2514977  
O   -2.3786790   -0.0004133   -2.8306421  
C   -1.2877727    0.0000311   -0.6895603  
O   -2.3539959    0.0003306   -0.0892030  
C    0.0000000    0.0000000    0.0000000  
H    2.9384091   -0.0000367    0.6389234  
H   -0.0296303   -0.0004086   -4.0327229  
H    2.7280482   -0.0013407   -3.5742119  
C    0.8175213    0.6860729    2.3021913  
C    0.0000000    0.0000000    1.4700000  
C   -0.8887526   -0.7456559    2.3478473  
C   -0.4549825   -0.3816753    3.7138435  
N    0.5448156    0.4573574    3.6934124  
C   -1.0945674   -0.9182058    4.8835240  
C   -2.1210866   -1.7789155    4.6970523  
O   -2.8083856   -2.3554314    5.6976972  
C   -2.5824069   -2.1655116    3.3310774  
O   -3.5227682   -2.9541547    3.2362962  
C   -1.9100805   -1.6015804    2.1470656  
H   -0.7567140   -0.6349833    5.8697035  
H   -3.4728268   -2.9124471    5.2533954  
H   -2.2742832   -1.9066565    1.1752040  
H    1.6189533    1.3585343    2.0405121  
