60

C    3.9879657   -2.1207069   -5.8133801  
C    5.0154041   -1.6223119   -6.5804783  
C    4.4297185   -0.7487516   -7.5440464  
C    3.0300786   -0.7538271   -7.3140279  
N    2.7957358   -1.5985466   -6.2575479  
C    2.1349317   -0.0016716   -8.0806843  
C    2.6623515    0.7698943   -9.0978828  
O    1.8332701    1.5240322   -9.8769289  
C    4.0560282    0.7878846   -9.3431547  
O    4.4254527    1.6054219  -10.3912486  
C    4.9396745    0.0459065   -8.5874006  
H    6.0585698   -1.8600758   -6.4610326  
H    1.8948810   -1.7947473   -5.8601226  
H    2.3974851    1.9779025  -10.5164040  
H    5.3813999    1.5602553  -10.4898856  
H    6.0020201    0.0797176   -8.7989577  
H    4.0111100   -2.8084501   -4.9854719  
C   -0.2963294   -0.0005341   -4.3948471  
C    0.7278651   -0.0010062   -5.2865309  
C    0.1384644   -0.0010223   -6.6046515  
C   -1.3235472   -0.0004880   -6.4063792  
N   -1.5211839   -0.0006101   -5.0448251  
C   -2.2357329    0.0000549   -7.4111788  
C   -1.7448089   -0.0001089   -8.7792175  
O   -2.4864203    0.0002821   -9.7530304  
C   -0.2003571   -0.0009250   -9.0126110  
O    0.2247524   -0.0013763  -10.1600176  
C    0.6832434   -0.0011819   -7.8493819  
H    1.7765638   -0.0014911   -5.0481103  
H   -3.3039063    0.0005715   -7.2440972  
H   -2.4171880    0.0012260   -4.5929174  
C    3.1301143   -0.0010313   -1.7028257  
C    2.5367765   -0.0002767   -0.4864669  
C    1.1089900    0.0001027   -0.7656184  
C    1.0177864   -0.0004150   -2.2415133  
N    2.1993571   -0.0011613   -2.7963824  
C   -0.2459220   -0.0002879   -2.9257116  
C   -1.3675327   -0.0000606   -2.1698519  
O   -2.6129319    0.0000866   -2.6748482  
C   -1.3083588    0.0000910   -0.6783229  
O   -2.3693264    0.0004206   -0.0541685  
C    0.0000000    0.0000000    0.0000000  
H    3.0096014   -0.0001008    0.4807517  
H   -3.1967445    0.0002093   -1.8949025  
H    4.1849272   -0.0015113   -1.9271980  
C    0.0000000    0.0000000    1.4700000  
C    1.0541688    0.0001722    2.3260392  
C    0.5103138    0.0000454    3.6635956  
C   -0.9576371   -0.0002459    3.5155732  
N   -1.2018458    0.0001392    2.1615969  
C   -1.8348311   -0.0008317    4.5510609  
C   -1.2972847   -0.0009736    5.9014604  
O   -2.0050672   -0.0014265    6.9001319  
C    0.2542623   -0.0004184    6.0817573  
O    0.7184670   -0.0002256    7.2139121  
C    1.0974552   -0.0000873    4.8889129  
H    2.0940752    0.0005483    2.0517982  
H   -2.9081052   -0.0011668    4.4207061  
H    2.1707277    0.0000911    5.0223670  
H   -2.1128194   -0.0014912    1.7406791  
