62

C   10.1215322   -2.0704281   -1.5673712  
C   11.2875263   -1.5595919   -2.0888795  
C   10.9193835   -0.6866608   -3.1552107  
C    9.5035007   -0.7049248   -3.2380866  
N    9.0509845   -1.5565486   -2.2610593  
C    8.7913859    0.0430120   -4.1805683  
C    9.5218899    0.8238406   -5.0551246  
O    8.8769264    1.5743897   -5.9951852  
C   10.9351805    0.8550380   -4.9884046  
O   11.5178954    1.6806113   -5.9276674  
C   11.6383731    0.1172295   -4.0590580  
H   12.2812370   -1.7888684   -1.7439655  
H    8.0867634   -1.7623887   -2.0716174  
H    9.5634239    2.0360985   -6.4939949  
H   12.4725635    1.6441825   -5.8141536  
H   12.7208785    0.1612213   -4.0321430  
H    9.9688971   -2.7617904   -0.7563976  
C    5.5764488    0.0083482   -1.0736993  
C    6.7920324    0.0210898   -1.7176408  
C    6.5213447    0.0205731   -3.1181150  
C    5.1110770    0.0074286   -3.2694408  
N    4.5679461   -0.0016854   -2.0086701  
C    4.4845810    0.0036235   -4.5193514  
C    5.2965301    0.0135701   -5.6368565  
O    4.7370945    0.0107593   -6.8818617  
C    6.7056512    0.0263689   -5.5063537  
O    7.3755159    0.0347625   -6.7124026  
C    7.3243921    0.0298564   -4.2736030  
H    7.7553653    0.0285926   -1.2370925  
H    3.4102461   -0.0065222   -4.6414306  
H    5.4703963    0.0186807   -7.5107261  
H    8.3210779    0.0432149   -6.5350766  
H    5.3490393    0.0041782   -0.0214509  
C    3.1301149   -0.0010311   -1.7028252  
C    2.5367768   -0.0002767   -0.4864665  
C    1.1089904    0.0001028   -0.7656183  
C    1.0177872   -0.0004148   -2.2415132  
N    2.1993578   -0.0011611   -2.7963820  
C   -0.2459209   -0.0002877   -2.9257118  
C   -1.3675319   -0.0000605   -2.1698524  
O   -2.6129313    0.0000867   -2.6748490  
C   -1.3083584    0.0000910   -0.6783232  
O   -2.3693261    0.0004206   -0.0541692  
C    0.0000000    0.0000000    0.0000000  
H    3.0096017   -0.0001007    0.4807525  
H   -0.2829630   -0.0004687   -4.0053125  
H   -3.1967441    0.0002094   -1.8949034  
C    0.0000000    0.0000000    1.4700000  
C    1.0541688    0.0001722    2.3260392  
C    0.5103138    0.0000454    3.6635956  
C   -0.9576371   -0.0002459    3.5155732  
N   -1.2018458    0.0001392    2.1615969  
C   -1.8348311   -0.0008317    4.5510609  
C   -1.2972847   -0.0009736    5.9014604  
O   -2.0050672   -0.0014265    6.9001319  
C    0.2542623   -0.0004184    6.0817573  
O    0.7184670   -0.0002256    7.2139121  
C    1.0974552   -0.0000873    4.8889129  
H    2.0940752    0.0005483    2.0517982  
H   -2.9081052   -0.0011668    4.4207061  
H    2.1707277    0.0000911    5.0223670  
H   -2.1128194   -0.0014912    1.7406791  
