62

C    4.8575557   -0.3797344   -8.7962396  
C    4.3240430    0.8361079   -8.4362957  
C    4.7700859    1.7882702   -9.4001585  
C    5.5792366    1.0892788  -10.3321534  
N    5.6129545   -0.2243739   -9.9349163  
C    6.1891674    1.7155264  -11.4232931  
C    5.9781791    3.0720565  -11.5765510  
O    6.5498228    3.7332891  -12.6248873  
C    5.1743717    3.7869419  -10.6569607  
O    5.0607169    5.1311706  -10.9458849  
C    4.5725701    3.1698342   -9.5801416  
H    6.1016012   -0.9618588  -10.4095970  
H    6.8071319    1.1884496  -12.1370953  
H    6.2790401    4.6571966  -12.5452899  
H    4.5023142    5.5397851  -10.2774344  
H    3.9624703    3.7435591   -8.8923224  
H    4.7601768   -1.3451917   -8.3300118  
C    4.4128858   -0.7149386   -4.2439194  
C    4.6970351   -0.4625188   -5.5660427  
C    3.7102940    0.4538451   -6.0363822  
C    2.8434265    0.7271730   -4.9474562  
N    3.2973506   -0.0000934   -3.8752374  
C    1.7510556    1.5938357   -5.0494863  
C    1.5299296    2.1957718   -6.2729871  
O    0.4776244    3.0511604   -6.4278356  
C    2.3834960    1.9354257   -7.3713775  
O    2.0309911    2.6108145   -8.5215661  
C    3.4611750    1.0803453   -7.2715183  
H    5.5142567   -0.8875292   -6.1232754  
H    1.0865292    1.8062301   -4.2233536  
H    0.5051644    3.3547821   -7.3445254  
H    2.6574457    2.3795720   -9.2141590  
H    4.9168469   -1.3494398   -3.5351244  
C    3.3321174    0.0004714   -1.3379332  
C    2.6974186    0.0000115   -2.5332308  
C    1.2800441   -0.0002119   -2.2052838  
C    1.2395035    0.0000643   -0.7271293  
N    2.4394063    0.0005458   -0.2131034  
C    0.0000000    0.0000000    0.0000000  
C   -1.1468701    0.0000634   -0.7169542  
O   -2.3742201    0.0000072   -0.1695492  
C   -1.1388767    0.0001606   -2.2096354  
O   -2.2206229    0.0000903   -2.7970413  
C    0.1454526    0.0001815   -2.9324239  
H   -2.9844344    0.0001023   -0.9290168  
H    0.1083580    0.0003680   -4.0135594  
H    4.3940040    0.0007617   -1.1498630  
C    2.4951002    2.0940188    2.9809380  
C    1.9440701    1.6314916    1.8291961  
C    0.8759964    0.7350050    2.2038498  
C    0.8497377    0.7130254    3.6788474  
N    1.8560616    1.5571714    4.0882609  
C   -0.0205033   -0.0168748    4.4215661  
C   -0.9962600   -0.8356168    3.7214979  
O   -1.8224391   -1.5286685    4.3006425  
C   -0.9864710   -0.8277881    2.1595606  
O   -1.8030528   -1.5133726    1.5592035  
C    0.0000000    0.0000000    1.4700000  
H    2.2509283    1.8888011    0.8310761  
H   -0.0229599   -0.0187323    5.5027230  
H    3.3143982    2.7817323    3.1139444  
H    2.0889452    1.7545833    5.0442112  
