66

C   -3.3012638   -0.1375356   -1.5420425  
C   -2.5823209   -0.1070128   -0.3695849  
C   -1.2029591   -0.0500735   -0.7283585  
C   -1.1412248   -0.0481087   -2.1454371  
N   -2.4326489   -0.1038742   -2.6077460  
C    0.0654976    0.0018458   -2.8497917  
C    1.2311205    0.0510136   -2.1101399  
O    2.4371751    0.1013346   -2.7472521  
C    1.1900899    0.0495392   -0.6955264  
O    2.4350340    0.1015925   -0.1032865  
C    0.0000000    0.0000000    0.0000000  
H   -3.0005579   -0.1248346    0.6222591  
H   -2.7034182   -0.1054160   -3.5745256  
H    0.1193131    0.0034808   -3.9297471  
H    3.1106022    0.1295462   -2.0551789  
H    2.3180042    0.0968962    0.8516406  
C   -5.7026298   -0.2543985   -0.7673027  
C   -6.9530792   -0.3181688   -1.3371935  
C   -6.7674264   -0.3024582   -2.7513668  
C   -5.3706981   -0.2278830   -2.9869805  
N   -4.7535847   -0.1983852   -1.7610452  
C   -4.8212945   -0.1938531   -4.2721991  
C   -5.6978327   -0.2361786   -5.3390014  
O   -5.2149672   -0.2060579   -6.6153047  
C   -7.0946858   -0.3103070   -5.1242398  
O   -7.8349239   -0.3447089   -6.2879447  
C   -7.6374018   -0.3436412   -3.8566141  
H   -7.8845317   -0.3685707   -0.7997463  
H   -3.7576882   -0.1368928   -4.4584756  
H   -5.9837586   -0.2441660   -7.1990620  
H   -8.7668589   -0.3945377   -6.0542395  
H   -5.4127064   -0.2429943    0.2694105  
C   -9.8194043    0.2573630   -2.7234122  
C   -9.0942089   -0.4205395   -3.6757812  
C  -10.0223957   -1.1956974   -4.4322196  
C  -11.3099217   -0.9479253   -3.8910983  
N  -11.1504962   -0.0628205   -2.8538954  
C  -12.4692524   -1.5471135   -4.3928085  
C  -12.3262658   -2.4119508   -5.4604173  
O  -13.4255513   -3.0240168   -5.9895288  
C  -11.0500245   -2.6722170   -6.0138502  
O  -11.0731176   -3.5563178   -7.0727058  
C   -9.9058515   -2.0816660   -5.5192345  
H  -11.8921081    0.3058793   -2.2863989  
H  -13.4534446   -1.3625492   -3.9847589  
H  -13.1074503   -3.5772695   -6.7147798  
H  -10.1721489   -3.6771242   -7.3877690  
H   -8.9419821   -2.3004944   -5.9636984  
H   -9.4922980    0.9428345   -1.9604641  
C    0.8576279    0.7185626    2.2703808  
C    0.0000000    0.0000000    1.4700000  
C   -0.8668858   -0.7285659    2.3373528  
C   -0.4876752   -0.4117774    3.6669281  
N    0.5635254    0.4678311    3.5902241  
C   -1.1297612   -0.9515493    4.7854808  
C   -2.1738724   -1.8268314    4.5576857  
O   -2.8357962   -2.3827064    5.6140350  
C   -2.5667212   -2.1555554    3.2384331  
O   -3.6226318   -3.0413663    3.1773122  
C   -1.9335634   -1.6236449    2.1344818  
H    1.0363952    0.8769718    4.3757045  
H   -0.8454472   -0.7142436    5.8013813  
H   -3.5178062   -2.9546422    5.2385129  
H   -3.8247440   -3.2102924    2.2519915  
H   -2.2566033   -1.8942483    1.1360343  
H    1.6567807    1.3889844    2.0042067  
