60

C    0.4014810    0.7066300   -7.1346349  
C   -0.8133975    0.4553189   -7.7290924  
C   -0.5720510   -0.4535448   -8.8016214  
C    0.8203718   -0.7236519   -8.8129306  
N    1.3818831   -0.0017551   -7.7891202  
C    1.4165451   -1.5829503   -9.7408169  
C    0.5920114   -2.1806986  -10.6741012  
O    1.1218733   -3.0288656  -11.6030105  
C   -0.7996142   -1.9234646  -10.6791832  
O   -1.4851944   -2.5939719  -11.6710207  
C   -1.3883979   -1.0756479   -9.7642689  
H   -1.7572714    0.8762408   -7.4275618  
H    2.4771793   -1.7928565   -9.7548271  
H    0.3844711   -3.3306113  -12.1493196  
H   -2.4173206   -2.3652680  -11.6043825  
H   -2.4570577   -0.8978176   -9.7929174  
H    0.6464316    1.3362498   -6.2964602  
C    3.2973507   -0.0000930   -3.8752373  
C    4.6109361    0.0001678   -4.2009260  
C    4.6367192   -0.0000873   -5.6555166  
C    3.2125792   -0.0006166   -6.0535230  
N    2.4227566   -0.0005416   -5.0142111  
C    2.8079495   -0.0009501   -7.4324213  
C    3.7817669   -0.0003744   -8.3710449  
O    3.5485413   -0.0006026   -9.6945429  
C    5.2278970    0.0005395   -8.0010886  
O    6.0602352    0.0009039   -8.9079698  
C    5.6174380    0.0008223   -6.5797569  
H    5.4578082    0.0005835   -3.5361832  
H    4.4333802   -0.0000281  -10.1022326  
H    6.6752631    0.0016050   -6.3534027  
C    3.3321175    0.0004715   -1.3379331  
C    2.6974186    0.0000117   -2.5332308  
C    1.2800441   -0.0002117   -2.2052838  
C    1.2395036    0.0000644   -0.7271292  
N    2.4394065    0.0005460   -0.2131033  
C    0.0000000    0.0000000    0.0000000  
C   -1.1468701    0.0000635   -0.7169542  
O   -2.3742199    0.0000073   -0.1695491  
C   -1.1388766    0.0001607   -2.2096354  
O   -2.2206227    0.0000905   -2.7970412  
C    0.1454526    0.0001817   -2.9324239  
H   -2.9844344    0.0001026   -0.9290168  
H    0.1083579    0.0003683   -4.0135594  
H    4.3940038    0.0007619   -1.1498630  
C    0.0000000    0.0000000    1.4700000  
C    1.0662921    0.0000102    2.3034270  
C    0.4961870   -0.0000064    3.6418889  
C   -0.9663858    0.0000850    3.4240247  
N   -1.2632773    0.0000084    2.1528658  
C   -1.8985362    0.0000517    4.5177257  
C   -1.3925775   -0.0004564    5.7720543  
O   -2.1456383   -0.0005410    6.8851312  
C    0.0786232   -0.0009323    6.0245000  
O    0.4683759   -0.0012588    7.1921102  
C    1.0143166   -0.0008442    4.8859032  
H    2.1107198   -0.0000632    2.0421868  
H   -2.9622183    0.0003270    4.3293377  
H   -1.5042274   -0.0009692    7.6184419  
H    2.0724152   -0.0013148    5.1109744  
