60

C   -8.4445490    0.6955070   -2.5716036  
C   -8.0669888   -0.5572301   -2.9965334  
C   -9.1740221   -1.4265060   -2.7653680  
C  -10.2074232   -0.6412540   -2.1931910  
N   -9.7307038    0.6417910   -2.0875906  
C  -11.4502304   -1.1719755   -1.8346447  
C  -11.6536348   -2.5198973   -2.0580535  
O  -12.8489451   -3.0895894   -1.7268478  
C  -10.6346613   -3.3199776   -2.6275986  
O  -10.9906308   -4.6433670   -2.7865670  
C   -9.4082634   -2.7971355   -2.9813066  
H  -10.2455494    1.4242955   -1.7262004  
H  -12.2419277   -0.5788591   -1.3980306  
H  -12.7804294   -4.0241283   -1.9618095  
H  -10.2473987   -5.1134909   -3.1766854  
H   -8.6470505   -3.4347240   -3.4154892  
H   -7.8976568    1.6227939   -2.5741617  
C   -3.9877630    0.7060337   -1.9730980  
C   -3.2941076    0.0012878   -2.9038237  
C   -4.2616235   -0.7404938   -3.6774573  
C   -5.5852979   -0.4077256   -3.1171519  
N   -5.3499626    0.4732136   -2.0868838  
C   -6.7614337   -0.9068528   -3.5746252  
C   -6.7208869   -1.8338309   -4.6933759  
O   -7.7257851   -2.3379509   -5.1774666  
C   -5.3299840   -2.2005531   -5.3022342  
O   -5.2832946   -2.9801748   -6.2441853  
C   -4.1317824   -1.5978944   -4.7234703  
H   -3.1726434   -1.8568417   -5.1509310  
H   -3.6184115    1.3757280   -1.2135067  
H   -6.0587599    0.8852726   -1.5082127  
C    0.0000000    0.0000000    0.0000000  
C    1.0541688   -0.0001723   -0.8560392  
C    0.5103136   -0.0000455   -2.1935956  
C   -0.9576373    0.0002461   -2.0455730  
N   -1.2018460   -0.0001389   -0.6915968  
C   -1.8348314    0.0008319   -3.0810607  
C   -1.2972851    0.0009739   -4.4314603  
O   -2.0050676    0.0014268   -5.4301316  
C    0.2542619    0.0004184   -4.6117572  
O    0.7184666    0.0002257   -5.7439122  
C    1.0974551    0.0000873   -3.4189129  
H    2.0940752   -0.0005484   -0.5817983  
H    2.1707276   -0.0000912   -3.5523673  
H   -2.1128194    0.0014915   -0.2706789  
C    3.3321173   -0.0004715    2.8079335  
C    2.6974184   -0.0000116    4.0032312  
C    1.2800439    0.0002118    3.6752840  
C    1.2395035   -0.0000644    2.1971295  
N    2.4394063   -0.0005460    1.6831036  
C    0.0000000    0.0000000    1.4700000  
C   -1.1468701   -0.0000635    2.1869543  
O   -2.3742202   -0.0000073    1.6395491  
C   -1.1388768   -0.0001607    3.6796354  
O   -2.2206231   -0.0000905    4.2670412  
C    0.1454524   -0.0001816    4.4024240  
H    3.1367986    0.0000651    4.9860947  
H   -2.9844344   -0.0001026    2.3990168  
H    0.1083576   -0.0003682    5.4835595  
H    4.3940039   -0.0007619    2.6198634  
