60

C    7.2977069   -4.2786102   -1.1319326  
C    6.5573873   -3.4746285   -1.9674012  
C    7.1234433   -3.5956887   -3.2710597  
C    8.2156158   -4.4949165   -3.1687211  
N    8.2947441   -4.8891912   -1.8561264  
C    9.0079847   -4.8501751   -4.2645004  
C    8.6918674   -4.2876507   -5.4858989  
O    9.4326701   -4.6003408   -6.5888275  
C    7.6061881   -3.3880977   -5.6080554  
O    7.4193649   -2.9131609   -6.8898022  
C    6.8242361   -3.0369665   -4.5274151  
H    5.7138866   -2.8738511   -1.6731807  
H    8.9673542   -5.5348041   -1.4836251  
H    9.8418520   -5.5348390   -4.1930727  
H    9.0486229   -4.1062149   -7.3247701  
H    6.6675182   -2.3129030   -6.8851675  
H    7.1943043   -4.4637122   -0.0764687  
C    5.7052414   -2.0986832   -4.6958680  
C    4.8302126   -1.6343308   -3.7670099  
C    3.9272648   -0.7382851   -4.4501080  
C    4.3509914   -0.7185532   -5.8632098  
N    5.4336782   -1.5634475   -5.9458741  
C    3.7483765    0.0103197   -6.8365049  
C    2.6063696    0.8302497   -6.4676277  
O    1.9959432    1.5225187   -7.2716453  
C    2.1405130    0.8248035   -4.9767376  
O    1.1803930    1.5114043   -4.6542318  
C    2.8699641   -0.0020530   -4.0185824  
H    4.8187254   -1.8901546   -2.7224838  
H    4.0749498    0.0105278   -7.8671645  
H    5.9462301   -1.7623466   -6.7853838  
C    3.2573670   -0.0002921   -1.5109382  
C    2.5379468   -0.0001711   -0.3591962  
C    1.1435043    0.0000330   -0.7338498  
C    1.1092608   -0.0000085   -2.2088474  
N    2.4227562    0.0001906   -2.6182610  
C   -0.0265533   -0.0002525   -2.9515663  
C   -1.3003033   -0.0002641   -2.2514979  
O   -2.3786785   -0.0004132   -2.8306425  
C   -1.2877724    0.0000310   -0.6895608  
O   -2.3539956    0.0003306   -0.0892035  
C    0.0000000    0.0000000    0.0000000  
H    2.9384091   -0.0000370    0.6389240  
H   -0.0296290   -0.0004088   -4.0327231  
H    4.3270394   -0.0004767   -1.6439445  
C    2.5528530    2.1414826    2.8079335  
C    2.0663498    1.7338582    4.0032312  
C    0.9804344    0.8229586    3.6752840  
C    0.9495562    0.7966882    2.1971295  
N    1.8690446    1.5676019    1.6831036  
C    0.0000000    0.0000000    1.4700000  
C   -0.8785127   -0.7372425    2.1869543  
O   -1.8187535   -1.5261249    1.6395491  
C   -0.8723269   -0.7321790    3.6796354  
O   -1.7010379   -1.4274584    4.2670412  
C    0.1115397    0.0933559    4.4024240  
H    2.4028853    2.0163452    4.9860947  
H   -2.2861435   -1.9184361    2.3990168  
H    0.0832434    0.0693689    5.4835595  
H    3.3664920    2.8238276    2.6198634  
