64

C    8.7600214   -0.0052203   -3.0533668  
C    9.8864852   -0.0067736   -2.2637185  
C   11.0105253   -0.0084215   -3.1418574  
C   10.5037187   -0.0074927   -4.4666487  
N    9.1338453   -0.0075002   -4.3768467  
C   11.3318120   -0.0083509   -5.5931696  
C   12.6963832   -0.0098734   -5.3784092  
O   13.5506174   -0.0104131   -6.4429735  
C   13.2212080   -0.0111943   -4.0641138  
O   14.5999919   -0.0130566   -4.0161719  
C   12.4048681   -0.0106219   -2.9523077  
H    9.8967744   -0.0078301   -1.1872025  
H    8.5011502    0.0036240   -5.1563044  
H   10.9517832   -0.0077946   -6.6054840  
H   14.4442489   -0.0117868   -6.0759778  
H   14.8722364   -0.0138287   -3.0934119  
H   12.8357958   -0.0118486   -1.9579346  
C    6.6962559   -0.0006582    0.9128043  
C    7.6449136   -0.0016132   -0.0834457  
C    6.9440364   -0.0023812   -1.3257702  
C    5.5585247   -0.0015568   -1.0219874  
N    5.4432390   -0.0024701    0.3459766  
C    4.5679461   -0.0016854   -2.0086701  
C    4.9836054   -0.0023571   -3.3260176  
O    4.0581867   -0.0021607   -4.3293196  
C    6.3614227   -0.0035602   -3.6491825  
O    6.6142428   -0.0045343   -5.0054365  
C    7.3392016   -0.0037074   -2.6763133  
H    8.7109485   -0.0028459    0.0667588  
H    4.5782209    0.0083750    0.8554935  
H    4.5542211   -0.0030158   -5.1583030  
H    7.5672638   -0.0052860   -5.1371686  
H    6.8142882   -0.0002735    1.9828635  
C    3.1301149   -0.0010311   -1.7028252  
C    2.5367768   -0.0002767   -0.4864665  
C    1.1089904    0.0001028   -0.7656183  
C    1.0177872   -0.0004148   -2.2415132  
N    2.1993578   -0.0011611   -2.7963820  
C   -0.2459209   -0.0002877   -2.9257118  
C   -1.3675319   -0.0000605   -2.1698524  
O   -2.6129313    0.0000867   -2.6748490  
C   -1.3083584    0.0000910   -0.6783232  
O   -2.3693261    0.0004206   -0.0541692  
C    0.0000000    0.0000000    0.0000000  
H    3.0096017   -0.0001007    0.4807525  
H   -0.2829630   -0.0004687   -4.0053125  
H   -3.1967441    0.0002094   -1.8949034  
C    2.5311839    2.1237619    3.0120429  
C    1.9795631    1.6616747    1.8395852  
C    0.9223175    0.7739173    2.1983588  
C    0.8753926    0.7337535    3.6154372  
N    1.8668922    1.5631002    4.0777464  
C   -0.0496243   -0.0427881    4.3197917  
C   -0.9437528   -0.7922060    3.5801400  
O   -1.8685244   -1.5680278    4.2172520  
C   -0.9124520   -0.7656372    2.1655264  
O   -1.8671164   -1.5663939    1.5732860  
C    0.0000000    0.0000000    1.4700000  
H    2.3005065    1.9304404    0.8477417  
H    2.0679347    1.7444845    5.0445261  
H   -0.0904770   -0.0778569    5.3997470  
H   -2.3849669   -2.0011402    3.5251786  
H   -1.7775064   -1.4909735    0.6183591  
H    3.3468514    2.8078103    3.1724291  
