64

C   -0.1918093   -0.6567193   -5.1170602  
C   -0.1066354   -0.3930688   -6.4645397  
C   -1.1576407    0.5190708   -6.7775728  
C   -1.8568371    0.7783666   -5.5710006  
N   -1.2456334    0.0471639   -4.5828767  
C   -2.9578877    1.6374766   -5.5046090  
C   -3.3602483    2.2461477   -6.6775553  
O   -4.4293569    3.0946485   -6.6693814  
C   -2.6756822    1.9997977   -7.8914322  
O   -3.1976931    2.6804256   -8.9719849  
C   -1.5895575    1.1521743   -7.9577217  
H    0.6225531   -0.8080758   -7.1391113  
H   -3.4951651    1.8391732   -4.5881742  
H   -4.5387591    3.4047763   -7.5777414  
H   -2.6783306    2.4586747   -9.7508904  
H    0.4148926   -1.2922824   -4.4950222  
C    1.1243406    0.0100009   -0.7919006  
C    0.7474076    0.0234600   -2.1148541  
C   -0.6787382    0.0234440   -2.1414701  
C   -1.1201747    0.0098511   -0.7935543  
N    0.0000000    0.0000000    0.0000000  
C   -2.4730817    0.0063527   -0.4408239  
C   -3.3971961    0.0170733   -1.4675058  
O   -4.7313519    0.0145913   -1.1793472  
C   -2.9763651    0.0303289   -2.8186326  
O   -4.0166478    0.0394824   -3.7247625  
C   -1.6418566    0.0335141   -3.1673479  
H    1.4178714    0.0311078   -2.9571209  
H   -2.8160166   -0.0041319    0.5845963  
H   -5.1938823    0.0230486   -2.0274382  
H   -3.6464679    0.0482029   -4.6127345  
H    2.1062468    0.0052974   -0.3505403  
C    0.1021880   -2.5066881   -9.7769537  
C    0.5544324   -1.9309228  -10.9416150  
C    0.2226813   -0.5451430  -10.8771513  
C   -0.4361876   -0.3320520   -9.6392459  
N   -0.4943637   -1.5439059   -8.9968729  
C   -0.9056486    0.9224596   -9.2385029  
C   -0.7060853    1.9812015  -10.1030352  
O   -1.1442358    3.2278962   -9.7612900  
C   -0.0511734    1.7885127  -11.3427045  
O    0.0707401    2.9405386  -12.0919157  
C    0.4119829    0.5511334  -11.7388174  
H    1.0601386   -2.4465369  -11.7399862  
H   -0.8972222   -1.7017747   -8.0909127  
H   -0.9075074    3.8109563  -10.4942741  
H    0.5236366    2.7232205  -12.9124414  
H    0.9097582    0.4341729  -12.6943369  
H    0.1566853   -3.5282246   -9.4416148  
C    2.4951002    2.0940188    2.9809380  
C    1.9440701    1.6314916    1.8291961  
C    0.8759964    0.7350050    2.2038498  
C    0.8497377    0.7130254    3.6788474  
N    1.8560616    1.5571714    4.0882609  
C   -0.0205033   -0.0168748    4.4215661  
C   -0.9962600   -0.8356168    3.7214979  
O   -1.8224391   -1.5286685    4.3006425  
C   -0.9864710   -0.8277881    2.1595606  
O   -1.8030528   -1.5133726    1.5592035  
C    0.0000000    0.0000000    1.4700000  
H    2.2509283    1.8888011    0.8310761  
H   -0.0229599   -0.0187323    5.5027230  
H    3.3143982    2.7817323    3.1139444  
H    2.0889452    1.7545833    5.0442112  
