64

C    6.0516302   -2.0736823   -4.7437825  
C    7.0798885   -2.9276228   -4.4183004  
C    7.9820570   -2.9331453   -5.5231352  
C    7.4474914   -2.0560920   -6.5013707  
N    6.2741372   -1.5526944   -5.9969436  
C    8.0766633   -1.8161776   -7.7266759  
C    9.2673179   -2.4733860   -7.9687452  
O    9.9237724   -2.2751906   -9.1489140  
C    9.8164280   -3.3526262   -7.0052972  
O   11.0067556   -3.9310175   -7.3950769  
C    9.1961429   -3.5899913   -5.7964013  
H    7.1682320   -3.4796057   -3.4982439  
H    5.6767834   -0.8945366   -6.4638243  
H    7.6743435   -1.1490125   -8.4764968  
H   10.7201436   -2.8208969   -9.1133735  
H   11.3094647   -4.5096392   -6.6885584  
H    9.6406375   -4.2689504   -5.0781277  
C    4.4925592   -2.1138025   -2.7420812  
C    4.8565033   -1.6946791   -3.9763664  
C    3.8030380   -0.7794120   -4.3874582  
C    2.8583246   -0.7634597   -3.2499848  
N    3.2572736   -1.5437000   -2.2824861  
C    1.6628945    0.0339172   -3.2649299  
C    1.4223699    0.7816762   -4.3659921  
O    0.3461538    1.5724674   -4.5158198  
C    2.3568204    0.7871864   -5.5300084  
O    2.0745625    1.4917539   -6.4990983  
C    3.5763792   -0.0392797   -5.4905723  
H    0.4536189    1.9730611   -5.3973685  
H    4.2275608   -0.0074320   -6.3538098  
H    5.0117284   -2.8025037   -2.0946814  
C    1.1243410    0.0100105   -0.7919003  
C    0.7474072    0.0234665   -2.1148542  
C   -0.6787384    0.0234379   -2.1414698  
C   -1.1201748    0.0098411   -0.7935547  
N    0.0000000    0.0000000    0.0000000  
C   -2.4730818    0.0063307   -0.4408240  
C   -3.3971962    0.0170429   -1.4675058  
O   -4.7313520    0.0145490   -1.1793468  
C   -2.9763654    0.0303020   -2.8186325  
O   -4.0166484    0.0394464   -3.7247625  
C   -1.6418567    0.0334992   -3.1673480  
H   -2.8160166   -0.0041569    0.5845966  
H   -5.1938823    0.0230023   -2.0274386  
H   -3.6464680    0.0481700   -4.6127343  
H   -1.3497475    0.0435647   -4.2109234  
H    2.1062466    0.0053162   -0.3505405  
C    0.8676693    0.7151171    2.2619005  
C    0.5875920    0.4624972    3.5848544  
C   -0.5048400   -0.4542819    3.6114698  
C   -0.8517165   -0.7276451    2.2635546  
N    0.0000000    0.0000000    1.4700000  
C   -1.8902865   -1.5946756    1.9108239  
C   -2.5912627   -2.1969500    2.9375057  
O   -3.6148162   -3.0527051    2.6493466  
C   -2.2603868   -1.9365747    4.2886322  
O   -3.0513550   -2.6123276    5.1947621  
C   -1.2361111   -1.0811317    4.6373480  
H    1.1060808    0.8876438    4.4271209  
H   -2.1597133   -1.8070987    0.8854031  
H   -3.9636755   -3.3565188    3.4974381  
H   -2.7621927   -2.3810384    6.0827341  
H   -1.0058879   -0.9010589    5.6809233  
H    1.6167816    1.3499334    1.8205408  
