62

C    4.2826179   -2.1277395   -5.8681056  
C    5.3149385   -1.6301313   -6.6291364  
C    4.7357069   -0.7553499   -7.5954943  
C    3.3347911   -0.7589038   -7.3733520  
N    3.0935190   -1.6039299   -6.3186786  
C    2.4448536   -0.0052711   -8.1446096  
C    2.9788914    0.7662344   -9.1583952  
O    2.1550905    1.5217789   -9.9416691  
C    4.3739457    0.7827185   -9.3958163  
O    4.7502180    1.6003982  -10.4413597  
C    5.2524555    0.0392829   -8.6355203  
H    6.3571358   -1.8691899   -6.5039602  
H    2.1902136   -1.7992886   -5.9264344  
H    2.7234255    1.9753369  -10.5777077  
H    5.7066511    1.5541601  -10.5346449  
H    6.3160129    0.0719594   -8.8410825  
H    4.3002982   -2.8159664   -5.0404651  
C   -0.0307354   -0.0004645   -4.4215603  
C    1.0189061   -0.0016692   -5.3107837  
C    0.4547320   -0.0019244   -6.6208633  
C   -0.9553004   -0.0005441   -6.4668066  
N   -1.2160411   -0.0016342   -5.1189823  
C   -1.8348232   -0.0000755   -7.5536496  
C   -1.2808345   -0.0007105   -8.8190637  
O   -2.0937943    0.0000573   -9.9154712  
C    0.1236178   -0.0024627   -8.9932143  
O    0.5198544   -0.0033225  -10.3147050  
C    0.9918893   -0.0031992   -7.9214727  
H    2.0627983   -0.0033932   -5.0475745  
H   -2.1305285    0.0095049   -4.7047719  
H   -2.9104358    0.0008310   -7.4429318  
H   -1.5120534   -0.0008768  -10.6867311  
H    1.4814940   -0.0044691  -10.3438900  
C    3.2573669   -0.0002919   -1.5109381  
C    2.5379467   -0.0001709   -0.3591962  
C    1.1435042    0.0000332   -0.7338501  
C    1.1092607   -0.0000081   -2.2088477  
N    2.4227561    0.0001910   -2.6182614  
C   -0.0265534   -0.0002522   -2.9515663  
C   -1.3003036   -0.0002639   -2.2514981  
O   -2.3786785   -0.0004131   -2.8306428  
C   -1.2877726    0.0000312   -0.6895608  
O   -2.3539957    0.0003306   -0.0892035  
C    0.0000000    0.0000000    0.0000000  
H    2.9384091   -0.0000368    0.6389238  
H    4.3270391   -0.0004764   -1.6439447  
H    2.7280492   -0.0013405   -3.5742114  
C    0.0000000    0.0000000    1.4700000  
C    1.0541688    0.0001722    2.3260392  
C    0.5103138    0.0000454    3.6635956  
C   -0.9576371   -0.0002459    3.5155732  
N   -1.2018458    0.0001392    2.1615969  
C   -1.8348311   -0.0008317    4.5510609  
C   -1.2972847   -0.0009736    5.9014604  
O   -2.0050672   -0.0014265    6.9001319  
C    0.2542623   -0.0004184    6.0817573  
O    0.7184670   -0.0002256    7.2139121  
C    1.0974552   -0.0000873    4.8889129  
H    2.0940752    0.0005483    2.0517982  
H   -2.9081052   -0.0011668    4.4207061  
H    2.1707277    0.0000911    5.0223670  
H   -2.1128194   -0.0014912    1.7406791  
