64

C    0.1067682   -0.7134232   -5.1553162  
C   -0.9736305    0.0040473   -4.6965763  
C   -1.4915509    0.7330083   -5.8078704  
C   -0.6796794    0.4175751   -6.9273761  
N    0.2823069   -0.4616403   -6.4958911  
C   -0.9002265    0.9580657   -8.1978162  
C   -1.9598376    1.8326857   -8.3407930  
O   -2.2203380    2.3892148   -9.5595750  
C   -2.7809953    2.1600572   -7.2356487  
O   -3.7946146    3.0453494   -7.5392530  
C   -2.5638414    1.6274373   -5.9819792  
H    0.9958917   -0.8698707   -7.0721947  
H   -2.9901244    2.9605152   -9.4399521  
H   -4.3015388    3.2133595   -6.7390003  
H   -3.2094974    1.8970058   -5.1543687  
H    0.7669086   -1.3837318   -4.6320004  
C    1.1188640    0.0008226   -0.8003814  
C    0.0000000    0.0000000    0.0000000  
C   -1.1323862    0.0008901   -0.8673531  
C   -0.6382668    0.0019684   -2.1969280  
N    0.7324012    0.0038484   -2.1202243  
C   -1.4770920    0.0027325   -3.3154808  
C   -2.8395478    0.0020950   -3.0876858  
O   -3.7039209    0.0024430   -4.1440343  
C   -3.3517874    0.0013935   -1.7684326  
O   -4.7300498    0.0012368   -1.7073121  
C   -2.5248543    0.0009124   -0.6644821  
H    1.3576310   -0.0056162   -2.9057047  
H   -4.5940039    0.0021832   -3.7685127  
H   -4.9934606    0.0007262   -0.7819905  
H   -2.9462579    0.0005604    0.3339662  
H    2.1619892    0.0009358   -0.5342072  
C    0.4380367   -0.6067539   -9.6698477  
C   -0.0638395    0.6368582   -9.3632268  
C    0.3840286    1.5293149  -10.3818212  
C    1.1616335    0.7669579  -11.2907046  
N    1.1756520   -0.5253489  -10.8277104  
C    1.7643427    1.3240522  -12.4225955  
C    1.5784296    2.6752971  -12.6411157  
O    2.1443593    3.2703071  -13.7313918  
C    0.8062661    3.4527835  -11.7455187  
O    0.7149337    4.7828052  -12.1005475  
C    0.2116106    2.9039164  -10.6285335  
H    1.6403914   -1.2961679  -11.2724989  
H    2.3583167    0.7484697  -13.1190883  
H    1.8940443    4.2026341  -13.6943352  
H    0.1772496    5.2365382  -11.4443267  
H   -0.3740189    3.5245953   -9.9604961  
H    0.3293912   -1.5451002   -9.1534549  
C    0.8400945    0.7047457    2.2710304  
C    0.0000000    0.0000000    1.4700000  
C   -0.8844236   -0.7423113    2.3369512  
C   -0.4878984   -0.4098547    3.7186280  
N    0.5629682    0.4714286    3.6095011  
C   -1.0836927   -0.9095027    4.8308716  
C   -2.1891196   -1.8367527    4.6554461  
O   -2.7906899   -2.3413415    5.5944904  
C   -2.6257283   -2.2031529    3.2011665  
O   -3.5549479   -2.9829990    3.0410059  
C   -1.9068976   -1.5999348    2.0816745  
H   -0.7774656   -0.6525820    5.8354244  
H   -2.2155208   -1.8586617    1.0779135  
H    1.6384792    1.3747609    1.9961646  
H    1.0518368    0.8833920    4.3830260  
