62

C    1.0649054   -0.0025327   -7.6534432  
C   -0.2572448    0.0010139   -7.2734778  
C   -1.0342255    0.0018274   -8.4696802  
C   -0.1237904   -0.0016413   -9.5573480  
N    1.1422457   -0.0022783   -9.0265300  
C   -0.5400921   -0.0022104  -10.8920697  
C   -1.9002511    0.0004695  -11.1331883  
O   -2.3614384   -0.0002980  -12.4178361  
C   -2.8243071    0.0043230  -10.0613104  
O   -4.1436032    0.0070685  -10.4647889  
C   -2.4143275    0.0051599   -8.7443283  
H   -0.6173880    0.0039006   -6.2589426  
H    1.9941910   -0.0150914   -9.5575732  
H    0.1487558   -0.0047033  -11.7255470  
H   -3.3258599    0.0022173  -12.3617152  
H   -4.7013855    0.0095626   -9.6809035  
H   -3.1454619    0.0083224   -7.9443836  
C    1.6707638   -0.0012342   -3.2725973  
C    3.0463715   -0.0037084   -3.2854244  
C    3.4499894   -0.0054181   -4.6535215  
C    2.2671970   -0.0035760   -5.4364167  
N    1.2050907   -0.0030040   -4.5666196  
C    2.2856096   -0.0042331   -6.8344327  
C    3.5205414   -0.0064893   -7.4533971  
O    3.5962543   -0.0068718   -8.8162176  
C    4.7118869   -0.0087264   -6.6895200  
O    5.8613547   -0.0112433   -7.4524499  
C    4.6944758   -0.0083530   -5.3103089  
H    3.6808652   -0.0053233   -2.4157072  
H    0.2370773    0.0088103   -4.8326874  
H    4.5366388   -0.0088424   -9.0374353  
H    6.6195098   -0.0126143   -6.8601637  
H    5.6233652   -0.0102881   -4.7520624  
C    1.0965515    0.0001359   -0.8010305  
C    0.0000000    0.0000000    0.0000000  
C   -1.1546564    0.0001470   -0.8669509  
C   -0.6372018    0.0003521   -2.2486279  
N    0.7342868    0.0007339   -2.1395011  
C   -1.4147743    0.0001355   -3.3608714  
C   -2.8576049   -0.0001046   -3.1854455  
O   -3.6427782   -0.0002491   -4.1244898  
C   -3.4275842   -0.0000725   -1.7311664  
O   -4.6406831    0.0000334   -1.5710053  
C   -2.4891868   -0.0001091   -0.6116742  
H   -1.0150456    0.0001619   -4.3654242  
H   -2.8919123   -0.0002920    0.3920869  
H    2.1388270    0.0000663   -0.5261648  
C    2.5128556    2.1077716    2.9199648  
C    1.9592212    1.6432552    4.0696553  
C    0.8915788    0.7479214    3.6910360  
C    0.8684491    0.7287414    2.2159470  
N    1.8754542    1.5738793    1.8102719  
C    0.0000000    0.0000000    1.4700000  
C   -0.9772830   -0.8200135    2.1664417  
O   -1.8021297   -1.5120829    1.5842315  
C   -0.9711318   -0.8147624    3.7284083  
O   -1.7894187   -1.5009653    4.3257297  
C    0.0140216    0.0115358    4.4216297  
H    2.2638494    1.8988021    5.0689105  
H    0.0117648    0.0094386    5.5031631  
H    3.3327358    2.7953732    2.7900019  
H    2.1123206    1.7707734    0.8551938  
