64

C   -0.1490081    0.6979029   -9.3249880  
C    0.9464702   -0.1188071   -9.4842934  
C    1.3367086   -0.0296353  -10.8533670  
C    0.4349967    0.8641537  -11.4858088  
N   -0.4553713    1.2860002  -10.5298242  
C    0.5203950    1.1903957  -12.8426673  
C    1.5347256    0.6039095  -13.5743398  
O    1.6641644    0.8877909  -14.9031242  
C    2.4439835   -0.2906740  -12.9613251  
O    3.3973688   -0.7917692  -13.8234761  
C    2.3601697   -0.6131865  -11.6228610  
H    1.4069255   -0.7073859   -8.7093429  
H   -1.2062005    1.9348921  -10.6820577  
H   -0.1638190    1.8707634  -13.3306752  
H    2.4236888    0.3805797  -15.2179661  
H    3.9706386   -1.3866738  -13.3304711  
H    3.0709017   -1.3018167  -11.1811293  
C    0.1164984   -0.7216419   -5.1523588  
C    0.3272668   -0.5036916   -6.4760466  
C   -0.6879583    0.4235573   -6.9169126  
C   -1.5133656    0.7301691   -5.7330708  
N   -0.9736297    0.0040464   -4.6965763  
C   -2.5790057    1.5704732   -5.7354628  
C   -2.9370204    2.2158101   -6.9876212  
O   -3.8800007    2.9891572   -7.0926151  
C   -2.0769065    1.9054816   -8.2539958  
O   -2.3689422    2.4426617   -9.3139075  
C   -0.9518080    0.9825225   -8.1269039  
H    1.1050430   -0.9425533   -7.0752779  
H   -3.1711432    1.7818107   -4.8559063  
H    0.6657002   -1.3515125   -4.4715280  
C    1.1188642    0.0008222   -0.8003808  
C    0.0000000    0.0000000    0.0000000  
C   -1.1323862    0.0008899   -0.8673528  
C   -0.6382663    0.0019679   -2.1969280  
N    0.7324016    0.0038481   -2.1202242  
C   -1.4770914    0.0027318   -3.3154808  
C   -2.8395473    0.0020945   -3.0876857  
O   -3.7039201    0.0024425   -4.1440349  
C   -3.3517868    0.0013931   -1.7684331  
O   -4.7300497    0.0012366   -1.7073121  
C   -2.5248543    0.0009123   -0.6644817  
H    1.3576314   -0.0056167   -2.9057046  
H   -4.5940032    0.0021826   -3.7685128  
H   -4.9934602    0.0007259   -0.7819913  
H   -2.9462577    0.0005603    0.3339659  
H    2.1619895    0.0009355   -0.5342068  
C    0.8676693    0.7151171    2.2619005  
C    0.5875920    0.4624972    3.5848544  
C   -0.5048400   -0.4542819    3.6114698  
C   -0.8517165   -0.7276451    2.2635546  
N    0.0000000    0.0000000    1.4700000  
C   -1.8902865   -1.5946756    1.9108239  
C   -2.5912627   -2.1969500    2.9375057  
O   -3.6148162   -3.0527051    2.6493466  
C   -2.2603868   -1.9365747    4.2886322  
O   -3.0513550   -2.6123276    5.1947621  
C   -1.2361111   -1.0811317    4.6373480  
H    1.1060808    0.8876438    4.4271209  
H   -2.1597133   -1.8070987    0.8854031  
H   -3.9636755   -3.3565188    3.4974381  
H   -2.7621927   -2.3810384    6.0827341  
H   -1.0058879   -0.9010589    5.6809233  
H    1.6167816    1.3499334    1.8205408  
