66

C    0.2065091   -0.8884703   -9.5353419  
C    0.4572956   -0.4613608  -10.8187563  
C    0.2017606    0.9416512  -10.8480665  
C   -0.2051188    1.3179671   -9.5424005  
N   -0.1931839    0.1825617   -8.7708259  
C   -0.5385978    2.6328288   -9.2036996  
C   -0.4596088    3.5852049  -10.2011562  
O   -0.7736877    4.8844593   -9.9249209  
C   -0.0560880    3.2292156  -11.5100709  
O   -0.0278962    4.2905706  -12.3910211  
C    0.2727845    1.9322193  -11.8449896  
H    0.7831461   -1.0845828  -11.6338686  
H   -0.8495720    2.9260772   -8.2104713  
H   -0.6536165    5.3753736  -10.7482380  
H    0.2544864    3.9645959  -13.2510239  
H    0.5782437    1.6896015  -12.8560822  
H    0.2797433   -1.8726128   -9.1051572  
C    1.5862963   -2.0670322   -5.3411847  
C    1.3189952   -1.5555207   -6.5899330  
C    0.1997466   -0.6822137   -6.4513069  
C   -0.1759085   -0.7009549   -5.0836595  
N    0.6852545   -1.5532113   -4.4381564  
C   -1.2456329    0.0471727   -4.5828766  
C   -1.9487579    0.8286865   -5.4789955  
O   -3.0021411    1.5794496   -5.0433908  
C   -1.5894397    0.8603682   -6.8474632  
O   -2.3865862    1.6866038   -7.6124704  
C   -0.5344149    0.1223716   -7.3422465  
H    1.8630203   -1.7845991   -7.4902407  
H    0.6698564   -1.7594943   -3.4557148  
H   -3.3470236    2.0416479   -5.8184349  
H   -2.0769447    1.6504694   -8.5226459  
H    2.3474954   -2.7588385   -5.0234755  
C    1.1243410    0.0099923   -0.7919003  
C    0.7474076    0.0234544   -2.1148543  
C   -0.6787381    0.0234490   -2.1414700  
C   -1.1201745    0.0098592   -0.7935546  
N    0.0000000    0.0000000    0.0000000  
C   -2.4730816    0.0063709   -0.4408240  
C   -3.3971958    0.0170982   -1.4675058  
O   -4.7313517    0.0146259   -1.1793471  
C   -2.9763648    0.0303504   -2.8186324  
O   -4.0166480    0.0395118   -3.7247624  
C   -1.6418562    0.0335260   -3.1673481  
H    1.4178717    0.0310972   -2.9571209  
H   -2.8160166   -0.0041111    0.5845966  
H   -5.1938818    0.0230867   -2.0274384  
H   -3.6464675    0.0482293   -4.6127343  
H    2.1062467    0.0052819   -0.3505407  
C    0.8576279    0.7185626    2.2703808  
C    0.0000000    0.0000000    1.4700000  
C   -0.8668858   -0.7285659    2.3373528  
C   -0.4876752   -0.4117774    3.6669281  
N    0.5635254    0.4678311    3.5902241  
C   -1.1297612   -0.9515493    4.7854808  
C   -2.1738724   -1.8268314    4.5576857  
O   -2.8357962   -2.3827064    5.6140350  
C   -2.5667212   -2.1555554    3.2384331  
O   -3.6226318   -3.0413663    3.1773122  
C   -1.9335634   -1.6236449    2.1344818  
H    1.0363952    0.8769718    4.3757045  
H   -0.8454472   -0.7142436    5.8013813  
H   -3.5178062   -2.9546422    5.2385129  
H   -3.8247440   -3.2102924    2.2519915  
H   -2.2566033   -1.8942483    1.1360343  
H    1.6567807    1.3889844    2.0042067  
