60

C    4.3396469   -3.6294868   -5.1152302  
C    3.6218739   -3.0308845   -6.1246583  
C    4.1710127   -3.4937637   -7.3570500  
C    5.2300966   -4.3802426   -7.0339061  
N    5.3067062   -4.4384863   -5.6644698  
C    5.9986446   -5.0267235   -8.0066267  
C    5.6922790   -4.7739356   -9.3296596  
O    6.4108058   -5.3790299  -10.3199074  
C    4.6395130   -3.8923174   -9.6720770  
O    4.4585525   -3.7442312  -11.0317339  
C    3.8810810   -3.2539911   -8.7129905  
H    5.9584014   -4.9963469   -5.1428707  
H    6.8072566   -5.7033819   -7.7668744  
H    6.0385127   -5.0691487  -11.1557516  
H    3.7294834   -3.1334776  -11.1767909  
H    3.0811439   -2.5839482   -9.0056003  
H    4.2392180   -3.5422640   -4.0469301  
C    2.5049800   -2.0931560   -5.9399570  
C    1.9571814   -1.6308517   -4.7865848  
C    0.8879542   -0.7344211   -5.1580690  
C    0.8574967   -0.7122313   -6.6329831  
N    1.8627384   -1.5562146   -7.0453796  
C   -0.0149283    0.0176861   -7.3731166  
C   -0.9887734    0.8362266   -6.6701573  
O   -1.8166679    1.5292766   -7.2468484  
C   -0.9745397    0.8281735   -5.1082553  
O   -1.7894805    1.5135873   -4.5054780  
C    0.0139741    0.0003876   -4.4216236  
H    2.2669048   -1.8882737   -3.7893794  
H   -0.0204614    0.0196995   -8.4542617  
H    2.0929214   -1.7534646   -8.0020176  
C    3.2798085    0.0005853   -1.4499648  
C    2.5571144    0.0005562   -2.5996554  
C    1.1637436    0.0001546   -2.2210360  
C    1.1336965   -0.0000201   -0.7459470  
N    2.4483513   -0.0001430   -0.3402717  
C    0.0000000    0.0000000    0.0000000  
C   -1.2757367   -0.0000188   -0.6964414  
O   -2.3524597   -0.0000640   -0.1142313  
C   -1.2676494   -0.0000875   -2.2584081  
O   -2.3355762   -0.0004102   -2.8557294  
C    0.0181562    0.0001757   -2.9516296  
H    2.9547357    0.0006072   -3.5989105  
H    4.3498550    0.0008609   -1.3200021  
H    2.7563627    0.0012824    0.6148063  
C    2.5128556    2.1077716    2.9199648  
C    1.9592212    1.6432552    4.0696553  
C    0.8915788    0.7479214    3.6910360  
C    0.8684491    0.7287414    2.2159470  
N    1.8754542    1.5738793    1.8102719  
C    0.0000000    0.0000000    1.4700000  
C   -0.9772830   -0.8200135    2.1664417  
O   -1.8021297   -1.5120829    1.5842315  
C   -0.9711318   -0.8147624    3.7284083  
O   -1.7894187   -1.5009653    4.3257297  
C    0.0140216    0.0115358    4.4216297  
H    2.2638494    1.8988021    5.0689105  
H    0.0117648    0.0094386    5.5031631  
H    3.3327358    2.7953732    2.7900019  
H    2.1123206    1.7707734    0.8551938  
