64

C   -8.4570332    0.6181419   -2.6561348  
C   -8.0462497   -0.6259733   -3.0755419  
C   -9.1410836   -1.5169785   -2.8704883  
C  -10.2016209   -0.7532585   -2.3192000  
N   -9.7521290    0.5384279   -2.2003714  
C  -11.4414666   -1.3087217   -1.9889960  
C  -11.6139471   -2.6597062   -2.2197966  
O  -12.8049712   -3.2531470   -1.9159797  
C  -10.5676050   -3.4385360   -2.7688012  
O  -10.8944607   -4.7680967   -2.9384455  
C   -9.3441155   -2.8912796   -3.0945433  
H  -10.2896937    1.3099287   -1.8485308  
H  -12.2537494   -0.7320950   -1.5684037  
H  -12.7133644   -4.1855689   -2.1514837  
H  -10.1340012   -5.2228095   -3.3133339  
H   -8.5614975   -3.5129624   -3.5134687  
H   -7.9281897    1.5557734   -2.6447064  
C   -3.9849990    0.7198449   -1.9557669  
C   -3.2941076    0.0012878   -2.9038237  
C   -4.2599029   -0.7267530   -3.6599958  
C   -5.5339488   -0.4096642   -3.1231645  
N   -5.3307597    0.4696098   -2.0886554  
C   -6.7219427   -0.9488993   -3.6258414  
C   -6.6219977   -1.8239432   -4.6900247  
O   -7.7506394   -2.3792953   -5.2198991  
C   -5.3598477   -2.1529602   -5.2391533  
O   -5.4267873   -3.0384780   -6.2949573  
C   -4.1874277   -1.6215791   -4.7435812  
H   -6.0533559    0.8788541   -1.5244256  
H   -7.4602826   -2.9511454   -5.9423566  
H   -4.5326434   -3.2076311   -6.6072038  
H   -3.2353057   -1.8923967   -5.1847158  
H   -3.6241834    1.3899477   -1.1943648  
C    0.0000000    0.0000000    0.0000000  
C    1.0541688   -0.0001723   -0.8560392  
C    0.5103136   -0.0000455   -2.1935956  
C   -0.9576373    0.0002461   -2.0455730  
N   -1.2018460   -0.0001389   -0.6915968  
C   -1.8348314    0.0008319   -3.0810607  
C   -1.2972851    0.0009739   -4.4314603  
O   -2.0050676    0.0014268   -5.4301316  
C    0.2542619    0.0004184   -4.6117572  
O    0.7184666    0.0002257   -5.7439122  
C    1.0974551    0.0000873   -3.4189129  
H    2.0940752   -0.0005484   -0.5817983  
H    2.1707276   -0.0000912   -3.5523673  
H   -2.1128194    0.0014915   -0.2706789  
C    3.3003543   -0.0005276    2.9438989  
C    2.5232812   -0.0003497    4.0790748  
C    1.1623199    0.0001319    3.6520102  
C    1.1711883   -0.0000583    2.2336141  
N    2.4852299    0.0014920    1.8362361  
C    0.0000000    0.0000000    1.4700000  
C   -1.2020384   -0.0000520    2.1506477  
O   -2.3759250   -0.0003494    1.4542253  
C   -1.2314658    0.0005113    3.5655508  
O   -2.5054393    0.0008037    4.0950179  
C   -0.0764518    0.0007272    4.3195194  
H    2.8919952    0.0005619    5.0905303  
H    2.8036267   -0.0088181    0.8841339  
H   -3.0835639   -0.0000348    2.1118817  
H   -2.4360050    0.0011527    5.0545920  
H   -0.1304098    0.0013421    5.4019087  
H    4.3715549   -0.0004895    2.8367138  
