64

C    5.5116835   -1.0419941   -6.5200558  
C    6.5040955   -1.9265282   -6.1662396  
C    7.2893937   -2.1600548   -7.3338733  
C    6.7237883   -1.3841508   -8.3778995  
N    5.6449629   -0.7190934   -7.8502141  
C    7.2435510   -1.3690524   -9.6757475  
C    8.3547091   -2.1512427   -9.9241056  
O    8.9030792   -2.1734005  -11.1738322  
C    8.9331270   -2.9325656   -8.8956204  
O   10.0348735   -3.6572798   -9.3009460  
C    8.4207357   -2.9481555   -7.6150982  
H    6.6440613   -2.3520530   -5.1872953  
H    5.0523230   -0.0835306   -8.3530251  
H    6.8170217   -0.7799767  -10.4759128  
H    9.6583727   -2.7741277  -11.1299745  
H   10.3645072   -4.1565450   -8.5475007  
H    8.8851550   -3.5567653   -6.8480341  
C    4.1997124   -0.7142926   -4.3804693  
C    4.4285577   -0.4616619   -5.7132386  
C    3.4231993    0.4549161   -6.1418872  
C    2.6024960    0.7281510   -5.0177365  
N    3.1006054    0.0006263   -3.9654951  
C    1.5069395    1.5949724   -5.0740028  
C    1.2351055    2.1971655   -6.2871174  
O    0.1773771    3.0527174   -6.3978274  
C    2.0421268    1.9369156   -7.4201676  
O    1.6420925    2.6125648   -8.5545461  
C    3.1229149    1.0816790   -7.3654562  
H    0.8774431    1.8072968   -4.2208590  
H    0.1667379    3.3565065   -7.3148140  
H    2.2391121    2.3813713   -9.2726831  
H    3.7226922    0.9016982   -8.2499633  
H    4.7326843   -1.3489907   -3.6934047  
C    3.2798083    0.0005857   -1.4499652  
C    2.5571142    0.0005565   -2.5996556  
C    1.1637432    0.0001548   -2.2210361  
C    1.1336964   -0.0000200   -0.7459473  
N    2.4483512   -0.0001428   -0.3402723  
C    0.0000000    0.0000000    0.0000000  
C   -1.2757368   -0.0000186   -0.6964415  
O   -2.3524598   -0.0000639   -0.1142311  
C   -1.2676497   -0.0000872   -2.2584083  
O   -2.3355766   -0.0004101   -2.8557295  
C    0.0181558    0.0001758   -2.9516296  
H    0.0150788    0.0003319   -4.0331631  
H    4.3498547    0.0008612   -1.3200026  
H    2.7563626    0.0012823    0.6148059  
C    0.8576279    0.7185626    2.2703808  
C    0.0000000    0.0000000    1.4700000  
C   -0.8668858   -0.7285659    2.3373528  
C   -0.4876752   -0.4117774    3.6669281  
N    0.5635254    0.4678311    3.5902241  
C   -1.1297612   -0.9515493    4.7854808  
C   -2.1738724   -1.8268314    4.5576857  
O   -2.8357962   -2.3827064    5.6140350  
C   -2.5667212   -2.1555554    3.2384331  
O   -3.6226318   -3.0413663    3.1773122  
C   -1.9335634   -1.6236449    2.1344818  
H    1.0363952    0.8769718    4.3757045  
H   -0.8454472   -0.7142436    5.8013813  
H   -3.5178062   -2.9546422    5.2385129  
H   -3.8247440   -3.2102924    2.2519915  
H   -2.2566033   -1.8942483    1.1360343  
H    1.6567807    1.3889844    2.0042067  
