62

C    2.3028659   -2.1229295   -5.9144804  
C    1.6515867   -1.6243323   -7.0188822  
C    0.6310826   -0.7498526   -6.5409108  
C    0.7086122   -0.7546012   -5.1246156  
N    1.7329559   -1.6000178   -4.7773286  
C   -0.1496426   -0.0015617   -4.3176960  
C   -1.1033424    0.7705682   -4.9520852  
O   -1.9667793    1.5255763   -4.2121832  
C   -1.1966698    0.7882450   -6.3641032  
O   -2.1981108    1.6064249   -6.8447691  
C   -0.3504881    0.0453951   -7.1607690  
H    1.8827960   -1.8625549   -8.0429840  
H    2.0306265   -1.7961922   -3.8387715  
H   -2.5412366    1.9797182   -4.8422768  
H   -2.1929774    1.5609919   -7.8057654  
H   -0.4460651    0.0789854   -8.2397568  
H    3.1279002   -2.8112923   -5.8478996  
C    3.3003539    0.0005272   -1.4738994  
C    2.5232807    0.0003493   -2.6090753  
C    1.1623195   -0.0001323   -2.1820106  
C    1.1711880    0.0000582   -0.7636143  
N    2.4852298   -0.0014922   -0.3662365  
C    0.0000000    0.0000000    0.0000000  
C   -1.2020387    0.0000519   -0.6806475  
O   -2.3759248    0.0003494    0.0157747  
C   -1.2314661   -0.0005114   -2.0955507  
O   -2.5054400   -0.0008040   -2.6250174  
C   -0.0764524   -0.0007276   -2.8495195  
H    2.8919944   -0.0005625   -3.6205309  
H    2.8036264    0.0088180    0.5858657  
H   -3.0835644    0.0000351   -0.6418811  
H   -2.4360058   -0.0011530   -3.5845915  
C    6.4260923    0.0030458   -4.5098918  
C    7.5522577    0.0028750   -3.7593387  
C    7.0848216    0.0017959   -2.3816588  
C    5.6099752    0.0015343   -2.4884900  
N    5.2179699    0.0021833   -3.7336090  
C    4.7630501    0.0004753   -1.3275413  
C    5.3622558   -0.0006768   -0.1149879  
O    4.6953715   -0.0017392    1.0517617  
C    6.8483154   -0.0008193    0.0256746  
O    7.3251007   -0.0017727    1.1605295  
C    7.6953849    0.0003250   -1.1803093  
H    8.5739837    0.0033244   -4.0986788  
H    5.3903105   -0.0024270    1.7345587  
H    8.7674555    0.0000658   -1.0357575  
H    6.3446815    0.0037465   -5.5852270  
C    2.5128556    2.1077716    2.9199648  
C    1.9592212    1.6432552    4.0696553  
C    0.8915788    0.7479214    3.6910360  
C    0.8684491    0.7287414    2.2159470  
N    1.8754542    1.5738793    1.8102719  
C    0.0000000    0.0000000    1.4700000  
C   -0.9772830   -0.8200135    2.1664417  
O   -1.8021297   -1.5120829    1.5842315  
C   -0.9711318   -0.8147624    3.7284083  
O   -1.7894187   -1.5009653    4.3257297  
C    0.0140216    0.0115358    4.4216297  
H    2.2638494    1.8988021    5.0689105  
H    0.0117648    0.0094386    5.5031631  
H    3.3327358    2.7953732    2.7900019  
H    2.1123206    1.7707734    0.8551938  
