60

C    0.0123498   -0.0076597   -8.8432614  
C    0.8140383   -0.6820502   -9.7348680  
C    0.3778050   -0.3196055  -11.0436586  
C   -0.7020587    0.5865344  -10.8863977  
N   -0.8991023    0.7525800   -9.5379845  
C   -1.3790313    1.1518827  -11.9712381  
C   -0.9580246    0.7962404  -13.2379075  
O   -1.5837930    1.3190934  -14.3324632  
C    0.1172684   -0.1065954  -13.4152460  
O    0.4170235   -0.3611240  -14.7376331  
C    0.7854020   -0.6649211  -12.3454828  
H    1.6140483   -1.3535716   -9.4740294  
H   -1.5920450    1.3480030   -9.1217115  
H   -2.2028944    1.8430025  -11.8580764  
H   -1.1403854    0.9452245  -15.1050410  
H    1.1535585   -0.9792954  -14.7690039  
H    1.6053200   -1.3536480  -12.5124194  
C    2.5229108   -2.1069164   -5.8790356  
C    1.9659599   -1.6422912   -7.0270794  
C    0.8993074   -0.7471221   -6.6452951  
C    0.8803722   -0.7281568   -5.1701434  
N    1.8886143   -1.5732496   -4.7674566  
C    0.0139741    0.0003876   -4.4216236  
C   -0.9653704    0.8204006   -5.1151637  
O   -1.7886285    1.5123013   -4.5305094  
C   -0.9636624    0.8153753   -6.6771425  
O   -1.7837156    1.5015798   -7.2720341  
C    0.0195996   -0.0107216   -7.3732829  
H    2.2677702   -1.8976628   -8.0272341  
H    3.3432283   -2.7944525   -5.7515051  
H    2.1282171   -1.7702570   -3.8130849  
C    3.2798085    0.0005853   -1.4499648  
C    2.5571144    0.0005562   -2.5996554  
C    1.1637436    0.0001546   -2.2210360  
C    1.1336965   -0.0000201   -0.7459470  
N    2.4483513   -0.0001430   -0.3402717  
C    0.0000000    0.0000000    0.0000000  
C   -1.2757367   -0.0000188   -0.6964414  
O   -2.3524597   -0.0000640   -0.1142313  
C   -1.2676494   -0.0000875   -2.2584081  
O   -2.3355762   -0.0004102   -2.8557294  
C    0.0181562    0.0001757   -2.9516296  
H    2.9547357    0.0006072   -3.5989105  
H    4.3498550    0.0008609   -1.3200021  
H    2.7563627    0.0012824    0.6148063  
C    2.5528530    2.1414826    2.8079335  
C    2.0663498    1.7338582    4.0032312  
C    0.9804344    0.8229586    3.6752840  
C    0.9495562    0.7966882    2.1971295  
N    1.8690446    1.5676019    1.6831036  
C    0.0000000    0.0000000    1.4700000  
C   -0.8785127   -0.7372425    2.1869543  
O   -1.8187535   -1.5261249    1.6395491  
C   -0.8723269   -0.7321790    3.6796354  
O   -1.7010379   -1.4274584    4.2670412  
C    0.1115397    0.0933559    4.4024240  
H    2.4028853    2.0163452    4.9860947  
H   -2.2861435   -1.9184361    2.3990168  
H    0.0832434    0.0693689    5.4835595  
H    3.3664920    2.8238276    2.6198634  
