62

C   -0.2372712    0.7825650   -7.2526970  
C   -1.2166135    0.5417541   -8.1883070  
C   -0.6641073   -0.3581601   -9.1472081  
C    0.6665939   -0.6338821   -8.7408361  
N    0.8940473    0.0762186   -7.5881703  
C    1.5138450   -1.4870296   -9.4543446  
C    1.0084573   -2.0727402  -10.5987670  
O    1.7928047   -2.9144743  -11.3331342  
C   -0.3165567   -1.8097427  -11.0206543  
O   -0.6718863   -2.4682410  -12.1797332  
C   -1.1528634   -0.9679872  -10.3174012  
H   -2.2069952    0.9637585   -8.1812132  
H    2.5290874   -1.7011621   -9.1499893  
H    1.2541341   -3.2081272  -12.0793681  
H   -1.5804520   -2.2363257  -12.3949748  
H   -2.1629300   -0.7855018  -10.6651689  
H   -0.2557654    1.4034099   -6.3733973  
C    1.6628972    0.0337774   -3.2649299  
C    3.0207996    0.0330341   -3.2781829  
C    3.4282942    0.0460112   -4.6633238  
C    2.1875897    0.0544655   -5.4616793  
N    1.1532909    0.0460573   -4.5544611  
C    2.1461588    0.0678606   -6.8180748  
C    3.4077365    0.0741607   -7.5398215  
O    3.4759236    0.0861005   -8.7619128  
C    4.7339460    0.0651459   -6.7146592  
O    5.8022220    0.0700312   -7.3113351  
C    4.6507760    0.0511083   -5.2563251  
H    3.6636260    0.0242002   -2.4160288  
H    5.5736127    0.0451397   -4.6923568  
H    0.1784102    0.0504310   -4.7924430  
C    1.1243417    0.0099160   -0.7919004  
C    0.7474091    0.0234036   -2.1148543  
C   -0.6787366    0.0234950   -2.1414699  
C   -1.1201739    0.0099353   -0.7935547  
N    0.0000000    0.0000000    0.0000000  
C   -2.4730814    0.0065387   -0.4408241  
C   -3.3971947    0.0173286   -1.4675058  
O   -4.7313509    0.0149470   -1.1793468  
C   -2.9763629    0.0305525   -2.8186324  
O   -4.0166449    0.0397843   -3.7247623  
C   -1.6418539    0.0336374   -3.1673480  
H   -2.8160170   -0.0039200    0.5845965  
H   -5.1938800    0.0234391   -2.0274383  
H   -3.6464639    0.0484767   -4.6127342  
H   -1.3497441    0.0436783   -4.2109235  
H    2.1062470    0.0051389   -0.3505406  
C    0.8400945    0.7047457    2.2710304  
C    0.0000000    0.0000000    1.4700000  
C   -0.8844236   -0.7423113    2.3369512  
C   -0.4878984   -0.4098547    3.7186280  
N    0.5629682    0.4714286    3.6095011  
C   -1.0836927   -0.9095027    4.8308716  
C   -2.1891196   -1.8367527    4.6554461  
O   -2.7906899   -2.3413415    5.5944904  
C   -2.6257283   -2.2031529    3.2011665  
O   -3.5549479   -2.9829990    3.0410059  
C   -1.9068976   -1.5999348    2.0816745  
H   -0.7774656   -0.6525820    5.8354244  
H   -2.2155208   -1.8586617    1.0779135  
H    1.6384792    1.3747609    1.9961646  
H    1.0518368    0.8833920    4.3830260  
