60

C   -0.3693097    0.7037819   -6.9371596  
C   -1.6428976    0.4529888   -7.3927290  
C   -1.5229129   -0.4573475   -8.4842840  
C   -0.1405878   -0.7288452   -8.6497949  
N    0.5317504   -0.0063260   -7.6955698  
C    0.3481325   -1.5898009   -9.6370614  
C   -0.5754435   -2.1878072  -10.4722712  
O   -0.1527284   -3.0375670  -11.4532062  
C   -1.9588072   -1.9292024  -10.3231214  
O   -2.7508531   -2.6001725  -11.2318591  
C   -2.4416337   -1.0797506   -9.3495528  
H   -2.5470925    0.8751913   -6.9887865  
H    1.4004723   -1.8007724   -9.7684924  
H   -0.9464899   -3.3392117  -11.9138793  
H   -3.6696199   -2.3704697  -11.0624203  
H   -3.5067141   -0.9008961   -9.2595864  
H   -0.0322659    1.3341237   -6.1321569  
C    2.8699641   -0.0020527   -4.0185824  
C    4.1392623   -0.0034667   -4.4881134  
C    4.0033706   -0.0054222   -5.9365711  
C    2.5438435   -0.0050006   -6.1739829  
N    1.8743088   -0.0029474   -5.0533992  
C    1.9886056   -0.0065213   -7.4994246  
C    2.8521782   -0.0079900   -8.5403738  
O    2.4734359   -0.0095113   -9.8297896  
C    4.3304449   -0.0080811   -8.3332797  
O    5.0569376   -0.0095844   -9.3269732  
C    4.8753997   -0.0065471   -6.9639930  
H    5.0547093   -0.0031236   -3.9215169  
H    3.3075342   -0.0102817  -10.3332085  
H    5.9518173   -0.0065505   -6.8564976  
C    3.2573673   -0.0002921   -1.5109381  
C    2.5379469   -0.0001710   -0.3591962  
C    1.1435042    0.0000332   -0.7338498  
C    1.1092607   -0.0000083   -2.2088474  
N    2.4227562    0.0001908   -2.6182610  
C   -0.0265532   -0.0002523   -2.9515663  
C   -1.3003033   -0.0002639   -2.2514979  
O   -2.3786784   -0.0004132   -2.8306425  
C   -1.2877726    0.0000312   -0.6895609  
O   -2.3539956    0.0003308   -0.0892035  
C    0.0000000    0.0000000    0.0000000  
H    2.9384091   -0.0000368    0.6389240  
H   -0.0296292   -0.0004086   -4.0327231  
H    4.3270395   -0.0004765   -1.6439444  
C    2.5128556    2.1077716    2.9199648  
C    1.9592212    1.6432552    4.0696553  
C    0.8915788    0.7479214    3.6910360  
C    0.8684491    0.7287414    2.2159470  
N    1.8754542    1.5738793    1.8102719  
C    0.0000000    0.0000000    1.4700000  
C   -0.9772830   -0.8200135    2.1664417  
O   -1.8021297   -1.5120829    1.5842315  
C   -0.9711318   -0.8147624    3.7284083  
O   -1.7894187   -1.5009653    4.3257297  
C    0.0140216    0.0115358    4.4216297  
H    2.2638494    1.8988021    5.0689105  
H    0.0117648    0.0094386    5.5031631  
H    3.3327358    2.7953732    2.7900019  
H    2.1123206    1.7707734    0.8551938  
