60

C   10.8446410   -2.1257519   -1.1143756  
C   11.8027323   -1.6272144   -1.9664260  
C   11.1369693   -0.7527016   -2.8755946  
C    9.7622159   -0.7573697   -2.5263734  
N    9.6189552   -1.6027721   -1.4542776  
C    8.8049643   -0.0042791   -3.2128964  
C    9.2435565    0.7678199   -4.2710446  
O    8.3510660    1.5228749   -4.9755774  
C   10.6110677    0.7854164   -4.6349425  
O   10.8896182    1.6035745   -5.7102886  
C   11.5559296    0.0425162   -3.9582881  
H   12.8521857   -1.8654967   -1.9370650  
H    8.7554159   -1.7988945   -0.9811839  
H    8.8585657    1.9769841   -5.6607729  
H   11.8335600    1.5580866   -5.8905898  
H   12.5962292    0.0760452   -4.2601647  
H   10.9383872   -2.8141153   -0.2919861  
C    6.8847525   -0.0023787    0.6986608  
C    5.5715637   -0.0012903    0.3713797  
C    5.5475442   -0.0015351   -1.0832416  
C    6.9721655   -0.0027416   -1.4795204  
N    7.7607270   -0.0033211   -0.4392514  
C    7.3784667   -0.0033614   -2.8579272  
C    6.4057883   -0.0031904   -3.7977309  
O    6.6406184   -0.0037041   -5.1209446  
C    4.9592105   -0.0023543   -3.4295276  
O    4.1279725   -0.0021183   -4.3374176  
C    4.5679461   -0.0016854   -2.0086701  
H    4.7238861   -0.0005185    1.0350949  
H    5.7562738   -0.0034385   -5.5297077  
H    7.3236768   -0.0025893    1.6837085  
C    3.1301149   -0.0010311   -1.7028252  
C    2.5367768   -0.0002767   -0.4864665  
C    1.1089904    0.0001028   -0.7656183  
C    1.0177872   -0.0004148   -2.2415132  
N    2.1993578   -0.0011611   -2.7963820  
C   -0.2459209   -0.0002877   -2.9257118  
C   -1.3675319   -0.0000605   -2.1698524  
O   -2.6129313    0.0000867   -2.6748490  
C   -1.3083584    0.0000910   -0.6783232  
O   -2.3693261    0.0004206   -0.0541692  
C    0.0000000    0.0000000    0.0000000  
H    3.0096017   -0.0001007    0.4807525  
H   -0.2829630   -0.0004687   -4.0053125  
H   -3.1967441    0.0002094   -1.8949034  
C    2.5128556    2.1077716    2.9199648  
C    1.9592212    1.6432552    4.0696553  
C    0.8915788    0.7479214    3.6910360  
C    0.8684491    0.7287414    2.2159470  
N    1.8754542    1.5738793    1.8102719  
C    0.0000000    0.0000000    1.4700000  
C   -0.9772830   -0.8200135    2.1664417  
O   -1.8021297   -1.5120829    1.5842315  
C   -0.9711318   -0.8147624    3.7284083  
O   -1.7894187   -1.5009653    4.3257297  
C    0.0140216    0.0115358    4.4216297  
H    2.2638494    1.8988021    5.0689105  
H    0.0117648    0.0094386    5.5031631  
H    3.3327358    2.7953732    2.7900019  
H    2.1123206    1.7707734    0.8551938  
