62

C   -4.5558751    0.7960314   -7.5329404  
C   -3.6351213    0.0847390   -8.2669320  
C   -4.3614614   -0.6331378   -9.2627648  
C   -5.7330036   -0.3176197   -9.0860020  
N   -5.8160456    0.5509701   -8.0261563  
C   -6.7416181   -0.8485260   -9.8957093  
C   -6.3586615   -1.7134693  -10.9023845  
O   -7.3027916   -2.2603974  -11.7224474  
C   -4.9952617   -2.0407610  -11.0943160  
O   -4.7752736   -2.9157788  -12.1380077  
C   -3.9997317   -1.5175951  -10.2957280  
H   -6.6639201    0.9567872   -7.6734475  
H   -7.7887633   -0.6121344   -9.7660683  
H   -6.8285350   -2.8260315  -12.3456677  
H   -3.8300861   -3.0844597  -12.1994020  
H   -2.9639855   -1.7868487  -10.4666379  
H   -4.4135418    1.4576620   -6.6957157  
C   -1.2456296    0.0472577   -4.5828766  
C    0.0002605    0.0520438   -5.1230708  
C   -0.1629407    0.0660968   -6.5576456  
C   -1.6164593    0.0691566   -6.8107556  
N   -2.2165808    0.0569157   -5.5727758  
C   -2.1820820    0.0818099   -8.0442930  
C   -1.3004434    0.0929475   -9.1997693  
O   -1.7128481    0.1046491  -10.3521949  
C    0.2422766    0.0896871   -8.9552089  
O    0.9944621    0.0986747   -9.9202986  
C    0.7327427    0.0759264   -7.5793069  
H    0.9277601    0.0461943   -4.5787146  
H    1.8022635    0.0739577   -7.4185433  
H   -3.2072924    0.0572152   -5.4129701  
C    1.1243418    0.0099155   -0.7919003  
C    0.7474093    0.0234033   -2.1148542  
C   -0.6787365    0.0234953   -2.1414700  
C   -1.1201738    0.0099357   -0.7935546  
N    0.0000000    0.0000000    0.0000000  
C   -2.4730811    0.0065398   -0.4408241  
C   -3.3971945    0.0173300   -1.4675058  
O   -4.7313507    0.0149490   -1.1793472  
C   -2.9763626    0.0305537   -2.8186325  
O   -4.0166449    0.0397860   -3.7247623  
C   -1.6418538    0.0336381   -3.1673481  
H    1.4178738    0.0310004   -2.9571209  
H   -2.8160170   -0.0039189    0.5845965  
H   -5.1938800    0.0234412   -2.0274384  
H   -3.6464643    0.0484782   -4.6127344  
H    2.1062469    0.0051381   -0.3505407  
C    2.3971438    2.0127888    3.1728260  
C    1.9431056    1.6308205    1.9564670  
C    0.8496017    0.7127664    2.2356185  
C    0.7794028    0.6545384    3.7115134  
N    1.6840587    1.4146091    4.2663826  
C   -0.1885723   -0.1578550    4.3957118  
C   -1.0476298   -0.8789867    3.6398520  
O   -2.0015663   -1.6796266    4.1448486  
C   -1.0022026   -0.8410666    2.1483229  
O   -1.8147390   -1.5232959    1.5241687  
C    0.0000000    0.0000000    1.4700000  
H    2.3054237    1.9346118    0.9892483  
H   -0.2170646   -0.1815267    5.4753125  
H   -2.4487139   -2.0549881    3.3649027  
H    3.2048689    2.6911772    3.3971983  
