64

C    6.2907619   -0.7119053    2.9028415  
C    6.2762214   -0.4629714    4.2557226  
C    7.3423079    0.4461347    4.5232758  
C    7.9774861    0.7188326    3.2846831  
N    7.3153198   -0.0018208    2.3219720  
C    9.0736963    1.5790622    3.1701583  
C    9.5369518    2.1750948    4.3270150  
O   10.6043076    3.0240692    4.2721798  
C    8.9167691    1.9152682    5.5722782  
O    9.4946895    2.5843075    6.6313993  
C    7.8354598    1.0665317    5.6860455  
H    5.5832436   -0.8855928    4.9629471  
H    9.5623412    1.7909408    2.2291292  
H   10.7611178    3.3243362    5.1768982  
H    9.0167384    2.3538804    7.4339399  
H    7.3813053    0.8867058    6.6534567  
H    5.6522538   -1.3409072    2.3064999  
C    4.7390840    0.0009613   -1.2727298  
C    5.7457113    0.0027472   -2.2103681  
C    6.9802492    0.0028914   -1.4958638  
C    6.6612413    0.0008478   -0.1137801  
N    5.2920916    0.0016665   -0.0135512  
C    7.6369656    0.0000986    0.8875941  
C    8.9588062    0.0011300    0.4864546  
O    9.9518659    0.0001131    1.4228550  
C    9.2971111    0.0035455   -0.8877219  
O   10.6560639    0.0047353   -1.1256040  
C    8.3350583    0.0045588   -1.8761449  
H    5.6072444    0.0049198   -3.2779895  
H    4.7730884   -0.0099382    0.8457990  
H   10.7862573    0.0014011    0.9359723  
H   10.7982730    0.0063258   -2.0771176  
H    8.6245422    0.0065956   -2.9204982  
C    3.2798077    0.0005856   -1.4499661  
C    2.5571132    0.0005565   -2.5996564  
C    1.1637425    0.0001547   -2.2210366  
C    1.1336959   -0.0000200   -0.7459475  
N    2.4483509   -0.0001429   -0.3402730  
C    0.0000000    0.0000000    0.0000000  
C   -1.2757370   -0.0000187   -0.6964411  
O   -2.3524597   -0.0000640   -0.1142306  
C   -1.2676502   -0.0000874   -2.2584078  
O   -2.3355774   -0.0004102   -2.8557287  
C    0.0181551    0.0001758   -2.9516297  
H    2.9547342    0.0006074   -3.5989118  
H    0.0150776    0.0003317   -4.0331632  
H    2.7563626    0.0012823    0.6148051  
C    0.8576279    0.7185626    2.2703808  
C    0.0000000    0.0000000    1.4700000  
C   -0.8668858   -0.7285659    2.3373528  
C   -0.4876752   -0.4117774    3.6669281  
N    0.5635254    0.4678311    3.5902241  
C   -1.1297612   -0.9515493    4.7854808  
C   -2.1738724   -1.8268314    4.5576857  
O   -2.8357962   -2.3827064    5.6140350  
C   -2.5667212   -2.1555554    3.2384331  
O   -3.6226318   -3.0413663    3.1773122  
C   -1.9335634   -1.6236449    2.1344818  
H    1.0363952    0.8769718    4.3757045  
H   -0.8454472   -0.7142436    5.8013813  
H   -3.5178062   -2.9546422    5.2385129  
H   -3.8247440   -3.2102924    2.2519915  
H   -2.2566033   -1.8942483    1.1360343  
H    1.6567807    1.3889844    2.0042067  
