60

C   10.9663779    2.1274230   -3.0303674  
C    9.7350084    1.6647588   -2.6277027  
C    9.9609572    0.7769355   -1.5343973  
C   11.3614324    0.7373279   -1.3129800  
N   11.9422046    1.5670553   -2.2397350  
C   11.9465903   -0.0391154   -0.3082341  
C   11.1025774   -0.7890052    0.4876837  
O   11.6210366   -1.5647556    1.4838890  
C    9.7026260   -0.7629947    0.2820733  
O    8.9974494   -1.5641761    1.1562460  
C    9.1246828    0.0025454   -0.7091160  
H    8.7902340    1.9331920   -3.0685402  
H   12.9263257    1.7488648   -2.3199208  
H   13.0132662   -0.0737614   -0.1344402  
H   10.8707098   -1.9982462    1.9109246  
H    8.0608460   -1.4891193    0.9495011  
H   11.2258978    2.8116965   -3.8199109  
C    6.6317365    0.0027576   -4.3241616  
C    5.4016570    0.0020952   -3.7488541  
C    5.6054515    0.0015082   -2.3194126  
C    7.0655606    0.0019148   -2.1075802  
N    7.6303538    0.0022712   -3.3621311  
C    7.6659168    0.0019587   -0.8905032  
C    6.8173813    0.0013543    0.2895486  
O    7.2622824    0.0012813    1.4298835  
C    5.2683493    0.0006643    0.0887879  
O    4.5438187   -0.0001547    1.0748485  
C    4.7390840    0.0009613   -1.2727298  
H    4.4591015    0.0018435   -4.2667371  
H    6.8927419    0.0033433   -5.3699943  
H    8.6161382    0.0041518   -3.5499387  
C    3.2798077    0.0005856   -1.4499661  
C    2.5571132    0.0005565   -2.5996564  
C    1.1637425    0.0001547   -2.2210366  
C    1.1336959   -0.0000200   -0.7459475  
N    2.4483509   -0.0001429   -0.3402730  
C    0.0000000    0.0000000    0.0000000  
C   -1.2757370   -0.0000187   -0.6964411  
O   -2.3524597   -0.0000640   -0.1142306  
C   -1.2676502   -0.0000874   -2.2584078  
O   -2.3355774   -0.0004102   -2.8557287  
C    0.0181551    0.0001758   -2.9516297  
H    2.9547342    0.0006074   -3.5989118  
H    0.0150776    0.0003317   -4.0331632  
H    2.7563626    0.0012823    0.6148051  
C    0.0000000    0.0000000    1.4700000  
C    1.0662921    0.0000102    2.3034270  
C    0.4961870   -0.0000064    3.6418889  
C   -0.9663858    0.0000850    3.4240247  
N   -1.2632773    0.0000084    2.1528658  
C   -1.8985362    0.0000517    4.5177257  
C   -1.3925775   -0.0004564    5.7720543  
O   -2.1456383   -0.0005410    6.8851312  
C    0.0786232   -0.0009323    6.0245000  
O    0.4683759   -0.0012588    7.1921102  
C    1.0143166   -0.0008442    4.8859032  
H    2.1107198   -0.0000632    2.0421868  
H   -2.9622183    0.0003270    4.3293377  
H   -1.5042274   -0.0009692    7.6184419  
H    2.0724152   -0.0013148    5.1109744  
