64

C    2.1198998   -3.0555537   -8.9895279  
C    1.8089423   -1.8321957   -8.4425652  
C    1.7510121   -0.8976318   -9.5185913  
C    2.0374864   -1.6146115  -10.7084652  
N    2.2584896   -2.9215722  -10.3512148  
C    2.0670765   -1.0085561  -11.9680722  
C    1.8023567    0.3459012  -12.0276291  
O    1.8177791    0.9877710  -13.2321119  
C    1.5147676    1.0785494  -10.8514767  
O    1.2732028    2.4181384  -11.0761793  
C    1.4856712    0.4813678   -9.6084747  
H    2.4740284   -3.6684083  -10.9866364  
H    2.2848903   -1.5494051  -12.8786988  
H    1.6105136    1.9137335  -13.0507317  
H    1.0876167    2.8395982  -10.2314709  
H    1.2625099    1.0684012   -8.7252596  
H    2.2552048   -4.0128035   -8.5158983  
C    2.3020059   -2.1258164   -5.9826638  
C    1.8093621   -1.6631473   -4.7844546  
C    0.7354061   -0.7757530   -5.0906404  
C    0.6179774   -0.7364004   -6.5036468  
N    1.5853775   -1.5658597   -7.0142844  
C   -0.3411001    0.0396021   -7.1615064  
C   -1.1974272    0.7893048   -6.3786729  
O   -2.1529117    1.5646257   -6.9693855  
C   -1.0957282    0.7635436   -4.9673579  
O   -2.0198648    1.5644921   -4.3287681  
C   -0.1496415   -0.0015615   -4.3176961  
H    2.1793384   -1.9313017   -3.8096706  
H   -0.4356784    0.0740519   -8.2381070  
H   -2.6343335    1.9980531   -6.2526991  
H   -1.8828077    1.4896272   -3.3794451  
H    3.1087984   -2.8098330   -6.1830798  
C    3.3003543    0.0005276   -1.4738987  
C    2.5232814    0.0003497   -2.6090747  
C    1.1623200   -0.0001320   -2.1820103  
C    1.1711883    0.0000582   -0.7636140  
N    2.4852300   -0.0014919   -0.3662360  
C    0.0000000    0.0000000    0.0000000  
C   -1.2020384    0.0000519   -0.6806477  
O   -2.3759249    0.0003493    0.0157743  
C   -1.2314656   -0.0005115   -2.0955510  
O   -2.5054392   -0.0008039   -2.6250180  
C   -0.0764516   -0.0007274   -2.8495195  
H    2.8919955   -0.0005620   -3.6205304  
H    2.8036267    0.0088183    0.5858662  
H   -3.0835638    0.0000347   -0.6418818  
H   -2.4360047   -0.0011529   -3.5845921  
H    4.3715549    0.0004895   -1.3667136  
C    0.8400945    0.7047457    2.2710304  
C    0.0000000    0.0000000    1.4700000  
C   -0.8844236   -0.7423113    2.3369512  
C   -0.4878984   -0.4098547    3.7186280  
N    0.5629682    0.4714286    3.6095011  
C   -1.0836927   -0.9095027    4.8308716  
C   -2.1891196   -1.8367527    4.6554461  
O   -2.7906899   -2.3413415    5.5944904  
C   -2.6257283   -2.2031529    3.2011665  
O   -3.5549479   -2.9829990    3.0410059  
C   -1.9068976   -1.5999348    2.0816745  
H   -0.7774656   -0.6525820    5.8354244  
H   -2.2155208   -1.8586617    1.0779135  
H    1.6384792    1.3747609    1.9961646  
H    1.0518368    0.8833920    4.3830260  
