60

C   10.9798125    2.1280693   -2.7103269  
C    9.7364131    1.6652480   -2.3467023  
C    9.9279154    0.7771550   -1.2470578  
C   11.3207379    0.7375524   -0.9817187  
N   11.9303222    1.5675424   -1.8895408  
C   11.8740496   -0.0391223    0.0407343  
C   11.0054639   -0.7892527    0.8095258  
O   11.4923791   -1.5652350    1.8213452  
C    9.6126688   -0.7632511    0.5599990  
O    8.8803933   -1.5646872    1.4113597  
C    9.0661420    0.0025169   -0.4486803  
H    8.8059558    1.9337524   -2.8169640  
H   12.9164699    1.7494156   -1.9386927  
H   12.9347348   -0.0737657    0.2479776  
H   10.7290166   -1.9988677    2.2244636  
H    7.9507505   -1.4896186    1.1752825  
H   11.2639977    2.8125561   -3.4911441  
C    6.8068812    0.0035022   -4.1747019  
C    5.5278581    0.0022330   -3.7323476  
C    5.6328267    0.0014349   -2.2813200  
C    7.0869584    0.0022985   -2.0128347  
N    7.7802401    0.0035921   -3.1188854  
C    7.6138018    0.0019125   -0.6758521  
C    6.7282252    0.0011070    0.3464433  
O    7.0793813    0.0006615    1.6436439  
C    5.2547112    0.0005945    0.1078690  
O    4.5071908   -0.0002588    1.0858431  
C    4.7390840    0.0009613   -1.2727298  
H    4.6247032    0.0019722   -4.3183399  
H    6.2347357    0.0001390    2.1291604  
H    7.1567941    0.0044018   -5.1947674  
C    3.2798077    0.0005856   -1.4499661  
C    2.5571132    0.0005565   -2.5996564  
C    1.1637425    0.0001547   -2.2210366  
C    1.1336959   -0.0000200   -0.7459475  
N    2.4483509   -0.0001429   -0.3402730  
C    0.0000000    0.0000000    0.0000000  
C   -1.2757370   -0.0000187   -0.6964411  
O   -2.3524597   -0.0000640   -0.1142306  
C   -1.2676502   -0.0000874   -2.2584078  
O   -2.3355774   -0.0004102   -2.8557287  
C    0.0181551    0.0001758   -2.9516297  
H    2.9547342    0.0006074   -3.5989118  
H    0.0150776    0.0003317   -4.0331632  
H    2.7563626    0.0012823    0.6148051  
C    0.0000000    0.0000000    1.4700000  
C    1.0662921    0.0000102    2.3034270  
C    0.4961870   -0.0000064    3.6418889  
C   -0.9663858    0.0000850    3.4240247  
N   -1.2632773    0.0000084    2.1528658  
C   -1.8985362    0.0000517    4.5177257  
C   -1.3925775   -0.0004564    5.7720543  
O   -2.1456383   -0.0005410    6.8851312  
C    0.0786232   -0.0009323    6.0245000  
O    0.4683759   -0.0012588    7.1921102  
C    1.0143166   -0.0008442    4.8859032  
H    2.1107198   -0.0000632    2.0421868  
H   -2.9622183    0.0003270    4.3293377  
H   -1.5042274   -0.0009692    7.6184419  
H    2.0724152   -0.0013148    5.1109744  
