64

C   -0.2086889   -0.5191828   -9.6382415  
C    0.4470097   -0.4356772  -10.8447042  
C    0.3627468    0.9228444  -11.2712243  
C   -0.3617875    1.6273863  -10.2759359  
N   -0.6953594    0.7217275   -9.2996523  
C   -0.6361303    2.9953685  -10.3662122  
C   -0.1703175    3.6643676  -11.4813957  
O   -0.4098021    5.0009635  -11.6198590  
C    0.5541408    2.9787888  -12.4853685  
O    0.9495971    3.7840840  -13.5334407  
C    0.8249207    1.6291915  -12.3970978  
H    0.9260614   -1.2535629  -11.3551611  
H   -1.1879275    3.5381211   -9.6111346  
H   -0.0047445    5.2657531  -12.4559685  
H    1.4321396    3.2439793  -14.1667221  
H    1.3820662    1.1311312  -13.1819563  
H   -0.3689560   -1.3660226   -8.9931543  
C   -0.2041197   -0.6662877   -5.1294033  
C   -1.2456329    0.0471727   -4.5828766  
C   -1.8465396    0.7861438   -5.6446833  
C   -1.1230379    0.4806687   -6.8258505  
N   -0.1315494   -0.4025054   -6.4771797  
C   -1.4397848    1.0325676   -8.0707873  
C   -2.5065213    1.9085691   -8.1243733  
O   -2.8591359    2.4760474   -9.3146021  
C   -3.2403723    2.2261124   -6.9567065  
O   -4.2735451    3.1142222   -7.1738689  
C   -2.9282866    1.6822348   -5.7281602  
H    0.5354761   -0.8056371   -7.1100647  
H   -3.6170368    3.0463484   -9.1312772  
H   -4.7175626    3.2751067   -6.3356754  
H   -3.5084512    1.9444460   -4.8511582  
H    0.4936112   -1.3413496   -4.6641916  
C    1.1243410    0.0099923   -0.7919003  
C    0.7474076    0.0234544   -2.1148543  
C   -0.6787381    0.0234490   -2.1414700  
C   -1.1201745    0.0098592   -0.7935546  
N    0.0000000    0.0000000    0.0000000  
C   -2.4730816    0.0063709   -0.4408240  
C   -3.3971958    0.0170982   -1.4675058  
O   -4.7313517    0.0146259   -1.1793471  
C   -2.9763648    0.0303504   -2.8186324  
O   -4.0166480    0.0395118   -3.7247624  
C   -1.6418562    0.0335260   -3.1673481  
H    1.4178717    0.0310972   -2.9571209  
H   -2.8160166   -0.0041111    0.5845966  
H   -5.1938818    0.0230867   -2.0274384  
H   -3.6464675    0.0482293   -4.6127343  
H    2.1062467    0.0052819   -0.3505407  
C    2.4951002    2.0940188    2.9809380  
C    1.9440701    1.6314916    1.8291961  
C    0.8759964    0.7350050    2.2038498  
C    0.8497377    0.7130254    3.6788474  
N    1.8560616    1.5571714    4.0882609  
C   -0.0205033   -0.0168748    4.4215661  
C   -0.9962600   -0.8356168    3.7214979  
O   -1.8224391   -1.5286685    4.3006425  
C   -0.9864710   -0.8277881    2.1595606  
O   -1.8030528   -1.5133726    1.5592035  
C    0.0000000    0.0000000    1.4700000  
H    2.2509283    1.8888011    0.8310761  
H   -0.0229599   -0.0187323    5.5027230  
H    3.3143982    2.7817323    3.1139444  
H    2.0889452    1.7545833    5.0442112  
