62

C    5.9050734    0.0429963   -4.4897917  
C    6.1125808    0.0296082   -3.1299283  
C    7.5240491    0.0262566   -2.9241440  
C    8.1315495    0.0383908   -4.2058306  
N    7.1201072    0.0464061   -5.1340209  
C    9.5180838    0.0391862   -4.3855865  
C   10.3056963    0.0278269   -3.2508111  
O   11.6655046    0.0284016   -3.3688590  
C    9.7182334    0.0152516   -1.9633541  
O   10.6362578    0.0044752   -0.9335685  
C    8.3504570    0.0141860   -1.7852729  
H    5.3414838    0.0219578   -2.3787001  
H    7.2464062    0.0662147   -6.1298307  
H    9.9872961    0.0482595   -5.3597313  
H   12.0176680    0.0192129   -2.4693249  
H   10.1573089   -0.0035964   -0.0992145  
H    7.9293834    0.0042329   -0.7867359  
C    1.6628972    0.0337774   -3.2649299  
C    3.0207996    0.0330343   -3.2781829  
C    3.4282946    0.0460113   -4.6633235  
C    2.1875905    0.0544654   -5.4616793  
N    1.1532913    0.0460571   -4.5544614  
C    2.1461602    0.0678605   -6.8180750  
C    3.4077371    0.0741606   -7.5398210  
O    3.4759252    0.0861004   -8.7619128  
C    4.7339467    0.0651461   -6.7146587  
O    5.8022229    0.0700314   -7.3113344  
C    4.6507764    0.0511085   -5.2563248  
H    3.6636260    0.0242003   -2.4160288  
H    1.2252520    0.0740075   -7.3844682  
H    0.1784105    0.0504307   -4.7924434  
C    1.1243417    0.0099160   -0.7919004  
C    0.7474091    0.0234036   -2.1148543  
C   -0.6787366    0.0234950   -2.1414699  
C   -1.1201739    0.0099353   -0.7935547  
N    0.0000000    0.0000000    0.0000000  
C   -2.4730814    0.0065387   -0.4408241  
C   -3.3971947    0.0173286   -1.4675058  
O   -4.7313509    0.0149470   -1.1793468  
C   -2.9763629    0.0305525   -2.8186324  
O   -4.0166449    0.0397843   -3.7247623  
C   -1.6418539    0.0336374   -3.1673480  
H   -2.8160170   -0.0039200    0.5845965  
H   -5.1938800    0.0234391   -2.0274383  
H   -3.6464639    0.0484767   -4.6127342  
H   -1.3497441    0.0436783   -4.2109235  
H    2.1062470    0.0051389   -0.3505406  
C    2.4951002    2.0940188    2.9809380  
C    1.9440701    1.6314916    1.8291961  
C    0.8759964    0.7350050    2.2038498  
C    0.8497377    0.7130254    3.6788474  
N    1.8560616    1.5571714    4.0882609  
C   -0.0205033   -0.0168748    4.4215661  
C   -0.9962600   -0.8356168    3.7214979  
O   -1.8224391   -1.5286685    4.3006425  
C   -0.9864710   -0.8277881    2.1595606  
O   -1.8030528   -1.5133726    1.5592035  
C    0.0000000    0.0000000    1.4700000  
H    2.2509283    1.8888011    0.8310761  
H   -0.0229599   -0.0187323    5.5027230  
H    3.3143982    2.7817323    3.1139444  
H    2.0889452    1.7545833    5.0442112  
