60

C    5.9945976    0.0077636   -4.5566444  
C    6.2933514    0.0059030   -3.2138081  
C    7.7154865    0.0057792   -3.1036644  
C    8.2351586    0.0079116   -4.4234616  
N    7.1634172    0.0071240   -5.2813577  
C    9.6064125    0.0087031   -4.6963188  
C   10.4687696    0.0076236   -3.6171907  
O   11.8175196    0.0086785   -3.8266801  
C    9.9694792    0.0051195   -2.2929857  
O   10.9548705    0.0038904   -1.3274053  
C    8.6168280    0.0040642   -2.0230608  
H    5.5746794    0.0036688   -2.4122475  
H    7.2222472    0.0187898   -6.2835471  
H   10.0088526    0.0101827   -5.6999334  
H   12.2295522    0.0073462   -2.9528997  
H   10.5332877    0.0022400   -0.4626113  
H    8.2640632    0.0019593   -0.9983512  
C    1.7334697    0.0049246   -3.2500361  
C    3.0863259    0.0047399   -3.2131613  
C    3.4995616    0.0065860   -4.6080570  
C    2.2333973    0.0076345   -5.3718701  
N    1.1947442    0.0067485   -4.5811809  
C    2.2116357    0.0095937   -6.8087452  
C    3.4007181    0.0108548   -7.4532716  
O    3.5293452    0.0127184   -8.7909908  
C    4.6955642    0.0102163   -6.7106177  
O    5.7398288    0.0113189   -7.3623315  
C    4.6914549    0.0081553   -5.2368793  
H    3.7249597    0.0035938   -2.3464312  
H    1.2717197    0.0101182   -7.3411618  
H    4.4909169    0.0132674   -8.9476192  
C    1.1319247    0.0015655   -0.8009267  
C    0.7969916    0.0034943   -2.1169401  
C   -0.6453337    0.0035710   -2.1842668  
C   -1.1266832    0.0015433   -0.7896026  
N    0.0000000    0.0000000    0.0000000  
C   -2.4346130    0.0013964   -0.4276294  
C   -3.4350109    0.0031408   -1.4820183  
O   -4.6384610    0.0030973   -1.2583915  
C   -2.9478956    0.0050505   -2.9661075  
O   -3.7809378    0.0062218   -3.8623775  
C   -1.5113821    0.0053090   -3.2312122  
H   -2.7664565    0.0000232    0.6013446  
H   -1.1823527    0.0068407   -4.2614846  
H    2.1104317    0.0009391   -0.3488056  
C    2.4951002    2.0940188    2.9809380  
C    1.9440701    1.6314916    1.8291961  
C    0.8759964    0.7350050    2.2038498  
C    0.8497377    0.7130254    3.6788474  
N    1.8560616    1.5571714    4.0882609  
C   -0.0205033   -0.0168748    4.4215661  
C   -0.9962600   -0.8356168    3.7214979  
O   -1.8224391   -1.5286685    4.3006425  
C   -0.9864710   -0.8277881    2.1595606  
O   -1.8030528   -1.5133726    1.5592035  
C    0.0000000    0.0000000    1.4700000  
H    2.2509283    1.8888011    0.8310761  
H   -0.0229599   -0.0187323    5.5027230  
H    3.3143982    2.7817323    3.1139444  
H    2.0889452    1.7545833    5.0442112  
