64

C    3.3003544    0.0005269   -1.4738990  
C    2.5232812    0.0003489   -2.6090747  
C    1.1623201   -0.0001325   -2.1820101  
C    1.1711882    0.0000580   -0.7636141  
N    2.4852302   -0.0014924   -0.3662355  
C    0.0000000    0.0000000    0.0000000  
C   -1.2020381    0.0000517   -0.6806479  
O   -2.3759247    0.0003494    0.0157750  
C   -1.2314655   -0.0005119   -2.0955508  
O   -2.5054387   -0.0008042   -2.6250178  
C   -0.0764516   -0.0007279   -2.8495193  
H    2.8919951   -0.0005629   -3.6205305  
H    2.8036266    0.0088176    0.5858657  
H   -3.0835637    0.0000347   -0.6418815  
H   -2.4360050   -0.0011533   -3.5845917  
H    4.3715548    0.0004886   -1.3667139  
C    2.1623912   -2.0122276   -6.1367512  
C    1.7689757   -1.6301541   -4.8994865  
C    0.6617233   -0.7136681   -5.1243082  
C    0.5180516   -0.6563682   -6.5949061  
N    1.3949575   -1.4155876   -7.1937475  
C   -0.4838560    0.1543895   -7.2304691  
C   -1.3051619    0.8748424   -6.4331370  
O   -2.2841108    1.6739661   -6.8904135  
C   -1.1854794    0.8378275   -4.9457005  
O   -1.9668285    1.5193639   -4.2822079  
C   -0.1496418   -0.0015622   -4.3176961  
H    2.1794007   -1.9329297   -3.9513546  
H   -0.5660964    0.1774116   -8.3073238  
H   -2.6923638    2.0491943   -6.0893602  
C    5.0243063   -4.2992071   -3.6592429  
C    5.7007055   -4.9093536   -4.6901027  
C    5.1015292   -4.4608239   -5.9043554  
C    4.0559659   -3.5707980   -5.5485787  
N    4.0351883   -3.4967317   -4.1779221  
C    3.2480351   -2.9357033   -6.4965716  
C    3.5003842   -3.2037359   -7.8279827  
O    2.7417427   -2.6102212   -8.7950490  
C    4.5388466   -4.0891254   -8.2028142  
O    4.6643400   -4.2529017   -9.5669154  
C    5.3361099   -4.7162250   -7.2681247  
H    6.5239115   -5.5943950   -4.5803600  
H    3.4049573   -2.9329569   -3.6366751  
H    3.0798524   -2.9297023   -9.6417351  
H    5.3872559   -4.8652026   -9.7345012  
H    6.1238571   -5.3895082   -7.5853336  
H    5.1682355   -4.3740578   -2.5949868  
C    2.5285572    2.1210227    2.9438989  
C    1.9331703    1.6216660    4.0790748  
C    0.8903039    0.7472258    3.6520102  
C    0.8972198    0.7527806    2.2336141  
N    1.9028376    1.5986179    1.8362361  
C    0.0000000    0.0000000    1.4700000  
C   -0.9207814   -0.7726952    2.1506477  
O   -1.8198395   -1.5274828    1.4542253  
C   -0.9436862   -0.7911793    3.5655508  
O   -1.9197945   -1.6098497    4.0950179  
C   -0.0590329   -0.0485852    4.3195194  
H    2.2150357    1.8593692    5.0905303  
H    2.1533708    1.7953814    0.8841339  
H   -2.3621246   -1.9821033    2.1118817  
H   -1.8668290   -1.5649508    5.0545920  
H   -0.1007624   -0.0827977    5.4019087  
H    3.3491200    2.8096064    2.8367138  
