62

C    4.7795897    0.0008677   -1.0815734  
C    5.8357356    0.0020744   -1.9630617  
C    7.0295758    0.0025515   -1.1824547  
C    6.6358516    0.0012983    0.1802287  
N    5.2632778    0.0022472    0.2058247  
C    7.5556546    0.0010564    1.2332010  
C    8.8973609    0.0017917    0.9045653  
O    9.8380083    0.0012449    1.8936042  
C    9.3099223    0.0034199   -0.4491726  
O   10.6798043    0.0044032   -0.6127735  
C    8.4030671    0.0039327   -1.4884696  
H    5.7555553    0.0036574   -3.0366361  
H    4.6982919   -0.0088487    1.0356736  
H    7.2620119    0.0002476    2.2738623  
H   10.6976510    0.0022152    1.4528342  
H   10.8735684    0.0054539   -1.5551421  
H    8.7489362    0.0053697   -2.5155286  
C    3.3321166    0.0004717   -1.3379342  
C    2.6974176    0.0000121   -2.5332317  
C    1.2800432   -0.0002115   -2.2052842  
C    1.2395033    0.0000645   -0.7271297  
N    2.4394059    0.0005461   -0.2131042  
C    0.0000000    0.0000000    0.0000000  
C   -1.1468704    0.0000636   -0.7169540  
O   -2.3742206    0.0000073   -0.1695488  
C   -1.1388774    0.0001610   -2.2096351  
O   -2.2206238    0.0000908   -2.7970408  
C    0.1454514    0.0001820   -2.9324241  
H    3.1367977   -0.0000646   -3.5160953  
H   -2.9844351    0.0001027   -0.9290163  
C    2.5365541   -2.0936791   -5.9975184  
C    2.0254109   -1.6312718   -4.8274815  
C    0.9452516   -0.7345680   -5.1651393  
C    0.8684328   -0.7123300   -6.6383652  
N    1.8600003   -1.5565491   -7.0821878  
C   -0.0266561    0.0178227   -7.3506836  
C   -0.9777112    0.8365834   -6.6174311  
O   -1.8231606    1.5298532   -7.1677886  
C   -0.9143692    0.8284838   -5.0567494  
O   -1.7097820    1.5140814   -4.4286288  
C    0.0950440    0.0004357   -4.4015596  
H    2.3662767   -1.8887974   -3.8405140  
H   -0.0661846    0.0198671   -8.4311208  
H    3.3507071   -2.7814868   -6.1586564  
H    2.0599372   -1.7538295   -8.0455942  
C    2.5285572    2.1210227    2.9438989  
C    1.9331703    1.6216660    4.0790748  
C    0.8903039    0.7472258    3.6520102  
C    0.8972198    0.7527806    2.2336141  
N    1.9028376    1.5986179    1.8362361  
C    0.0000000    0.0000000    1.4700000  
C   -0.9207814   -0.7726952    2.1506477  
O   -1.8198395   -1.5274828    1.4542253  
C   -0.9436862   -0.7911793    3.5655508  
O   -1.9197945   -1.6098497    4.0950179  
C   -0.0590329   -0.0485852    4.3195194  
H    2.2150357    1.8593692    5.0905303  
H    2.1533708    1.7953814    0.8841339  
H   -2.3621246   -1.9821033    2.1118817  
H   -1.8668290   -1.5649508    5.0545920  
H   -0.1007624   -0.0827977    5.4019087  
H    3.3491200    2.8096064    2.8367138  
