64

C   -0.9229780    0.8378300   -9.0017321  
C    0.0372790    0.0363169   -9.5744023  
C   -0.1005496    0.1666605  -10.9881254  
C   -1.1701840    1.0687465  -11.2206100  
N   -1.6484104    1.4557216   -9.9933501  
C   -1.5869684    1.4328065  -12.5045647  
C   -0.9114637    0.8763090  -13.5732939  
O   -1.2770346    1.1976796  -14.8484770  
C    0.1580822   -0.0259673  -13.3616651  
O    0.7292091   -0.4941224  -14.5269917  
C    0.5696128   -0.3857806  -12.0952902  
H    0.7487706   -0.5688142   -9.0390617  
H   -2.4021433    2.1013157   -9.8414424  
H   -2.4015691    2.1196912  -12.6884607  
H   -0.6860057    0.7065742  -15.4339394  
H    1.4424868   -1.0967792  -14.2953813  
H    1.3919442   -1.0794034  -11.9643845  
C    0.8794601   -0.7145260   -5.2160928  
C    0.5955941   -0.4617443   -6.5382079  
C   -0.4970033    0.4549262   -6.5615831  
C   -0.8400714    0.7280594   -5.2126466  
N    0.0139741    0.0003876   -4.4216236  
C   -1.8777226    1.5949322   -4.8568374  
C   -2.5816787    2.1972823   -5.8814339  
O   -3.6044956    3.0528903   -5.5902406  
C   -2.2546214    1.9371357   -7.2335340  
O   -3.0482339    2.6129379   -8.1373123  
C   -1.2312544    1.0818486   -7.5852859  
H    1.1117280   -0.8867161   -7.3820075  
H   -2.1442525    1.8071797   -3.8306237  
H   -3.9557977    3.3567903   -6.4372914  
H   -2.7615756    2.3818067   -9.0261366  
H    1.6298900   -1.3493287   -4.7769580  
C    3.2798085    0.0005853   -1.4499648  
C    2.5571144    0.0005562   -2.5996554  
C    1.1637436    0.0001546   -2.2210360  
C    1.1336965   -0.0000201   -0.7459470  
N    2.4483513   -0.0001430   -0.3402717  
C    0.0000000    0.0000000    0.0000000  
C   -1.2757367   -0.0000188   -0.6964414  
O   -2.3524597   -0.0000640   -0.1142313  
C   -1.2676494   -0.0000875   -2.2584081  
O   -2.3355762   -0.0004102   -2.8557294  
C    0.0181562    0.0001757   -2.9516296  
H    2.9547357    0.0006072   -3.5989105  
H    4.3498550    0.0008609   -1.3200021  
H    2.7563627    0.0012824    0.6148063  
C    0.8576279    0.7185626    2.2703808  
C    0.0000000    0.0000000    1.4700000  
C   -0.8668858   -0.7285659    2.3373528  
C   -0.4876752   -0.4117774    3.6669281  
N    0.5635254    0.4678311    3.5902241  
C   -1.1297612   -0.9515493    4.7854808  
C   -2.1738724   -1.8268314    4.5576857  
O   -2.8357962   -2.3827064    5.6140350  
C   -2.5667212   -2.1555554    3.2384331  
O   -3.6226318   -3.0413663    3.1773122  
C   -1.9335634   -1.6236449    2.1344818  
H    1.0363952    0.8769718    4.3757045  
H   -0.8454472   -0.7142436    5.8013813  
H   -3.5178062   -2.9546422    5.2385129  
H   -3.8247440   -3.2102924    2.2519915  
H   -2.2566033   -1.8942483    1.1360343  
H    1.6567807    1.3889844    2.0042067  
