60

C    5.2448911   -3.0689908   -1.7549700  
C    6.4306193   -3.7468315   -1.9194311  
C    6.6384287   -4.5154550   -0.7359481  
C    5.5372346   -4.2643836    0.1221086  
N    4.7110037   -3.3804390   -0.5264288  
C    5.4093787   -4.8574826    1.3817418  
C    6.4112729   -5.7199788    1.7823455  
O    6.3363021   -6.3266615    3.0027264  
C    7.5180768   -5.9828942    0.9405151  
O    8.4315931   -6.8634932    1.4821586  
C    7.6449992   -5.3979325   -0.3021586  
H    7.0679944   -3.6929779   -2.7853679  
H    3.8432629   -3.0261760   -0.1665605  
H    4.5726410   -4.6701572    2.0405153  
H    7.1251299   -6.8786644    3.0821528  
H    9.1468607   -6.9864559    0.8505915  
H    8.5042182   -5.6183978   -0.9247468  
C    4.5533953   -2.1376039   -2.6578830  
C    4.9399044   -1.7283662   -3.8886202  
C    3.8940255   -0.8167851   -4.3264065  
C    2.9285539   -0.7919268   -3.2066610  
N    3.3097737   -1.5641889   -2.2257066  
C    1.7334695    0.0049281   -3.2500363  
C    1.5131085    0.7436793   -4.3613519  
O    0.4396988    1.5328953   -4.5373375  
C    2.4688035    0.7400648   -5.5079975  
O    2.2042964    1.4366805   -6.4877846  
C    3.6875669   -0.0856726   -5.4394571  
H    5.8254287   -2.0102057   -4.4322107  
H    0.5632897    1.9263775   -5.4199754  
H    4.3545055   -0.0606062   -6.2908048  
C    1.1319246    0.0015678   -0.8009268  
C    0.7969914    0.0034958   -2.1169401  
C   -0.6453340    0.0035696   -2.1842669  
C   -1.1266832    0.0015410   -0.7896025  
N    0.0000000    0.0000000    0.0000000  
C   -2.4346129    0.0013913   -0.4276292  
C   -3.4350111    0.0031335   -1.4820181  
O   -4.6384614    0.0030875   -1.2583914  
C   -2.9478961    0.0050442   -2.9661074  
O   -3.7809382    0.0062135   -3.8623773  
C   -1.5113825    0.0053055   -3.2312122  
H   -2.7664565    0.0000174    0.6013448  
H   -1.1823533    0.0068381   -4.2614848  
H    2.1104316    0.0009435   -0.3488059  
C    0.8681109    0.7263879    2.2709268  
C    0.6127770    0.5096195    3.5869401  
C   -0.4920590   -0.4175482    3.6542670  
C   -0.8620974   -0.7254003    2.2596025  
N    0.0000000    0.0000000    1.4700000  
C   -1.8641242   -1.5660088    1.8976294  
C   -2.6293522   -2.2103885    2.9520183  
O   -3.5512764   -2.9839180    2.7283916  
C   -2.2549728   -1.8987399    4.4361073  
O   -2.8923672   -2.4351063    5.3323774  
C   -1.1543735   -0.9755647    4.7012123  
H    1.1382914    0.9492124    4.4159191  
H   -2.1192137   -1.7782617    0.8686553  
H   -0.9013378   -0.7652422    5.7314848  
H    1.6172880    1.3558399    1.8188057  
