62

C    5.7788228   -1.0668195   -6.3480378  
C    6.7547964   -1.9523946   -5.9534504  
C    7.5712631   -2.2079197   -7.0948053  
C    7.0407339   -1.4437440   -8.1655525  
N    5.9519201   -0.7642099   -7.6783803  
C    7.5971503   -1.4508853   -9.4481821  
C    8.7095757   -2.2436688   -9.6535633  
O    9.2929707   -2.2875413  -10.8867453  
C    9.2533151   -3.0135712   -8.5979051  
O   10.3611685   -3.7511152   -8.9612675  
C    8.7047542   -3.0072209   -7.3323752  
H    6.8640844   -2.3644771   -4.9648978  
H    5.3780833   -0.1322911   -8.2069363  
H    7.1974635   -0.8708418  -10.2685495  
H   10.0426325   -2.8923584  -10.8127888  
H   10.6659325   -4.2414242   -8.1916442  
H    9.1431210   -3.6075197   -6.5437351  
C    4.4071361   -0.7184473   -4.2557783  
C    3.2973506   -0.0000934   -3.8752374  
C    2.8597417    0.7281418   -5.0209999  
C    3.7486370    0.4113760   -6.0799854  
N    4.6772281   -0.4679011   -5.5807786  
C    3.6188212    0.9508691   -7.3632953  
C    2.5724317    1.8258439   -7.5816213  
O    2.3991154    2.3814381   -8.8162429  
C    1.6752957    2.1545402   -6.5376283  
O    0.6861541    3.0400283   -6.9129340  
C    1.8029177    1.6229047   -5.2712935  
H    4.2930460    0.7135791   -8.1746614  
H    1.6230859    2.9531893   -8.7518667  
H    0.1239579    3.2089578   -6.1506992  
H    1.1004527    1.8934792   -4.4916713  
H    5.0282461   -1.3886022   -3.6865036  
C    3.3321174    0.0004714   -1.3379332  
C    2.6974186    0.0000115   -2.5332308  
C    1.2800441   -0.0002119   -2.2052838  
C    1.2395035    0.0000643   -0.7271293  
N    2.4394063    0.0005458   -0.2131034  
C    0.0000000    0.0000000    0.0000000  
C   -1.1468701    0.0000634   -0.7169542  
O   -2.3742201    0.0000072   -0.1695492  
C   -1.1388767    0.0001606   -2.2096354  
O   -2.2206229    0.0000903   -2.7970413  
C    0.1454526    0.0001815   -2.9324239  
H   -2.9844344    0.0001023   -0.9290168  
H    0.1083580    0.0003680   -4.0135594  
H    4.3940040    0.0007617   -1.1498630  
C    0.8400945    0.7047457    2.2710304  
C    0.0000000    0.0000000    1.4700000  
C   -0.8844236   -0.7423113    2.3369512  
C   -0.4878984   -0.4098547    3.7186280  
N    0.5629682    0.4714286    3.6095011  
C   -1.0836927   -0.9095027    4.8308716  
C   -2.1891196   -1.8367527    4.6554461  
O   -2.7906899   -2.3413415    5.5944904  
C   -2.6257283   -2.2031529    3.2011665  
O   -3.5549479   -2.9829990    3.0410059  
C   -1.9068976   -1.5999348    2.0816745  
H   -0.7774656   -0.6525820    5.8354244  
H   -2.2155208   -1.8586617    1.0779135  
H    1.6384792    1.3747609    1.9961646  
H    1.0518368    0.8833920    4.3830260  
