60

C    5.6441270   -2.9417550   -2.5895087  
C    5.7458323   -3.6395395   -1.4083144  
C    6.9565458   -4.3910510   -1.4716024  
C    7.5564032   -4.1090275   -2.7256200  
N    6.7326432   -3.2271570   -3.3800960  
C    8.7678310   -4.6782765   -3.1295832  
C    9.3850999   -5.5478360   -2.2515041  
O   10.5700147   -6.1315626   -2.5953882  
C    8.8020856   -5.8420683   -0.9959816  
O    9.5381788   -6.7265286   -0.2349036  
C    7.6068674   -5.2810661   -0.5969138  
H    5.0343087   -3.6113165   -0.6008922  
H    6.9042675   -2.8385002   -4.2897509  
H    9.2301629   -4.4675362   -4.0840681  
H   10.8233611   -6.6938165   -1.8517817  
H    9.0752556   -6.8712457    0.5959774  
H    7.1845347   -5.5255705    0.3707278  
C    4.6014569   -2.0165232   -3.0560759  
C    3.4769382   -1.6328847   -2.4081112  
C    2.8127343   -0.7151039   -3.3208056  
C    3.6989105   -0.6588457   -4.5032229  
N    4.7490138   -1.4197422   -4.3538640  
C    3.3894076    0.1527205   -5.6480612  
C    2.2463729    0.8749431   -5.6134072  
O    1.8335177    1.6749946   -6.6111594  
C    1.3311611    0.8390159   -4.4347392  
O    0.3078539    1.5221556   -4.4719311  
C    1.6707636   -0.0012343   -3.2725974  
H    3.1397616   -1.9354141   -1.4314516  
H    4.0552368    0.1749493   -6.4984067  
H    0.9923250    2.0514417   -6.2951915  
C    1.0965514    0.0001358   -0.8010306  
C    0.0000000    0.0000000    0.0000000  
C   -1.1546565    0.0001470   -0.8669508  
C   -0.6372019    0.0003520   -2.2486278  
N    0.7342867    0.0007338   -2.1395012  
C   -1.4147744    0.0001354   -3.3608712  
C   -2.8576052   -0.0001047   -3.1854454  
O   -3.6427785   -0.0002490   -4.1244896  
C   -3.4275841   -0.0000727   -1.7311660  
O   -4.6406832    0.0000333   -1.5710049  
C   -2.4891868   -0.0001090   -0.6116739  
H   -1.0150456    0.0001617   -4.3654239  
H   -2.8919122   -0.0002919    0.3920871  
H    2.1388270    0.0000663   -0.5261650  
C    2.5128556    2.1077716    2.9199648  
C    1.9592212    1.6432552    4.0696553  
C    0.8915788    0.7479214    3.6910360  
C    0.8684491    0.7287414    2.2159470  
N    1.8754542    1.5738793    1.8102719  
C    0.0000000    0.0000000    1.4700000  
C   -0.9772830   -0.8200135    2.1664417  
O   -1.8021297   -1.5120829    1.5842315  
C   -0.9711318   -0.8147624    3.7284083  
O   -1.7894187   -1.5009653    4.3257297  
C    0.0140216    0.0115358    4.4216297  
H    2.2638494    1.8988021    5.0689105  
H    0.0117648    0.0094386    5.5031631  
H    3.3327358    2.7953732    2.7900019  
H    2.1123206    1.7707734    0.8551938  
