60

C    6.4698217    0.0145180    3.7089924  
C    7.2589187    0.0242579    4.8358016  
C    8.6152492    0.0134775    4.3943801  
C    8.5912951   -0.0025465    2.9762484  
N    7.2731049   -0.0034291    2.5928544  
C    9.7542861   -0.0160054    2.2003239  
C   10.9634872   -0.0129309    2.8681570  
O   12.1298923   -0.0252750    2.1593826  
C   11.0079603    0.0025983    4.2825820  
O   12.2874829    0.0033108    4.7984933  
C    9.8610388    0.0156083    5.0486938  
H    6.9009830    0.0363985    5.8510491  
H    9.7427847   -0.0283929    1.1191595  
H   12.8444800   -0.0208666    2.8094670  
H   12.2282582    0.0142306    5.7586902  
H    9.9265044    0.0271792    6.1303859  
H    5.3975498    0.0175073    3.6131665  
C    6.7921787   -0.0024529    1.2037505  
C    5.5119019   -0.0013791    0.7650373  
C    5.6127417   -0.0007797   -0.6862830  
C    7.0661036   -0.0015327   -0.9589046  
N    7.7625294   -0.0025955    0.1451691  
C    7.5891409   -0.0012857   -2.2973807  
C    6.7006590   -0.0007189   -3.3171523  
O    7.0481224   -0.0004246   -4.6153470  
C    5.2278296   -0.0003233   -3.0743867  
O    4.4775294    0.0003121   -4.0502297  
C    4.7161325   -0.0005435   -1.6923264  
H    4.6104180   -0.0011262    1.3535969  
H    8.6559200   -0.0016445   -2.4673550  
H    6.2020990   -0.0000590   -5.0984587  
C    3.2573665   -0.0002920   -1.5109385  
C    2.5379463   -0.0001709   -0.3591964  
C    1.1435038    0.0000331   -0.7338500  
C    1.1092599   -0.0000083   -2.2088477  
N    2.4227553    0.0001909   -2.6182613  
C   -0.0265539   -0.0002524   -2.9515660  
C   -1.3003040   -0.0002640   -2.2514977  
O   -2.3786790   -0.0004133   -2.8306421  
C   -1.2877727    0.0000311   -0.6895603  
O   -2.3539959    0.0003306   -0.0892030  
C    0.0000000    0.0000000    0.0000000  
H    2.9384091   -0.0000367    0.6389234  
H   -0.0296303   -0.0004086   -4.0327229  
H    2.7280482   -0.0013407   -3.5742119  
C    2.4951002    2.0940188    2.9809380  
C    1.9440701    1.6314916    1.8291961  
C    0.8759964    0.7350050    2.2038498  
C    0.8497377    0.7130254    3.6788474  
N    1.8560616    1.5571714    4.0882609  
C   -0.0205033   -0.0168748    4.4215661  
C   -0.9962600   -0.8356168    3.7214979  
O   -1.8224391   -1.5286685    4.3006425  
C   -0.9864710   -0.8277881    2.1595606  
O   -1.8030528   -1.5133726    1.5592035  
C    0.0000000    0.0000000    1.4700000  
H    2.2509283    1.8888011    0.8310761  
H   -0.0229599   -0.0187323    5.5027230  
H    3.3143982    2.7817323    3.1139444  
H    2.0889452    1.7545833    5.0442112  
