62

C    5.7628300   -0.0004871   -2.0437087  
C    4.7795897    0.0008677   -1.0815734  
C    5.4361691    0.0009685    0.1847220  
C    6.8315416   -0.0000818   -0.0699538  
N    6.9950513   -0.0028992   -1.4329922  
C    7.7866665    0.0000164    0.9510879  
C    7.3247556    0.0015035    2.2529380  
O    8.2141752    0.0020178    3.2882866  
C    5.9363884    0.0021922    2.5272558  
O    5.6358413    0.0032536    3.8737380  
C    4.9935670    0.0018226    1.5204719  
H    7.8775303    0.0063591   -1.9116633  
H    8.8515841   -0.0009246    0.7635968  
H    7.6891817    0.0027716    4.0992401  
H    4.6787630    0.0036911    3.9717400  
H    3.9369292    0.0021876    1.7612928  
H    5.6826508   -0.0013696   -3.1172679  
C    3.3321166    0.0004717   -1.3379342  
C    2.6974176    0.0000121   -2.5332317  
C    1.2800432   -0.0002115   -2.2052842  
C    1.2395033    0.0000645   -0.7271297  
N    2.4394059    0.0005461   -0.2131042  
C    0.0000000    0.0000000    0.0000000  
C   -1.1468704    0.0000636   -0.7169540  
O   -2.3742206    0.0000073   -0.1695488  
C   -1.1388774    0.0001610   -2.2096351  
O   -2.2206238    0.0000908   -2.7970408  
C    0.1454514    0.0001820   -2.9324241  
H    3.1367977   -0.0000646   -3.5160953  
H   -2.9844351    0.0001027   -0.9290163  
C    0.9350719   -0.7259382   -5.2319051  
C    0.6347934   -0.5089061   -6.5383526  
C   -0.4715636    0.4184311   -6.5675990  
C   -0.7935145    0.7260955   -5.1610140  
N    0.0950440    0.0004357   -4.4015596  
C   -1.7824145    1.5667848   -4.7647529  
C   -2.5832523    2.2114556   -5.7921736  
O   -3.4968510    2.9850783   -5.5369349  
C   -2.2600300    1.9000098   -7.2882797  
O   -2.9277035    2.4366218   -8.1620757  
C   -1.1693061    0.9767230   -7.5911241  
H    1.1315070   -0.9484311   -7.3849380  
H   -2.0020381    1.7788965   -3.7276012  
H   -0.9517793    0.7665421   -8.6295027  
H    1.6992183   -1.3555751   -4.8058451  
C    2.5285572    2.1210227    2.9438989  
C    1.9331703    1.6216660    4.0790748  
C    0.8903039    0.7472258    3.6520102  
C    0.8972198    0.7527806    2.2336141  
N    1.9028376    1.5986179    1.8362361  
C    0.0000000    0.0000000    1.4700000  
C   -0.9207814   -0.7726952    2.1506477  
O   -1.8198395   -1.5274828    1.4542253  
C   -0.9436862   -0.7911793    3.5655508  
O   -1.9197945   -1.6098497    4.0950179  
C   -0.0590329   -0.0485852    4.3195194  
H    2.2150357    1.8593692    5.0905303  
H    2.1533708    1.7953814    0.8841339  
H   -2.3621246   -1.9821033    2.1118817  
H   -1.8668290   -1.5649508    5.0545920  
H   -0.1007624   -0.0827977    5.4019087  
H    3.3491200    2.8096064    2.8367138  
