62

C    8.4595694   -0.7061129    0.6241363  
C    9.7384737   -0.4547983    1.0642636  
C   10.3265516    0.4556342    0.1369689  
C    9.3506615    0.7266507   -0.8560645  
N    8.2297432    0.0037648   -0.5311139  
C    9.5857122    1.5875555   -1.9323468  
C   10.8284547    2.1860043   -2.0073712  
O   11.1110830    3.0357361   -3.0374628  
C   11.8153741    1.9278833   -1.0264638  
O   13.0013483    2.5992578   -1.2410933  
C   11.5842781    1.0784821    0.0354393  
H   10.1921401   -0.8767240    1.9446949  
H    8.8461759    1.7981610   -2.6925654  
H   12.0185446    3.3377285   -2.9011581  
H   13.6128577    2.3698673   -0.5346648  
H   12.3596595    0.9000032    0.7712432  
H    7.6936335   -1.3366804    1.0420913  
C    5.7183463    0.0006310   -0.7610769  
C    6.9697736    0.0034054   -1.2883310  
C    6.8214682    0.0056189   -2.7245886  
C    5.3706567    0.0039234   -2.9927890  
N    4.7577216    0.0005129   -1.7610467  
C    4.8178651    0.0056001   -4.2321934  
C    5.7114450    0.0090974   -5.3785083  
O    5.3110217    0.0107615   -6.5352099  
C    7.2515432    0.0106904   -5.1179292  
O    8.0137026    0.0133264   -6.0752002  
C    7.7277040    0.0089101   -3.7369443  
H    3.7509358    0.0044378   -4.4070369  
H    8.7954980    0.0102357   -3.5650769  
H    5.4170512   -0.0015541    0.2738655  
C    3.3041270    0.0001177   -1.5420435  
C    2.5845370   -0.0004780   -0.3695856  
C    1.2040004   -0.0000007   -0.7283590  
C    1.1422370    0.0006038   -2.1454373  
N    2.4348634    0.0026110   -2.6077469  
C   -0.0655187    0.0008799   -2.8497918  
C   -1.2321769    0.0002326   -2.1101398  
O   -2.4392822    0.0001149   -2.7472517  
C   -1.1911211   -0.0000007   -0.6955263  
O   -2.4371526   -0.0002319   -0.1032858  
C    0.0000000    0.0000000    0.0000000  
H    3.0031534   -0.0000661    0.6222578  
H    2.7054623   -0.0071098   -3.5745266  
H   -0.1193555    0.0014846   -3.9297472  
H   -3.1132992   -0.0000646   -2.0551783  
H   -2.3200279   -0.0004070    0.8516411  
C    0.8400945    0.7047457    2.2710304  
C    0.0000000    0.0000000    1.4700000  
C   -0.8844236   -0.7423113    2.3369512  
C   -0.4878984   -0.4098547    3.7186280  
N    0.5629682    0.4714286    3.6095011  
C   -1.0836927   -0.9095027    4.8308716  
C   -2.1891196   -1.8367527    4.6554461  
O   -2.7906899   -2.3413415    5.5944904  
C   -2.6257283   -2.2031529    3.2011665  
O   -3.5549479   -2.9829990    3.0410059  
C   -1.9068976   -1.5999348    2.0816745  
H   -0.7774656   -0.6525820    5.8354244  
H   -2.2155208   -1.8586617    1.0779135  
H    1.6384792    1.3747609    1.9961646  
H    1.0518368    0.8833920    4.3830260  
