64

C   -4.5064075    0.7893512   -7.6107309  
C   -5.7612809    0.5451756   -8.1188037  
C   -5.5991564   -0.3531642   -9.2148422  
C   -4.2116034   -0.6245025   -9.3288580  
N   -3.5767628    0.0865834   -8.3409545  
C   -3.6850929   -1.4750704  -10.3056430  
C   -4.5755606   -2.0626619  -11.1831289  
O   -4.1152449   -2.9020240  -12.1560593  
C   -5.9635177   -1.8040329  -11.0856461  
O   -6.7197224   -2.4639304  -12.0322365  
C   -6.4836089   -0.9648239  -10.1224432  
H   -6.6803372    0.9639848   -7.7460732  
H   -2.6285629   -1.6858604  -10.3979131  
H   -4.8905025   -3.1975782  -12.6509221  
H   -7.6442635   -2.2349946  -11.8965259  
H   -7.5512634   -0.7856743  -10.0724595  
H   -4.2008036    1.4103279   -6.7861382  
C   -1.2456296    0.0472577   -4.5828766  
C    0.0064710    0.0513033   -5.1526968  
C   -0.1796811    0.0650352   -6.5668251  
C   -1.5783858    0.0691436   -6.8024818  
N   -2.1962595    0.0561553   -5.5766431  
C   -2.1287541    0.0824347   -8.0876691  
C   -1.2511511    0.0920548   -9.1543914  
O   -1.7348674    0.1055378  -10.4306559  
C    0.1476556    0.0877795   -8.9395913  
O    0.8887355    0.0981697  -10.1032212  
C    0.6913098    0.0743962   -7.6720001  
H    0.9392564    0.0440130   -4.6152474  
H   -3.1889737    0.0661086   -5.4269721  
H   -0.9651079    0.1101306  -11.0143635  
H    1.8219889    0.0944491   -9.8694946  
H    1.7668039    0.0712424   -7.5386552  
C    1.1243418    0.0099155   -0.7919003  
C    0.7474093    0.0234033   -2.1148542  
C   -0.6787365    0.0234953   -2.1414700  
C   -1.1201738    0.0099357   -0.7935546  
N    0.0000000    0.0000000    0.0000000  
C   -2.4730811    0.0065398   -0.4408241  
C   -3.3971945    0.0173300   -1.4675058  
O   -4.7313507    0.0149490   -1.1793472  
C   -2.9763626    0.0305537   -2.8186325  
O   -4.0166449    0.0397860   -3.7247623  
C   -1.6418538    0.0336381   -3.1673481  
H    1.4178738    0.0310004   -2.9571209  
H   -2.8160170   -0.0039189    0.5845965  
H   -5.1938800    0.0234412   -2.0274384  
H   -3.6464643    0.0484782   -4.6127344  
H    2.1062469    0.0051381   -0.3505407  
C    2.5528530    2.1414826    2.8079335  
C    2.0663498    1.7338582    4.0032312  
C    0.9804344    0.8229586    3.6752840  
C    0.9495562    0.7966882    2.1971295  
N    1.8690446    1.5676019    1.6831036  
C    0.0000000    0.0000000    1.4700000  
C   -0.8785127   -0.7372425    2.1869543  
O   -1.8187535   -1.5261249    1.6395491  
C   -0.8723269   -0.7321790    3.6796354  
O   -1.7010379   -1.4274584    4.2670412  
C    0.1115397    0.0933559    4.4024240  
H    2.4028853    2.0163452    4.9860947  
H   -2.2861435   -1.9184361    2.3990168  
H    0.0832434    0.0693689    5.4835595  
H    3.3664920    2.8238276    2.6198634  
