66

C    4.7094277   -0.9938806   -5.0223153  
C    5.5564557   -1.8848347   -4.4048913  
C    6.6459063   -2.1105433   -5.2975009  
C    6.4070919   -1.3234749   -6.4531038  
N    5.2221239   -0.6595672   -6.2538697  
C    7.2801989   -1.2985240   -7.5448226  
C    8.4152140   -2.0821599   -7.4684507  
O    9.3017570   -2.0949884   -8.5061857  
C    8.6707863   -2.8745511   -6.3240661  
O    9.8422502   -3.5992813   -6.4001155  
C    7.8097483   -2.8998634   -5.2468022  
H    5.4068872   -2.3195426   -3.4314174  
H    4.8007283   -0.0175737   -6.9005928  
H    7.1038284   -0.7009146   -8.4285410  
H   10.0116804   -2.6985931   -8.2513619  
H    9.9394451   -4.1063450   -5.5883005  
H    8.0319555   -3.5168367   -4.3839896  
C    2.8346299   -0.6809232   -3.3508853  
C    3.4395162   -0.4171711   -4.5579537  
C    2.6017694    0.5065362   -5.2504457  
C    1.4910363    0.7724572   -4.4093250  
N    1.6628945    0.0339172   -3.2649299  
C    0.4591598    1.6433871   -4.7719565  
C    0.5503738    2.2572840   -6.0060505  
O   -0.4295441    3.1173045   -6.4099553  
C    1.6505939    2.0044723   -6.8595256  
O    1.5963525    2.6915456   -8.0546537  
C    2.6687908    1.1451897   -6.5025456  
H   -0.3901594    1.8501827   -4.1354868  
H   -0.1741854    3.4292990   -7.2878597  
H    2.3755044    2.4647854   -8.5714761  
H    3.4987580    0.9711151   -7.1773278  
H    3.1455905   -1.3234979   -2.5450564  
C    1.1243410    0.0100105   -0.7919003  
C    0.7474072    0.0234665   -2.1148542  
C   -0.6787384    0.0234379   -2.1414698  
C   -1.1201748    0.0098411   -0.7935547  
N    0.0000000    0.0000000    0.0000000  
C   -2.4730818    0.0063307   -0.4408240  
C   -3.3971962    0.0170429   -1.4675058  
O   -4.7313520    0.0145490   -1.1793468  
C   -2.9763654    0.0303020   -2.8186325  
O   -4.0166484    0.0394464   -3.7247625  
C   -1.6418567    0.0334992   -3.1673480  
H   -2.8160166   -0.0041569    0.5845966  
H   -5.1938823    0.0230023   -2.0274386  
H   -3.6464680    0.0481700   -4.6127343  
H   -1.3497475    0.0435647   -4.2109234  
H    2.1062466    0.0053162   -0.3505405  
C    0.8576279    0.7185626    2.2703808  
C    0.0000000    0.0000000    1.4700000  
C   -0.8668858   -0.7285659    2.3373528  
C   -0.4876752   -0.4117774    3.6669281  
N    0.5635254    0.4678311    3.5902241  
C   -1.1297612   -0.9515493    4.7854808  
C   -2.1738724   -1.8268314    4.5576857  
O   -2.8357962   -2.3827064    5.6140350  
C   -2.5667212   -2.1555554    3.2384331  
O   -3.6226318   -3.0413663    3.1773122  
C   -1.9335634   -1.6236449    2.1344818  
H    1.0363952    0.8769718    4.3757045  
H   -0.8454472   -0.7142436    5.8013813  
H   -3.5178062   -2.9546422    5.2385129  
H   -3.8247440   -3.2102924    2.2519915  
H   -2.2566033   -1.8942483    1.1360343  
H    1.6567807    1.3889844    2.0042067  
