62

C    1.0950565   -0.9830232   -9.4888426  
C    1.4802578   -0.5683108  -10.7426776  
C    1.2302121    0.8342638  -10.8124036  
C    0.6879936    1.2231018   -9.5607119  
N    0.6176054    0.0952460   -8.7812236  
C    0.3215184    2.5410771   -9.2718781  
C    0.5060484    3.4837498  -10.2645996  
O    0.1654503    4.7855186  -10.0356794  
C    1.0452841    3.1152048  -11.5200734  
O    1.1670733    4.1679653  -12.4033656  
C    1.4067915    1.8151291  -11.8058059  
H    1.8899301   -1.1993075  -11.5127452  
H   -0.0923961    2.8438503   -8.3199300  
H    0.3721269    5.2684562  -10.8464328  
H    1.5384655    3.8337512  -13.2255414  
H    1.8171430    1.5628088  -12.7765906  
H    1.1217783   -1.9629174   -9.0438123  
C    2.0234324   -2.1203367   -5.1612091  
C    1.8898405   -1.6210653   -6.4361003  
C    0.7628122   -0.7468331   -6.4249093  
C    0.2448267   -0.7524210   -5.1044597  
N    1.0324260   -1.5980774   -4.3633998  
C   -0.8712826    0.0001710   -4.7267111  
C   -1.4753121    0.7727082   -5.6995997  
O   -2.5682872    1.5273083   -5.3849617  
C   -0.9734765    0.7912225   -7.0227155  
O   -1.6848160    1.6097207   -7.8755935  
C    0.1273886    0.0488144   -7.3961488  
H    2.5257350   -1.8586903   -7.2716639  
H    0.9132302   -1.7948165   -3.3861244  
H   -2.8290819    1.9818422   -6.1965340  
H   -1.2808198    1.5648553   -8.7475895  
H    2.7463507   -2.8087674   -4.7582059  
C    1.0965514    0.0001359   -0.8010305  
C    0.0000000    0.0000000    0.0000000  
C   -1.1546563    0.0001470   -0.8669513  
C   -0.6372014    0.0003519   -2.2486282  
N    0.7342871    0.0007337   -2.1395014  
C   -1.4147739    0.0001352   -3.3608717  
C   -2.8576049   -0.0001048   -3.1854462  
O   -3.6427779   -0.0002494   -4.1244907  
C   -3.4275840   -0.0000725   -1.7311666  
O   -4.6406831    0.0000333   -1.5710060  
C   -2.4891867   -0.0001091   -0.6116744  
H   -2.8919122   -0.0002918    0.3920866  
H    2.1388272    0.0000663   -0.5261648  
H    1.3735872   -0.0006099   -2.9130262  
C    2.5128556    2.1077716    2.9199648  
C    1.9592212    1.6432552    4.0696553  
C    0.8915788    0.7479214    3.6910360  
C    0.8684491    0.7287414    2.2159470  
N    1.8754542    1.5738793    1.8102719  
C    0.0000000    0.0000000    1.4700000  
C   -0.9772830   -0.8200135    2.1664417  
O   -1.8021297   -1.5120829    1.5842315  
C   -0.9711318   -0.8147624    3.7284083  
O   -1.7894187   -1.5009653    4.3257297  
C    0.0140216    0.0115358    4.4216297  
H    2.2638494    1.8988021    5.0689105  
H    0.0117648    0.0094386    5.5031631  
H    3.3327358    2.7953732    2.7900019  
H    2.1123206    1.7707734    0.8551938  
