62

C    2.5407189   -2.1175681   -5.9030222  
C    1.9415421   -1.6187194   -7.0364259  
C    0.8989095   -0.7455179   -6.6062679  
C    0.9098667   -0.7512695   -5.1878981  
N    1.9175641   -1.5960294   -4.7935065  
C    0.0139746    0.0003883   -4.4216235  
C   -0.9096101    0.7721425   -5.0995353  
O   -1.8075338    1.5258146   -4.4004467  
C   -0.9365608    0.7908048   -6.5143649  
O   -1.9150938    1.6084501   -7.0409320  
C   -0.0532191    0.0493180   -7.2709567  
H    2.2207970   -1.8559587   -8.0487138  
H    2.1710267   -1.7926474   -3.8421502  
H   -2.3521998    1.9799184   -5.0564906  
H   -1.8648078    1.5637495   -8.0006599  
H   -0.0980665    0.0836396   -8.3532171  
H    3.3623587   -2.8052407   -5.7982731  
C    3.2798087    0.0005858   -1.4499643  
C    2.5571149    0.0005569   -2.5996548  
C    1.1637440    0.0001551   -2.2210358  
C    1.1336966   -0.0000198   -0.7459468  
N    2.4483512   -0.0001426   -0.3402714  
C    0.0000000    0.0000000    0.0000000  
C   -1.2757369   -0.0000185   -0.6964416  
O   -2.3524599   -0.0000639   -0.1142315  
C   -1.2676492   -0.0000870   -2.2584080  
O   -2.3355760   -0.0004099   -2.8557298  
C    0.0181565    0.0001762   -2.9516296  
H    2.9547360    0.0006079   -3.5989102  
H    2.7563627    0.0012824    0.6148067  
C    6.6317386    0.0027581   -4.3241585  
C    5.4016588    0.0020956   -3.7488515  
C    5.6054528    0.0015088   -2.3194099  
C    7.0655613    0.0019157   -2.1075768  
N    7.6303551    0.0022720   -3.3621277  
C    7.6659175    0.0019600   -0.8904996  
C    6.8173811    0.0013554    0.2895518  
O    7.2622818    0.0012827    1.4298867  
C    5.2683492    0.0006651    0.0887905  
O    4.5438183   -0.0001539    1.0748507  
C    4.7390849    0.0009618   -1.2727274  
H    4.4591036    0.0018436   -4.2667349  
H    8.7388162    0.0023916   -0.7570919  
H    6.8927439    0.0033438   -5.3699912  
H    8.6161405    0.0041529   -3.5499348  
C    0.8576279    0.7185626    2.2703808  
C    0.0000000    0.0000000    1.4700000  
C   -0.8668858   -0.7285659    2.3373528  
C   -0.4876752   -0.4117774    3.6669281  
N    0.5635254    0.4678311    3.5902241  
C   -1.1297612   -0.9515493    4.7854808  
C   -2.1738724   -1.8268314    4.5576857  
O   -2.8357962   -2.3827064    5.6140350  
C   -2.5667212   -2.1555554    3.2384331  
O   -3.6226318   -3.0413663    3.1773122  
C   -1.9335634   -1.6236449    2.1344818  
H    1.0363952    0.8769718    4.3757045  
H   -0.8454472   -0.7142436    5.8013813  
H   -3.5178062   -2.9546422    5.2385129  
H   -3.8247440   -3.2102924    2.2519915  
H   -2.2566033   -1.8942483    1.1360343  
H    1.6567807    1.3889844    2.0042067  
