60

C   10.9494574   -2.1199740    0.1255966  
C   11.9767445   -1.6210594   -0.6413656  
C   11.3907954   -0.7474129   -1.6046958  
C    9.9911577   -0.7529739   -1.3746784  
N    9.7570703   -1.5980522   -0.3184288  
C    9.0957825   -0.0008793   -2.1411296  
C    9.6229699    0.7711234   -3.1581173  
O    8.7936603    1.5252238   -3.9369578  
C   11.0166409    0.7896013   -3.4033844  
O   11.3858188    1.6075358   -4.4512555  
C   11.9005112    0.0476837   -2.6478330  
H   13.0199817   -1.8585411   -0.5219853  
H    8.8562744   -1.7946332    0.0789429  
H    9.3577376    1.9794385   -4.5763085  
H   12.3417786    1.5626849   -4.5499047  
H   12.9628466    0.0818732   -2.8593813  
H   10.9728090   -2.8079359    0.9533168  
C    6.4550017   -0.0009254    1.4492346  
C    7.5628472   -0.0014711    0.6718947  
C    7.0625116   -0.0013726   -0.6941815  
C    5.5906514   -0.0008359   -0.5520180  
N    5.2286132   -0.0004914    0.7021423  
C    4.7161325   -0.0005435   -1.6923264  
C    5.2860924   -0.0003877   -2.9188991  
O    4.5914235   -0.0001201   -4.0693237  
C    6.7683524   -0.0005474   -3.0951535  
O    7.2177891   -0.0005154   -4.2411146  
C    7.6440945   -0.0008910   -1.9098262  
H    8.5924160   -0.0017981    0.9866389  
H    5.2697914   -0.0000404   -4.7685877  
H    6.3993982   -0.0008020    2.5262129  
C    3.2573665   -0.0002920   -1.5109385  
C    2.5379463   -0.0001709   -0.3591964  
C    1.1435038    0.0000331   -0.7338500  
C    1.1092599   -0.0000083   -2.2088477  
N    2.4227553    0.0001909   -2.6182613  
C   -0.0265539   -0.0002524   -2.9515660  
C   -1.3003040   -0.0002640   -2.2514977  
O   -2.3786790   -0.0004133   -2.8306421  
C   -1.2877727    0.0000311   -0.6895603  
O   -2.3539959    0.0003306   -0.0892030  
C    0.0000000    0.0000000    0.0000000  
H    2.9384091   -0.0000367    0.6389234  
H   -0.0296303   -0.0004086   -4.0327229  
H    2.7280482   -0.0013407   -3.5742119  
C    0.8400945    0.7047457    2.2710304  
C    0.0000000    0.0000000    1.4700000  
C   -0.8844236   -0.7423113    2.3369512  
C   -0.4878984   -0.4098547    3.7186280  
N    0.5629682    0.4714286    3.6095011  
C   -1.0836927   -0.9095027    4.8308716  
C   -2.1891196   -1.8367527    4.6554461  
O   -2.7906899   -2.3413415    5.5944904  
C   -2.6257283   -2.2031529    3.2011665  
O   -3.5549479   -2.9829990    3.0410059  
C   -1.9068976   -1.5999348    2.0816745  
H   -0.7774656   -0.6525820    5.8354244  
H   -2.2155208   -1.8586617    1.0779135  
H    1.6384792    1.3747609    1.9961646  
H    1.0518368    0.8833920    4.3830260  
