64

C    1.3266578   -1.0599352   -7.3398642  
C    2.3281263   -1.9458194   -7.0162337  
C    3.0617844   -2.2001087   -8.2127640  
C    2.4567980   -1.4348950   -9.2425044  
N    1.4051738   -0.7559580   -8.6788114  
C    2.9210550   -1.4406814  -10.5612997  
C    4.0161750   -2.2331520  -10.8456945  
O    4.5108430   -2.2757172  -12.1171127  
C    4.6332708   -3.0040755   -9.8319459  
O    5.7126493   -3.7411466  -10.2735461  
C    4.1756395   -2.9990622   -8.5307643  
H    2.5071037   -2.3588959   -6.0383138  
H    0.7953592   -0.1235562   -9.1647902  
H    2.4643051   -0.8598421  -11.3507347  
H    5.2638717   -2.8805390  -12.0970079  
H    6.0711218   -4.2322087   -9.5279192  
H    4.6687278   -3.6001209   -7.7757348  
C    0.1064600   -0.7138168   -5.1554291  
C   -0.9736297    0.0040464   -4.6965763  
C   -1.4912364    0.7334043   -5.8077560  
C   -0.6795014    0.4177976   -6.9273113  
N    0.2821068   -0.4618995   -6.4959643  
C   -0.8998159    0.9585821   -8.1976668  
C   -1.9590503    1.8336802   -8.3405056  
O   -2.2193113    2.3905123   -9.5592002  
C   -2.7800667    2.1612319   -7.2353099  
O   -3.7933058    3.0470085   -7.5387754  
C   -2.5631419    1.6283223   -5.9817237  
H   -0.2846921    0.7221794   -9.0549515  
H   -2.9888519    2.9621252   -9.4394875  
H   -4.3001570    3.2151110   -6.7384960  
H   -3.2086819    1.8980388   -5.1540709  
H    0.7663116   -1.3844917   -4.6322179  
C    1.1188642    0.0008222   -0.8003808  
C    0.0000000    0.0000000    0.0000000  
C   -1.1323862    0.0008899   -0.8673528  
C   -0.6382663    0.0019679   -2.1969280  
N    0.7324016    0.0038481   -2.1202242  
C   -1.4770914    0.0027318   -3.3154808  
C   -2.8395473    0.0020945   -3.0876857  
O   -3.7039201    0.0024425   -4.1440349  
C   -3.3517868    0.0013931   -1.7684331  
O   -4.7300497    0.0012366   -1.7073121  
C   -2.5248543    0.0009123   -0.6644817  
H    1.3576314   -0.0056167   -2.9057046  
H   -4.5940032    0.0021826   -3.7685128  
H   -4.9934602    0.0007259   -0.7819913  
H   -2.9462577    0.0005603    0.3339659  
H    2.1619895    0.0009355   -0.5342068  
C    2.5528530    2.1414826    2.8079335  
C    2.0663498    1.7338582    4.0032312  
C    0.9804344    0.8229586    3.6752840  
C    0.9495562    0.7966882    2.1971295  
N    1.8690446    1.5676019    1.6831036  
C    0.0000000    0.0000000    1.4700000  
C   -0.8785127   -0.7372425    2.1869543  
O   -1.8187535   -1.5261249    1.6395491  
C   -0.8723269   -0.7321790    3.6796354  
O   -1.7010379   -1.4274584    4.2670412  
C    0.1115397    0.0933559    4.4024240  
H    2.4028853    2.0163452    4.9860947  
H   -2.2861435   -1.9184361    2.3990168  
H    0.0832434    0.0693689    5.4835595  
H    3.3664920    2.8238276    2.6198634  
