62

C   -0.1387076    0.0017018   -4.3179686  
C    0.8680296    0.0011951   -5.2554906  
C    0.2429724    0.0018229   -6.5376383  
C   -1.1582723    0.0029974   -6.3175529  
N   -1.3554486    0.0009410   -4.9589754  
C   -2.0878498    0.0041701   -7.3619061  
C   -1.5938800    0.0044639   -8.6519332  
O   -2.4574174    0.0059472   -9.7089646  
C   -0.1991523    0.0029311   -8.8918277  
O    0.1346067    0.0030288  -10.2304648  
C    0.7184772    0.0015004   -7.8620321  
H    1.9231280   -0.0006420   -5.0415805  
H   -2.2494816    0.0117256   -4.5022806  
H   -3.1570786    0.0049246   -7.2008123  
H   -1.9125260    0.0055956  -10.5066853  
H    1.0938159    0.0019687  -10.3047652  
H    1.7807477    0.0001625   -8.0766449  
C    3.3041273    0.0001177   -1.5420426  
C    2.5845371   -0.0004780   -0.3695849  
C    1.2040008   -0.0000008   -0.7283588  
C    1.1422377    0.0006037   -2.1454371  
N    2.4348643    0.0026111   -2.6077461  
C   -0.0655176    0.0008798   -2.8497919  
C   -1.2321767    0.0002324   -2.1101405  
O   -2.4392813    0.0001147   -2.7472523  
C   -1.1911212   -0.0000007   -0.6955267  
O   -2.4371528   -0.0002320   -0.1032865  
C    0.0000000    0.0000000    0.0000000  
H    3.0031533   -0.0000661    0.6222586  
H    2.7054634   -0.0071098   -3.5745257  
H   -3.1132980   -0.0000650   -2.0551791  
H   -2.3200288   -0.0004072    0.8516407  
C    4.7577221    0.0005130   -1.7610455  
C    5.7612601   -0.0009797   -0.8461768  
C    7.0028643    0.0003067   -1.5832327  
C    6.6377961    0.0027174   -3.0127466  
N    5.2625476    0.0023275   -3.0525127  
C    7.5310416    0.0048719   -4.0344178  
C    8.9464547    0.0045862   -3.7040554  
O    9.8285343    0.0063487   -4.5527210  
C    9.3558918    0.0017973   -2.1966871  
O   10.5445704    0.0012260   -1.9063341  
C    8.3019800   -0.0000948   -1.1851940  
H    5.6450064   -0.0029591    0.2229794  
H    7.2422432    0.0067507   -5.0762917  
H    8.5938431   -0.0018160   -0.1437829  
H    4.7106086    0.0051847   -3.8906072  
C    0.8681109    0.7263879    2.2709268  
C    0.6127770    0.5096195    3.5869401  
C   -0.4920590   -0.4175482    3.6542670  
C   -0.8620974   -0.7254003    2.2596025  
N    0.0000000    0.0000000    1.4700000  
C   -1.8641242   -1.5660088    1.8976294  
C   -2.6293522   -2.2103885    2.9520183  
O   -3.5512764   -2.9839180    2.7283916  
C   -2.2549728   -1.8987399    4.4361073  
O   -2.8923672   -2.4351063    5.3323774  
C   -1.1543735   -0.9755647    4.7012123  
H    1.1382914    0.9492124    4.4159191  
H   -2.1192137   -1.7782617    0.8686553  
H   -0.9013378   -0.7652422    5.7314848  
H    1.6172880    1.3558399    1.8188057  
