64

C    1.1243407    0.0099918   -0.7919011  
C    0.7474070    0.0234537   -2.1148548  
C   -0.6787389    0.0234486   -2.1414697  
C   -1.1201748    0.0098592   -0.7935545  
N    0.0000000    0.0000000    0.0000000  
C   -2.4730816    0.0063711   -0.4408237  
C   -3.3971960    0.0170983   -1.4675051  
O   -4.7313524    0.0146266   -1.1793453  
C   -2.9763659    0.0303506   -2.8186315  
O   -4.0166486    0.0395119   -3.7247612  
C   -1.6418572    0.0335257   -3.1673476  
H    1.4178706    0.0310961   -2.9571212  
H   -2.8160166   -0.0041105    0.5845974  
H   -5.1938826    0.0230873   -2.0274370  
H   -3.6464687    0.0482291   -4.6127332  
H    2.1062465    0.0052813   -0.3505410  
C    1.5662170   -2.0369334   -5.3849788  
C    0.7247348   -1.5841899   -4.4200922  
C   -0.2036122   -0.6824646   -5.0603256  
C    0.1686516   -0.6467490   -6.4875373  
N    1.2488251   -1.4887532   -6.6184702  
C   -0.4698303    0.0914807   -7.4304387  
C   -1.5988886    0.9053323   -7.0116220  
O   -2.2389969    1.6051223   -7.7854801  
C   -2.0104588    0.8829877   -5.5049977  
O   -2.9592406    1.5643450   -5.1405443  
C   -1.2456343    0.0471721   -4.5828762  
H    0.7514295   -1.8512710   -3.3786662  
H    2.3916469   -2.7247631   -5.2986873  
H    1.7309295   -1.6776748   -7.4780815  
C    0.8930995   -3.1299759  -10.2150925  
C    0.4576527   -2.4341723   -9.1111402  
C    0.3210654   -1.0702888   -9.5058123  
C    0.6900706   -0.9937518  -10.8732561  
N    1.0336963   -2.2615788  -11.2721970  
C    0.6748386    0.2037076  -11.5948148  
C    0.2796128    1.3446360  -10.9238043  
O    0.2461399    2.5406469  -11.5806535  
C   -0.0918754    1.2885874   -9.5593730  
O   -0.4606904    2.5093935   -9.0331099  
C   -0.0768279    0.1076580   -8.8468379  
H    0.2635148   -2.8573610   -8.1404629  
H    1.3286032   -2.5191575  -12.1966777  
H    0.9550523    0.2687267  -12.6371471  
H   -0.0527919    3.1969184  -10.9378375  
H   -0.6963907    2.3834846   -8.1088831  
H    1.1158875   -4.1767474  -10.3316885  
C    0.8676693    0.7151171    2.2619005  
C    0.5875920    0.4624972    3.5848544  
C   -0.5048400   -0.4542819    3.6114698  
C   -0.8517165   -0.7276451    2.2635546  
N    0.0000000    0.0000000    1.4700000  
C   -1.8902865   -1.5946756    1.9108239  
C   -2.5912627   -2.1969500    2.9375057  
O   -3.6148162   -3.0527051    2.6493466  
C   -2.2603868   -1.9365747    4.2886322  
O   -3.0513550   -2.6123276    5.1947621  
C   -1.2361111   -1.0811317    4.6373480  
H    1.1060808    0.8876438    4.4271209  
H   -2.1597133   -1.8070987    0.8854031  
H   -3.9636755   -3.3565188    3.4974381  
H   -2.7621927   -2.3810384    6.0827341  
H   -1.0058879   -0.9010589    5.6809233  
H    1.6167816    1.3499334    1.8205408  
