62

C    3.3003537    0.0005277   -1.4739000  
C    2.5232799    0.0003499   -2.6090757  
C    1.1623189   -0.0001317   -2.1820106  
C    1.1711885    0.0000585   -0.7636144  
N    2.4852295   -0.0014918   -0.3662368  
C    0.0000000    0.0000000    0.0000000  
C   -1.2020393    0.0000521   -0.6806474  
O   -2.3759254    0.0003495    0.0157755  
C   -1.2314656   -0.0005110   -2.0955503  
O   -2.5054398   -0.0008034   -2.6250168  
C   -0.0764531   -0.0007269   -2.8495194  
H    2.8919938   -0.0005616   -3.6205312  
H    2.8036265    0.0088181    0.5858651  
H   -3.0835643    0.0000349   -0.6418807  
H   -2.4360069   -0.0011524   -3.5845912  
H   -0.1304110   -0.0013418   -3.9319084  
C    6.5907940    0.0004125   -4.4182901  
C    5.3731470    0.0003988   -3.8171156  
C    5.6071040    0.0003106   -2.3923001  
C    7.0713633    0.0003030   -2.2113713  
N    7.6095187   -0.0000323   -3.4775776  
C    7.6973063    0.0006260   -1.0072532  
C    6.8738980    0.0007803    0.1904669  
O    7.3427984    0.0010090    1.3211452  
C    5.3209689    0.0005394    0.0224868  
O    4.6174387    0.0003599    1.0236386  
C    4.7630496    0.0004757   -1.3275420  
H    4.4198578    0.0002628   -4.3149641  
H    6.8296397    0.0004931   -5.4694055  
H    8.5911147    0.0014371   -3.6861768  
C   10.9178727    2.0944830   -3.1844406  
C    9.7158034    1.6319376   -2.7541425  
C    9.9792037    0.7357007   -1.6531365  
C   11.4437619    0.7138874   -1.4759811  
N   11.9539895    1.5578815   -2.4352679  
C   12.0935345   -0.0157617   -0.5341146  
C   11.2973080   -0.8343896    0.3649994  
O   11.7888736   -1.5272166    1.2462790  
C    9.7445819   -0.8267335    0.1953280  
O    9.0638275   -1.5122240    0.9462859  
C    9.1595802    0.0007866   -0.8567347  
H    8.7543268    1.8890781   -3.1616421  
H   13.1687582   -0.0175006   -0.4209669  
H   11.1340096    2.7820511   -3.9859549  
H   12.9287440    1.7553524   -2.5690847  
C    2.5311839    2.1237619    3.0120429  
C    1.9795631    1.6616747    1.8395852  
C    0.9223175    0.7739173    2.1983588  
C    0.8753926    0.7337535    3.6154372  
N    1.8668922    1.5631002    4.0777464  
C   -0.0496243   -0.0427881    4.3197917  
C   -0.9437528   -0.7922060    3.5801400  
O   -1.8685244   -1.5680278    4.2172520  
C   -0.9124520   -0.7656372    2.1655264  
O   -1.8671164   -1.5663939    1.5732860  
C    0.0000000    0.0000000    1.4700000  
H    2.3005065    1.9304404    0.8477417  
H    2.0679347    1.7444845    5.0445261  
H   -0.0904770   -0.0778569    5.3997470  
H   -2.3849669   -2.0011402    3.5251786  
H   -1.7775064   -1.4909735    0.6183591  
H    3.3468514    2.8078103    3.1724291  
