62

C   -0.3742253   -0.0620426   -8.7963141  
C    0.3758414   -0.7187299   -9.7442749  
C   -0.1318527   -0.3301696  -11.0193696  
C   -1.2001004    0.5729227  -10.7844284  
N   -1.3217939    0.7121143   -9.4241225  
C   -1.9354615    1.1599430  -11.8185669  
C   -1.5858706    0.8295083  -13.1134712  
O   -2.2707027    1.3742226  -14.1609933  
C   -0.5232962   -0.0698793  -13.3681362  
O   -0.2977250   -0.2980802  -14.7099208  
C    0.2024124   -0.6495758  -12.3484183  
H    1.1881837   -1.3955128   -9.5416470  
H   -1.9897648    1.2992949   -8.9582745  
H   -2.7508406    1.8488735  -11.6461316  
H   -1.8713539    1.0157140  -14.9642728  
H    0.4350981   -0.9156851  -14.7944090  
H    1.0108722   -1.3350414  -12.5742677  
C    2.2088374   -2.1426207   -5.8191636  
C    1.6816912   -1.7351243   -6.9971456  
C    0.6077900   -0.8240080   -6.6323121  
C    0.6276206   -0.7974854   -5.1539730  
N    1.5640846   -1.5684500   -4.6716456  
C   -0.2963293   -0.0005341   -4.3948471  
C   -1.1988048    0.7367190   -5.0813825  
O   -2.1196089    1.5258328   -4.5021932  
C   -1.2438086    0.7314045   -6.5733969  
O   -2.0920751    1.4267088   -7.1321599  
C   -0.2854235   -0.0943978   -7.3293552  
H    1.9842852   -2.0178259   -7.9909228  
H   -2.6127107    1.9180866   -5.2452551  
H    3.0283492   -2.8250551   -5.6589865  
C    3.1301146   -0.0010313   -1.7028256  
C    2.5367765   -0.0002766   -0.4864669  
C    1.1089901    0.0001027   -0.7656184  
C    1.0177865   -0.0004150   -2.2415133  
N    2.1993571   -0.0011612   -2.7963824  
C   -0.2459219   -0.0002879   -2.9257116  
C   -1.3675326   -0.0000606   -2.1698520  
O   -2.6129318    0.0000865   -2.6748483  
C   -1.3083588    0.0000910   -0.6783229  
O   -2.3693264    0.0004206   -0.0541685  
C    0.0000000    0.0000000    0.0000000  
H    3.0096016   -0.0001007    0.4807518  
H   -3.1967444    0.0002093   -1.8949026  
H    4.1849275   -0.0015114   -1.9271979  
C    0.8576279    0.7185626    2.2703808  
C    0.0000000    0.0000000    1.4700000  
C   -0.8668858   -0.7285659    2.3373528  
C   -0.4876752   -0.4117774    3.6669281  
N    0.5635254    0.4678311    3.5902241  
C   -1.1297612   -0.9515493    4.7854808  
C   -2.1738724   -1.8268314    4.5576857  
O   -2.8357962   -2.3827064    5.6140350  
C   -2.5667212   -2.1555554    3.2384331  
O   -3.6226318   -3.0413663    3.1773122  
C   -1.9335634   -1.6236449    2.1344818  
H    1.0363952    0.8769718    4.3757045  
H   -0.8454472   -0.7142436    5.8013813  
H   -3.5178062   -2.9546422    5.2385129  
H   -3.8247440   -3.2102924    2.2519915  
H   -2.2566033   -1.8942483    1.1360343  
H    1.6567807    1.3889844    2.0042067  
