62

C    8.3196618    2.1153635   -5.1497422  
C    9.6005138    1.6151671   -5.1908341  
C    9.7423700    0.7414332   -4.0723237  
C    8.5048163    0.7482643   -3.3792591  
N    7.6639512    1.5941501   -4.0589951  
C    8.2821317   -0.0035515   -2.2216869  
C    9.3277028   -0.7765764   -1.7554343  
O    9.1643866   -1.5304590   -0.6293781  
C   10.5700905   -0.7963286   -2.4328565  
O   11.5113586   -1.6151751   -1.8439186  
C   10.7905690   -0.0546868   -3.5747332  
H   10.3418099    1.8518719   -5.9347728  
H    6.7121694    1.7916944   -3.8078617  
H   10.0036051   -1.9855052   -0.4813506  
H   12.3202090   -1.5711575   -2.3629822  
H   11.7529041   -0.0898620   -4.0718777  
H    7.8224038    2.8037904   -5.8113770  
C    5.7656457   -0.0007237   -2.0564738  
C    7.0030818   -0.0022266   -1.4971664  
C    6.8178420   -0.0019778   -0.0652022  
C    5.3606050   -0.0002231    0.1655478  
N    4.7795901    0.0008674   -1.0815733  
C    4.7760820    0.0001054    1.3903079  
C    5.6398486   -0.0011418    2.5592563  
O    5.2097730   -0.0009020    3.7052649  
C    7.1861463   -0.0027556    2.3384243  
O    7.9234036   -0.0035081    3.3150064  
C    7.6977096   -0.0032489    0.9701573  
H    3.7050038    0.0012721    1.5376178  
H    8.7695754   -0.0045735    0.8258452  
H    5.4911001   -0.0004278   -3.0988333  
C    3.3321168    0.0004716   -1.3379341  
C    2.6974177    0.0000118   -2.5332316  
C    1.2800432   -0.0002116   -2.2052842  
C    1.2395033    0.0000644   -0.7271298  
N    2.4394059    0.0005460   -0.2131041  
C    0.0000000    0.0000000    0.0000000  
C   -1.1468704    0.0000635   -0.7169542  
O   -2.3742206    0.0000074   -0.1695488  
C   -1.1388774    0.0001608   -2.2096352  
O   -2.2206238    0.0000906   -2.7970409  
C    0.1454514    0.0001818   -2.9324241  
H    3.1367978   -0.0000649   -3.5160956  
H   -2.9844350    0.0001027   -0.9290164  
H    0.1083567    0.0003684   -4.0135594  
C    0.8576279    0.7185626    2.2703808  
C    0.0000000    0.0000000    1.4700000  
C   -0.8668858   -0.7285659    2.3373528  
C   -0.4876752   -0.4117774    3.6669281  
N    0.5635254    0.4678311    3.5902241  
C   -1.1297612   -0.9515493    4.7854808  
C   -2.1738724   -1.8268314    4.5576857  
O   -2.8357962   -2.3827064    5.6140350  
C   -2.5667212   -2.1555554    3.2384331  
O   -3.6226318   -3.0413663    3.1773122  
C   -1.9335634   -1.6236449    2.1344818  
H    1.0363952    0.8769718    4.3757045  
H   -0.8454472   -0.7142436    5.8013813  
H   -3.5178062   -2.9546422    5.2385129  
H   -3.8247440   -3.2102924    2.2519915  
H   -2.2566033   -1.8942483    1.1360343  
H    1.6567807    1.3889844    2.0042067  
