62

C    6.5501220   -3.1968519   -5.0173114  
C    5.9903381   -1.9450969   -4.9067699  
C    6.7670193   -1.0683056   -5.7207738  
C    7.7957081   -1.8481695   -6.3085991  
N    7.6360458   -3.1353885   -5.8589407  
C    8.7520267   -1.3094631   -7.1746475  
C    8.6681826    0.0410543   -7.4525876  
O    9.5763332    0.6184886   -8.2921389  
C    7.6492925    0.8358466   -6.8755403  
O    7.7002484    2.1627178   -7.2499180  
C    6.7056891    0.3051241   -6.0208635  
H    8.2135825   -3.9155557   -6.1154018  
H    9.5386335   -1.8984434   -7.6258152  
H    9.3402507    1.5535704   -8.3482782  
H    6.9786370    2.6288692   -6.8168088  
H    5.9371162    0.9388019   -5.5939825  
H    6.2615546   -4.1283618   -4.5612664  
C    4.5310506   -2.0790480   -2.8543220  
C    4.8140929   -1.6029425   -4.0941952  
C    3.7433601   -0.7037140   -4.4544102  
C    2.8066152   -0.6948783   -3.3145761  
N    3.3414841   -1.5491127   -2.3780461  
C    1.6628945    0.0339172   -3.2649299  
C    1.3323529    0.8649110   -4.4106728  
O    0.3247031    1.5579299   -4.4623206  
C    2.3099258    0.8707265   -5.6289188  
O    2.0419947    1.5662241   -6.5993602  
C    3.5120771    0.0432793   -5.5655568  
H    4.1838703    0.0530795   -6.4130956  
H    5.0912893   -2.7726311   -2.2485463  
H    2.9319191   -1.7542582   -1.4851748  
C    1.1243410    0.0100105   -0.7919003  
C    0.7474072    0.0234665   -2.1148542  
C   -0.6787384    0.0234379   -2.1414698  
C   -1.1201748    0.0098411   -0.7935547  
N    0.0000000    0.0000000    0.0000000  
C   -2.4730818    0.0063307   -0.4408240  
C   -3.3971962    0.0170429   -1.4675058  
O   -4.7313520    0.0145490   -1.1793468  
C   -2.9763654    0.0303020   -2.8186325  
O   -4.0166484    0.0394464   -3.7247625  
C   -1.6418567    0.0334992   -3.1673480  
H   -2.8160166   -0.0041569    0.5845966  
H   -5.1938823    0.0230023   -2.0274386  
H   -3.6464680    0.0481700   -4.6127343  
H   -1.3497475    0.0435647   -4.2109234  
H    2.1062466    0.0053162   -0.3505405  
C    0.0000000    0.0000000    1.4700000  
C    1.0541688    0.0001722    2.3260392  
C    0.5103138    0.0000454    3.6635956  
C   -0.9576371   -0.0002459    3.5155732  
N   -1.2018458    0.0001392    2.1615969  
C   -1.8348311   -0.0008317    4.5510609  
C   -1.2972847   -0.0009736    5.9014604  
O   -2.0050672   -0.0014265    6.9001319  
C    0.2542623   -0.0004184    6.0817573  
O    0.7184670   -0.0002256    7.2139121  
C    1.0974552   -0.0000873    4.8889129  
H    2.0940752    0.0005483    2.0517982  
H   -2.9081052   -0.0011668    4.4207061  
H    2.1707277    0.0000911    5.0223670  
H   -2.1128194   -0.0014912    1.7406791  
