64

C    5.3267036   -1.0701852   -6.6315997  
C    6.3278996   -1.9558130   -6.3064278  
C    7.0614790   -2.2124107   -7.5025123  
C    6.4567282   -1.4488047   -8.5335837  
N    5.4053133   -0.7685636   -7.9710750  
C    6.9209838   -1.4570299   -9.8523675  
C    8.0158593   -2.2503317  -10.1353808  
O    8.5105142   -2.2952625  -11.4067226  
C    8.6327177   -3.0196792   -9.1202913  
O    9.7118693   -3.7578501   -9.5606070  
C    8.1750880   -3.0122596   -7.8191206  
H    6.5067494   -2.3672413   -5.3277893  
H    4.7956932   -0.1368211   -8.4581536  
H    6.4644128   -0.8774255  -10.6428128  
H    9.2633567   -2.9002803  -11.3855645  
H   10.0701909   -4.2477238   -8.8141270  
H    8.6679912   -3.6121548   -7.0630455  
C    4.1066124   -0.7198886   -4.4477717  
C    3.0267438   -0.0008951   -3.9901699  
C    2.5093617    0.7266865   -5.1026180  
C    3.3209996    0.4088812   -6.2216217  
N    4.2823367   -0.4703596   -5.7887433  
C    3.1008514    0.9475210   -7.4929164  
C    2.0418866    1.8226954   -7.6372801  
O    1.7817967    2.3774851   -8.8569416  
C    1.2209707    2.1524235   -6.5326559  
O    0.2080046    3.0379821   -6.8376635  
C    1.4377317    1.6216302   -5.2781441  
H    3.7159027    0.7094369   -8.3497888  
H    1.0124325    2.9495423   -8.7382249  
H   -0.2987947    3.2076338   -6.0376788  
H    0.7922746    1.8929862   -4.4509625  
H    4.7662577   -1.3898546   -3.9233937  
C    3.3003547    0.0005277   -1.4738986  
C    2.5232816    0.0003497   -2.6090746  
C    1.1623203   -0.0001319   -2.1820102  
C    1.1711884    0.0000584   -0.7636141  
N    2.4852301   -0.0014919   -0.3662359  
C    0.0000000    0.0000000    0.0000000  
C   -1.2020383    0.0000520   -0.6806479  
O   -2.3759248    0.0003493    0.0157745  
C   -1.2314655   -0.0005115   -2.0955511  
O   -2.5054388   -0.0008040   -2.6250184  
C   -0.0764513   -0.0007274   -2.8495195  
H    2.8036266    0.0088183    0.5858662  
H   -3.0835639    0.0000346   -0.6418822  
H   -2.4360043   -0.0011529   -3.5845924  
H   -0.1304091   -0.0013423   -3.9319089  
H    4.3715553    0.0004897   -1.3667133  
C    0.8400945    0.7047457    2.2710304  
C    0.0000000    0.0000000    1.4700000  
C   -0.8844236   -0.7423113    2.3369512  
C   -0.4878984   -0.4098547    3.7186280  
N    0.5629682    0.4714286    3.6095011  
C   -1.0836927   -0.9095027    4.8308716  
C   -2.1891196   -1.8367527    4.6554461  
O   -2.7906899   -2.3413415    5.5944904  
C   -2.6257283   -2.2031529    3.2011665  
O   -3.5549479   -2.9829990    3.0410059  
C   -1.9068976   -1.5999348    2.0816745  
H   -0.7774656   -0.6525820    5.8354244  
H   -2.2155208   -1.8586617    1.0779135  
H    1.6384792    1.3747609    1.9961646  
H    1.0518368    0.8833920    4.3830260  
