62

C    0.2788584    1.0892571   -0.7919011  
C    0.1691227    0.7283993   -2.1148548  
C   -0.1968338   -0.6499936   -2.1414703  
C   -0.2969760   -1.0801360   -0.7935553  
N    0.0000000    0.0000000    0.0000000  
C   -0.6407726   -2.3886364   -0.4408246  
C   -0.8882761   -3.2790540   -1.4675065  
O   -1.2282433   -4.5691707   -1.1793471  
C   -0.7930956   -2.8689139   -2.8186328  
O   -1.0688958   -3.8720123   -3.7247626  
C   -0.4537180   -1.5782762   -3.1673486  
H    0.3337831    1.3783742   -2.9571216  
H   -0.7186418   -2.7227781    0.5845959  
H   -1.3551098   -5.0140418   -2.0274387  
H   -0.9823301   -3.5119908   -4.6127348  
H    0.5353768    2.0370749   -0.3505414  
C    2.2791674    0.9713418   -5.5953574  
C    1.7237879    0.3268239   -4.5428698  
C    0.5811685   -0.3823744   -5.0978094  
C    0.5962616   -0.0447872   -6.5373893  
N    1.5893976    0.7483754   -6.8349858  
C   -0.3886173   -0.5577328   -7.4495225  
C   -1.3448691   -1.3712698   -6.9464577  
O   -2.3256814   -1.9212720   -7.6823560  
C   -1.3866957   -1.7308209   -5.4983090  
O   -2.2858442   -2.4763995   -5.1098955  
C   -0.3652331   -1.1918188   -4.5828773  
H    2.0493462    0.3319462   -3.5166820  
H   -0.3536009   -0.2943646   -8.4965758  
H   -2.8466913   -2.4463370   -7.0483144  
C    3.4653149    1.8396235   -5.6017732  
C    4.2549369    2.1796461   -4.5565644  
C    5.2723159    3.0516466   -5.1231815  
C    4.9359247    3.1317182   -6.5608930  
N    3.8775682    2.4233377   -6.8473659  
C    5.7160291    3.9108534   -7.4825612  
C    6.7834302    4.5799066   -6.9902630  
O    7.5988104    5.3449564   -7.7358464  
C    7.1484493    4.5193342   -5.5441464  
O    8.1332183    5.1536135   -5.1658075  
C    6.3325398    3.7131314   -4.6188072  
H    4.1588183    1.8762721   -3.5280698  
H    5.4473434    3.9512353   -8.5280697  
H    8.2607250    5.6868573   -7.1080522  
H    6.6300985    3.6953694   -3.5789163  
C    2.5285572    2.1210227    2.9438989  
C    1.9331703    1.6216660    4.0790748  
C    0.8903039    0.7472258    3.6520102  
C    0.8972198    0.7527806    2.2336141  
N    1.9028376    1.5986179    1.8362361  
C    0.0000000    0.0000000    1.4700000  
C   -0.9207814   -0.7726952    2.1506477  
O   -1.8198395   -1.5274828    1.4542253  
C   -0.9436862   -0.7911793    3.5655508  
O   -1.9197945   -1.6098497    4.0950179  
C   -0.0590329   -0.0485852    4.3195194  
H    2.2150357    1.8593692    5.0905303  
H    2.1533708    1.7953814    0.8841339  
H   -2.3621246   -1.9821033    2.1118817  
H   -1.8668290   -1.5649508    5.0545920  
H   -0.1007624   -0.0827977    5.4019087  
H    3.3491200    2.8096064    2.8367138  
