62

C   -8.4320838    2.9520589   -2.2652489  
C   -7.5945812    1.9892385   -2.7790914  
C   -8.3244512    0.7637483   -2.7870977  
C   -9.6123749    1.0429334   -2.2624689  
N   -9.6434720    2.3802589   -1.9539053  
C  -10.6008573    0.0639744   -2.1234333  
C  -10.2835072   -1.2201518   -2.5215369  
O  -11.2116711   -2.2144491   -2.4079675  
C   -9.0037977   -1.5184884   -3.0470418  
O   -8.8418933   -2.8429155   -3.3977883  
C   -8.0280572   -0.5532763   -3.1842378  
H   -6.5817755    2.1501280   -3.1067059  
H  -10.4329436    2.8697637   -1.5729871  
H  -11.5843382    0.2702863   -1.7241809  
H  -10.7910179   -3.0195115   -2.7368912  
H   -7.9515800   -2.9593984   -3.7432987  
H   -8.2606923    4.0011325   -2.0948722  
C   -3.9706103    0.7078764   -2.0752018  
C   -3.2578655    0.0024282   -2.9908505  
C   -4.2092627   -0.7390177   -3.7845364  
C   -5.5442815   -0.4052871   -3.2524286  
N   -5.3302410    0.4758321   -2.2176800  
C   -6.7107872   -0.9038561   -3.7345060  
C   -6.6471651   -1.8312060   -4.8518735  
O   -7.6419124   -2.3348780   -5.3569421  
C   -5.2439270   -2.1989459   -5.4310929  
O   -5.1778117   -2.9788878   -6.3716140  
C   -4.0578617   -1.5968206   -4.8273161  
H   -3.0900594   -1.8564716   -5.2343343  
H   -3.6169908    1.3775867   -1.3081744  
H   -6.0508612    0.8884930   -1.6542400  
C    0.0000000    0.0000000    0.0000000  
C    1.0521666   -0.0011982   -0.8862343  
C    0.4917215   -0.0011996   -2.1979132  
C   -0.9187429    0.0003215   -2.0478682  
N   -1.1833171   -0.0009323   -0.7007913  
C   -1.7951703    0.0010483   -3.1372089  
C   -1.2375841    0.0005313   -4.4010422  
O   -2.0474218    0.0015510   -5.4997578  
C    0.1673576   -0.0013585   -4.5711963  
O    0.5673520   -0.0020735   -5.8915554  
C    1.0325768   -0.0023493   -3.4969892  
H    2.0953056   -0.0030808   -0.6200564  
H   -2.0989778    0.0102529   -0.2891822  
H   -1.4634888    0.0006601   -6.2693595  
H    1.5290707   -0.0033271   -5.9180047  
H    2.1042146   -0.0039770   -3.6584456  
C    1.0672568    0.0000697    2.3021913  
C    0.0000000    0.0000000    1.4700000  
C   -1.1601224    0.0000736    2.3478473  
C   -0.5938729    0.0000769    3.7138435  
N    0.7113367    0.0001554    3.6934124  
C   -1.4286986    0.0001879    4.8835240  
C   -2.7683114    0.0006799    4.6970523  
O   -3.6653903    0.0008304    5.6976972  
C   -3.3702025    0.0010610    3.3310774  
O   -4.5974910    0.0013779    3.2362962  
C   -2.4926826    0.0008943    2.1470656  
H   -0.9878360   -0.0000190    5.8697035  
H   -4.5324246    0.0012261    5.2533954  
H   -2.9677772    0.0012974    1.1752040  
H    2.1134392    0.0000545    2.0405121  
