62

C    4.0790415   -0.6250186   -9.0432915  
C    3.5911235    0.6198066   -8.7195422  
C    3.9981365    1.5094294   -9.7575742  
C    4.7375760    0.7441731  -10.6954104  
N    4.7691902   -0.5470591  -10.2302908  
C    5.2944092    1.2980158  -11.8521239  
C    5.1010048    2.6489295  -12.0661453  
O    5.6228098    3.2408212  -13.1798774  
C    4.3664766    3.4292779  -11.1418398  
O    4.2620231    4.7585546  -11.4960401  
C    3.8170939    2.8836203  -10.0003668  
H    5.2148260   -1.3193790  -10.6917145  
H    5.8591453    0.7202134  -12.5707457  
H    5.3750394    4.1734805  -13.1349244  
H    3.7517883    5.2143573  -10.8196468  
H    3.2595820    3.5064434   -9.3106202  
H    3.9905744   -1.5620441   -8.5206870  
C    3.9300173   -0.7219419   -4.5190963  
C    2.8699641   -0.0020530   -4.0185824  
C    2.3084605    0.7252949   -5.1095817  
C    3.0739999    0.4064308   -6.2603208  
N    4.0515279   -0.4731890   -5.8662070  
C    2.8029518    0.9445738   -7.5219559  
C    1.7395393    1.8203310   -7.6238414  
O    1.4306791    2.3746745   -8.8322797  
C    0.9641553    2.1511166   -6.4871016  
O   -0.0597851    3.0371494   -6.7513654  
C    1.2311452    1.6208135   -5.2421029  
H    4.7407071   -0.8835861   -6.4700173  
H    0.6670861    2.9472664   -8.6828506  
H   -0.5337231    3.2075123   -5.9316320  
H    0.6198238    1.8929802   -4.3896419  
H    4.6099247   -1.3920547   -4.0214685  
C    3.2573670   -0.0002921   -1.5109382  
C    2.5379468   -0.0001711   -0.3591962  
C    1.1435043    0.0000330   -0.7338498  
C    1.1092608   -0.0000085   -2.2088474  
N    2.4227562    0.0001906   -2.6182610  
C   -0.0265533   -0.0002525   -2.9515663  
C   -1.3003033   -0.0002641   -2.2514979  
O   -2.3786785   -0.0004132   -2.8306425  
C   -1.2877724    0.0000310   -0.6895608  
O   -2.3539956    0.0003306   -0.0892035  
C    0.0000000    0.0000000    0.0000000  
H    2.9384091   -0.0000370    0.6389240  
H   -0.0296290   -0.0004088   -4.0327231  
H    4.3270394   -0.0004767   -1.6439445  
C    2.5128556    2.1077716    2.9199648  
C    1.9592212    1.6432552    4.0696553  
C    0.8915788    0.7479214    3.6910360  
C    0.8684491    0.7287414    2.2159470  
N    1.8754542    1.5738793    1.8102719  
C    0.0000000    0.0000000    1.4700000  
C   -0.9772830   -0.8200135    2.1664417  
O   -1.8021297   -1.5120829    1.5842315  
C   -0.9711318   -0.8147624    3.7284083  
O   -1.7894187   -1.5009653    4.3257297  
C    0.0140216    0.0115358    4.4216297  
H    2.2638494    1.8988021    5.0689105  
H    0.0117648    0.0094386    5.5031631  
H    3.3327358    2.7953732    2.7900019  
H    2.1123206    1.7707734    0.8551938  
