62

C   -0.0601834   -0.3640971   -9.6959823  
C   -0.5499491    0.8512330   -9.2769704  
C   -0.2133130    1.8049621  -10.2827924  
C    0.4870705    1.1074106  -11.3000487  
N    0.5641690   -0.2069312  -10.9112308  
C    0.9723197    1.7354109  -12.4511076  
C    0.7461548    3.0922464  -12.5776992  
O    1.1981200    3.7551658  -13.6819091  
C    0.0497102    3.8057120  -11.5733363  
O   -0.0947920    5.1504593  -11.8455835  
C   -0.4290463    3.1868747  -10.4373977  
H    0.9967951   -0.9436978  -11.4384793  
H    1.5069953    1.2094371  -13.2300025  
H    0.9382159    4.6789903  -13.5711775  
H   -0.5753564    5.5580370  -11.1185745  
H   -0.9587730    3.7595396   -9.6851187  
H   -0.1055732   -1.3303357   -9.2234548  
C    0.0032431   -0.7070486   -5.1230097  
C    0.1389296   -0.4524109   -6.4680805  
C   -0.8935728    0.4649643   -6.8243974  
C   -1.6340599    0.7365948   -5.6454899  
N   -1.0641734    0.0073898   -4.6315339  
C   -2.7306621    1.6036560   -5.6241304  
C   -3.0860377    2.2077438   -6.8144937  
O   -4.1486912    3.0636135   -6.8500938  
C   -2.3598153    1.9491140   -8.0013078  
O   -2.8375876    2.6265547   -9.1041002  
C   -1.2780504    1.0936416   -8.0231743  
H    0.8890558   -0.8766288   -7.1133275  
H   -3.2992632    1.8147639   -4.7289611  
H   -4.2229887    3.3688076   -7.7636589  
H   -2.2920027    2.3963769   -9.8623602  
H    0.5825401   -1.3428730   -4.4756292  
C    1.1319248    0.0015675   -0.8009270  
C    0.7969916    0.0034959   -2.1169404  
C   -0.6453336    0.0035703   -2.1842672  
C   -1.1266831    0.0015415   -0.7896027  
N    0.0000000    0.0000000    0.0000000  
C   -2.4346129    0.0013924   -0.4276297  
C   -3.4350110    0.0031352   -1.4820184  
O   -4.6384610    0.0030897   -1.2583919  
C   -2.9478958    0.0050460   -2.9661075  
O   -3.7809377    0.0062160   -3.8623775  
C   -1.5113821    0.0053068   -3.2312125  
H    1.4821240    0.0045436   -2.9459192  
H   -2.7664565    0.0000185    0.6013447  
H    2.1104318    0.0009428   -0.3488058  
C    0.8175213    0.6860729    2.3021913  
C    0.0000000    0.0000000    1.4700000  
C   -0.8887526   -0.7456559    2.3478473  
C   -0.4549825   -0.3816753    3.7138435  
N    0.5448156    0.4573574    3.6934124  
C   -1.0945674   -0.9182058    4.8835240  
C   -2.1210866   -1.7789155    4.6970523  
O   -2.8083856   -2.3554314    5.6976972  
C   -2.5824069   -2.1655116    3.3310774  
O   -3.5227682   -2.9541547    3.2362962  
C   -1.9100805   -1.6015804    2.1470656  
H   -0.7567140   -0.6349833    5.8697035  
H   -3.4728268   -2.9124471    5.2533954  
H   -2.2742832   -1.9066565    1.1752040  
H    1.6189533    1.3585343    2.0405121  
