62

C    9.3262642    0.0016990    0.1620907  
C    9.9148982    0.0032273   -1.0812817  
C   11.3261275    0.0036593   -0.8738412  
C   11.5407107    0.0020484    0.5282563  
N   10.3056331    0.0028370    1.1275878  
C   12.8175279    0.0016680    1.0979284  
C   13.8973961    0.0026298    0.2364989  
O   15.1662978    0.0019615    0.7393927  
C   13.7036655    0.0046158   -1.1653861  
O   14.8783764    0.0057909   -1.8888475  
C   12.4443401    0.0052654   -1.7280797  
H    9.3915193    0.0050481   -2.0220602  
H   10.1411273   -0.0085133    2.1179363  
H   12.9877896    0.0005868    2.1657362  
H   15.7615550    0.0031299   -0.0214838  
H   14.6587141    0.0070801   -2.8255173  
H   12.3271909    0.0069775   -2.8054617  
C    5.6664805    0.0014066   -2.2647026  
C    4.7390840    0.0009613   -1.2727298  
C    5.4604955    0.0006395   -0.0219696  
C    6.8944818    0.0009653   -0.3690625  
N    6.9515101    0.0010263   -1.7437034  
C    7.9048605    0.0011992    0.5369396  
C    7.5567542    0.0008992    1.9480942  
O    8.3942809    0.0010141    2.8407589  
C    6.0443622    0.0002997    2.3385743  
O    5.7391077   -0.0002635    3.5235130  
C    5.0461778    0.0003722    1.2720468  
H    4.0011833    0.0001603    1.5508121  
H    5.5192859    0.0017637   -3.3325148  
H    7.7964707    0.0027871   -2.2850761  
C    3.2798077    0.0005856   -1.4499661  
C    2.5571132    0.0005565   -2.5996564  
C    1.1637425    0.0001547   -2.2210366  
C    1.1336959   -0.0000200   -0.7459475  
N    2.4483509   -0.0001429   -0.3402730  
C    0.0000000    0.0000000    0.0000000  
C   -1.2757370   -0.0000187   -0.6964411  
O   -2.3524597   -0.0000640   -0.1142306  
C   -1.2676502   -0.0000874   -2.2584078  
O   -2.3355774   -0.0004102   -2.8557287  
C    0.0181551    0.0001758   -2.9516297  
H    2.9547342    0.0006074   -3.5989118  
H    0.0150776    0.0003317   -4.0331632  
H    2.7563626    0.0012823    0.6148051  
C    2.5285572    2.1210227    2.9438989  
C    1.9331703    1.6216660    4.0790748  
C    0.8903039    0.7472258    3.6520102  
C    0.8972198    0.7527806    2.2336141  
N    1.9028376    1.5986179    1.8362361  
C    0.0000000    0.0000000    1.4700000  
C   -0.9207814   -0.7726952    2.1506477  
O   -1.8198395   -1.5274828    1.4542253  
C   -0.9436862   -0.7911793    3.5655508  
O   -1.9197945   -1.6098497    4.0950179  
C   -0.0590329   -0.0485852    4.3195194  
H    2.2150357    1.8593692    5.0905303  
H    2.1533708    1.7953814    0.8841339  
H   -2.3621246   -1.9821033    2.1118817  
H   -1.8668290   -1.5649508    5.0545920  
H   -0.1007624   -0.0827977    5.4019087  
H    3.3491200    2.8096064    2.8367138  
