64

C    3.1074961   -0.7105638   -7.4546247  
C    4.3487537   -0.4614519   -7.9928543  
C    4.1583909    0.4479566   -9.0751379  
C    2.7684445    0.7206473   -9.1500688  
N    2.1593638   -0.0003010   -8.1531371  
C    2.2169213    1.5811360  -10.1040975  
C    3.0843792    2.1774391  -10.9985893  
O    2.5991240    3.0266734  -11.9506102  
C    4.4743033    1.9176249  -10.9400670  
O    5.2057655    2.5869507  -11.8993939  
C    5.0190582    1.0686328   -9.9993327  
H    5.2770693   -0.8841518   -7.6485461  
H    1.1584277    1.7930099  -10.1665627  
H    3.3612956    3.3271011  -12.4625702  
H    6.1334440    2.3565118  -11.7902374  
H    6.0875798    0.8888235   -9.9791092  
H    2.8233048   -1.3398055   -6.6286409  
C   -0.1387078    0.0017019   -4.3179684  
C    0.8680295    0.0012009   -5.2554900  
C    0.2429725    0.0018259   -6.5376379  
C   -1.1582726    0.0029934   -6.3175531  
N   -1.3554488    0.0009353   -4.9589749  
C   -2.0878501    0.0041618   -7.3619057  
C   -1.5938804    0.0044585   -8.6519335  
O   -2.4574174    0.0059378   -9.7089639  
C   -0.1991525    0.0029328   -8.8918278  
O    0.1346065    0.0030325  -10.2304650  
C    0.7184772    0.0015064   -7.8620319  
H    1.9231278   -0.0006311   -5.0415804  
H   -2.2494821    0.0117151   -4.5022806  
H   -3.1570789    0.0049107   -7.2008121  
H   -1.9125266    0.0055895  -10.5066851  
H    1.0938156    0.0019777  -10.3047651  
C    3.3041272    0.0001178   -1.5420428  
C    2.5845372   -0.0004779   -0.3695851  
C    1.2040007   -0.0000007   -0.7283589  
C    1.1422375    0.0006038   -2.1454371  
N    2.4348641    0.0026111   -2.6077464  
C   -0.0655179    0.0008799   -2.8497918  
C   -1.2321766    0.0002325   -2.1101402  
O   -2.4392816    0.0001148   -2.7472523  
C   -1.1911209   -0.0000007   -0.6955266  
O   -2.4371527   -0.0002320   -0.1032863  
C    0.0000000    0.0000000    0.0000000  
H    3.0031533   -0.0000660    0.6222584  
H    2.7054632   -0.0071097   -3.5745261  
H   -3.1132986   -0.0000648   -2.0551788  
H   -2.3200284   -0.0004071    0.8516409  
H    4.3686626    0.0004072   -1.7024289  
C    2.5528530    2.1414826    2.8079335  
C    2.0663498    1.7338582    4.0032312  
C    0.9804344    0.8229586    3.6752840  
C    0.9495562    0.7966882    2.1971295  
N    1.8690446    1.5676019    1.6831036  
C    0.0000000    0.0000000    1.4700000  
C   -0.8785127   -0.7372425    2.1869543  
O   -1.8187535   -1.5261249    1.6395491  
C   -0.8723269   -0.7321790    3.6796354  
O   -1.7010379   -1.4274584    4.2670412  
C    0.1115397    0.0933559    4.4024240  
H    2.4028853    2.0163452    4.9860947  
H   -2.2861435   -1.9184361    2.3990168  
H    0.0832434    0.0693689    5.4835595  
H    3.3664920    2.8238276    2.6198634  
