66

C    3.9183180    0.7042524   -7.9347412  
C    3.8647028    0.4546101   -9.2865075  
C    4.9216181   -0.4558998   -9.5839983  
C    5.5917296   -0.7286843   -8.3639715  
N    4.9582801   -0.0067318   -7.3830818  
C    6.6897682   -1.5901485   -8.2804335  
C    7.1189676   -2.1873490   -9.4497568  
O    8.1864654   -3.0375558   -9.4250630  
C    6.4636386   -1.9274572  -10.6768743  
O    7.0101733   -2.5977475  -11.7517478  
C    5.3805035   -1.0775035  -10.7600759  
H    3.1522258    0.8776715   -9.9738133  
H    7.2049470   -1.8021000   -7.3536806  
H    8.3169204   -3.3384934  -10.3337336  
H    6.5096783   -2.3671859  -12.5403863  
H    4.8990080   -0.8976595  -11.7141710  
H    3.2979053    1.3343289   -7.3206971  
C    2.4861703   -0.0045381   -3.7159920  
C    3.5192651   -0.0070116   -2.8076001  
C    4.7328080   -0.0089995   -3.5572063  
C    4.3743064   -0.0073200   -4.9295762  
N    3.0028458   -0.0065729   -4.9905080  
C    5.3209181   -0.0082621   -5.9585148  
C    6.6537147   -0.0106419   -5.5954391  
O    7.6195179   -0.0113020   -6.5599278  
C    7.0312778   -0.0127204   -4.2315258  
O    8.3964916   -0.0153899   -4.0327046  
C    6.0979608   -0.0120654   -3.2159253  
H    3.4114641   -0.0084477   -1.7364462  
H    2.4594304    0.0051847   -5.8346304  
H    8.4675242   -0.0133158   -6.0971679  
H    8.5659223   -0.0166382   -3.0856588  
H    6.4172671   -0.0138843   -2.1803005  
C    0.0000000    0.0000000    0.0000000  
C    1.0521669   -0.0011901   -0.8862341  
C    0.4917220   -0.0011956   -2.1979132  
C   -0.9187428    0.0003148   -2.0478684  
N   -1.1833170   -0.0009411   -0.7007915  
C   -1.7951699    0.0010351   -3.1372091  
C   -1.2375836    0.0005225   -4.4010425  
O   -2.0474210    0.0015361   -5.4997584  
C    0.1673583   -0.0013566   -4.5711960  
O    0.5673528   -0.0020686   -5.8915549  
C    1.0325772   -0.0023411   -3.4969890  
H    2.0953059   -0.0030648   -0.6200562  
H   -2.0989777    0.0102372   -0.2891825  
H   -2.8710931    0.0020419   -3.0295515  
H   -1.4634882    0.0006497   -6.2693594  
H    1.5290713   -0.0033151   -5.9180046  
C    0.0000000    0.0000000    1.4700000  
C    1.0521667    0.0011902    2.3562342  
C    0.4917218    0.0011957    3.6679131  
C   -0.9187428   -0.0003148    3.5178682  
N   -1.1833171    0.0009411    2.1707914  
C   -1.7951701   -0.0010350    4.6072090  
C   -1.2375837   -0.0005224    5.8710424  
O   -2.0474215   -0.0015360    6.9697579  
C    0.1673580    0.0013566    6.0411963  
O    0.5673524    0.0020687    7.3615553  
C    1.0325770    0.0023412    4.9669890  
H    2.0953057    0.0030649    2.0900562  
H   -2.0989778   -0.0102372    1.7591824  
H   -2.8710934   -0.0020419    4.4995513  
H   -1.4634884   -0.0006497    7.7393593  
H    1.5290710    0.0033153    7.3880045  
H    2.1042148    0.0039609    5.1284455  
