64

C    1.1243410    0.0100057   -0.7919012  
C    0.7474071    0.0234632   -2.1148552  
C   -0.6787388    0.0234405   -2.1414702  
C   -1.1201747    0.0098455   -0.7935550  
N    0.0000000    0.0000000    0.0000000  
C   -2.4730818    0.0063410   -0.4408242  
C   -3.3971964    0.0170568   -1.4675057  
O   -4.7313521    0.0145688   -1.1793464  
C   -2.9763659    0.0303145   -2.8186321  
O   -4.0166488    0.0394632   -3.7247622  
C   -1.6418573    0.0335061   -3.1673482  
H    1.4178706    0.0311140   -2.9571214  
H   -2.8160165   -0.0041450    0.5845965  
H   -5.1938826    0.0230239   -2.0274378  
H   -3.6464684    0.0481850   -4.6127340  
H    2.1062463    0.0053072   -0.3505414  
C    1.5648391   -2.0538328   -5.3222158  
C    1.3416268   -1.5771671   -6.5740310  
C    0.2115315   -0.6825096   -6.4885404  
C   -0.2083348   -0.6769667   -5.0741601  
N    0.6519736   -1.5285503   -4.4202761  
C   -1.2456343    0.0471574   -4.5828768  
C   -1.9989504    0.8762378   -5.5089848  
O   -2.9501312    1.5650944   -5.1639735  
C   -1.5720157    0.8854755   -7.0114647  
O   -2.1989497    1.5794022   -7.8005663  
C   -0.4365522    0.0629949   -7.4214654  
H   -0.1472093    0.0751417   -8.4635098  
H    2.3192788   -2.7448219   -4.9827391  
H    0.6226237   -1.7349441   -3.4386515  
C    3.0503487   -5.3980731   -8.0022566  
C    3.6045381   -4.9184865   -9.1664462  
C    3.3113907   -3.5237031   -9.2234067  
C    2.5699159   -3.2062517   -8.0566310  
N    2.4276068   -4.3673229   -7.3381057  
C    2.1107137   -1.9148867   -7.7804105  
C    2.4056552   -0.9259113   -8.6986233  
O    1.9817717    0.3526588   -8.4781786  
C    3.1439380   -1.2230450   -9.8688652  
O    3.3558275   -0.1308635  -10.6847006  
C    3.5970368   -2.4968371  -10.1421429  
H    4.1517198   -5.5023619   -9.8866370  
H    1.9544621   -4.4499190   -6.4564633  
H    2.2895478    0.8757652   -9.2297752  
H    3.8611041   -0.4175455  -11.4515852  
H    4.1600597   -2.6942158  -11.0468674  
H    3.0487853   -6.3941274   -7.5938054  
C    0.8676693    0.7151171    2.2619005  
C    0.5875920    0.4624972    3.5848544  
C   -0.5048400   -0.4542819    3.6114698  
C   -0.8517165   -0.7276451    2.2635546  
N    0.0000000    0.0000000    1.4700000  
C   -1.8902865   -1.5946756    1.9108239  
C   -2.5912627   -2.1969500    2.9375057  
O   -3.6148162   -3.0527051    2.6493466  
C   -2.2603868   -1.9365747    4.2886322  
O   -3.0513550   -2.6123276    5.1947621  
C   -1.2361111   -1.0811317    4.6373480  
H    1.1060808    0.8876438    4.4271209  
H   -2.1597133   -1.8070987    0.8854031  
H   -3.9636755   -3.3565188    3.4974381  
H   -2.7621927   -2.3810384    6.0827341  
H   -1.0058879   -0.9010589    5.6809233  
H    1.6167816    1.3499334    1.8205408  
