60

C    1.6748845   -1.0738457   -7.2212415  
C    2.6411137   -1.9595030   -6.8035342  
C    3.4807243   -2.2200153   -7.9268271  
C    2.9737045   -1.4586570   -9.0108894  
N    1.8760344   -0.7759315   -8.5486963  
C    3.5566310   -1.4708845  -10.2816513  
C    4.6718841   -2.2659515  -10.4612520  
O    5.2807012   -2.3147837  -11.6818953  
C    5.1924164   -3.0331058   -9.3919823  
O    6.3064635   -3.7734549   -9.7298071  
C    4.6176973   -3.0217378   -8.1381496  
H    2.7292226   -2.3684381   -5.8115656  
H    1.3142546   -0.1449557   -9.0911482  
H    3.1749467   -0.8930094  -11.1120611  
H    6.0277505   -2.9204298  -11.5903774  
H    6.5944357   -4.2616290   -8.9524000  
H    5.0386824   -3.6200302   -7.3385905  
C    0.2653132   -0.7042848   -5.1440086  
C   -0.8287665    0.0000939   -4.7555305  
C   -1.2825959    0.7423471   -5.9078912  
C   -0.3566076    0.4102563   -7.0074599  
N    0.5584965   -0.4707814   -6.4790213  
C   -0.4467552    0.9099661   -8.2659782  
C   -1.5278136    1.8369017   -8.5569043  
O   -1.6939218    2.3415180   -9.6596606  
C   -2.5200361    2.2029121   -7.4074103  
O   -3.4339548    2.9824918   -7.6403694  
C   -2.3204911    1.5996618   -6.0920689  
H    0.2428631    0.6533158   -9.0581061  
H   -3.0119746    1.8581180   -5.3016419  
H    0.8822124   -1.3741499   -4.5672891  
C    1.0672569   -0.0000698   -0.8321910  
C    0.0000000    0.0000000    0.0000000  
C   -1.1601223   -0.0000736   -0.8778472  
C   -0.5938729   -0.0000768   -2.2438435  
N    0.7113367   -0.0001553   -2.2234123  
C   -1.4286985   -0.0001877   -3.4135239  
C   -2.7683113   -0.0006798   -3.2270524  
O   -3.6653902   -0.0008302   -4.2276970  
C   -3.3702024   -0.0010610   -1.8610774  
O   -4.5974910   -0.0013779   -1.7662963  
C   -2.4926825   -0.0008943   -0.6770658  
H   -4.5324245   -0.0012258   -3.7833954  
H   -2.9677772   -0.0012974    0.2947961  
H    2.1134391   -0.0000547   -0.5705119  
C    0.0000000    0.0000000    1.4700000  
C    1.0662921    0.0000102    2.3034270  
C    0.4961870   -0.0000064    3.6418889  
C   -0.9663858    0.0000850    3.4240247  
N   -1.2632773    0.0000084    2.1528658  
C   -1.8985362    0.0000517    4.5177257  
C   -1.3925775   -0.0004564    5.7720543  
O   -2.1456383   -0.0005410    6.8851312  
C    0.0786232   -0.0009323    6.0245000  
O    0.4683759   -0.0012588    7.1921102  
C    1.0143166   -0.0008442    4.8859032  
H    2.1107198   -0.0000632    2.0421868  
H   -2.9622183    0.0003270    4.3293377  
H   -1.5042274   -0.0009692    7.6184419  
H    2.0724152   -0.0013148    5.1109744  
