62

C    5.6303355   -4.5543542   -2.2260876  
C    6.9664099   -4.3427877   -1.9758651  
C    7.2403642   -2.9811933   -2.3008407  
C    6.0227963   -2.4068201   -2.7475514  
N    5.0660557   -3.3897357   -2.6914917  
C    5.9196297   -1.0724476   -3.1520212  
C    7.0664163   -0.3038191   -3.1043885  
O    7.0219187    1.0054280   -3.4876715  
C    8.2907335   -0.8589357   -2.6619951  
O    9.3420519    0.0343516   -2.6724705  
C    8.3933037   -2.1753226   -2.2630835  
H    7.6586870   -5.0795349   -1.6057973  
H    4.0997984   -3.2738471   -2.9382642  
H    7.9169213    1.3523804   -3.3787707  
H   10.1303817   -0.4200453   -2.3599594  
H    9.3447044   -2.5726167   -1.9292101  
H    5.0355610   -5.4442417   -2.1107562  
C    3.4106845   -0.7032175   -3.0670122  
C    2.4521483    0.0014840   -3.7217481  
C    3.1158557    0.7444933   -4.7668628  
C    4.5499134    0.4124942   -4.6666320  
N    4.6621247   -0.4692175   -3.6164499  
C    5.5136820    0.9128420   -5.4805768  
C    5.1117778    1.8404164   -6.5249019  
O    5.9049340    2.3456315   -7.3084581  
C    3.5983551    2.2063420   -6.6492182  
O    3.2480947    2.9864551   -7.5244334  
C    2.6531312    1.6023762   -5.7134675  
H    6.5600546    0.6562475   -5.3901707  
H    1.6070339    1.8607778   -5.8063813  
H    3.3081788   -1.3736416   -2.2292093  
C    0.0000000    0.0000000    0.0000000  
C    1.0662923   -0.0000101   -0.8334270  
C    0.4961873    0.0000065   -2.1718887  
C   -0.9663854   -0.0000848   -1.9540250  
N   -1.2632773   -0.0000083   -0.6828660  
C   -1.8985359   -0.0000514   -3.0477261  
C   -1.3925770    0.0004566   -4.3020547  
O   -2.1456378    0.0005414   -5.4151314  
C    0.0786240    0.0009326   -4.5545000  
O    0.4683767    0.0012591   -5.7221100  
C    1.0143171    0.0008444   -3.4159031  
H    2.1107200    0.0000633   -0.5721865  
H   -2.9622181   -0.0003268   -2.8593381  
H   -1.5042265    0.0009697   -6.1484419  
C    3.3041272   -0.0001177    3.0120429  
C    2.5845372    0.0004780    1.8395852  
C    1.2040006    0.0000008    2.1983588  
C    1.1422373   -0.0006037    3.6154372  
N    2.4348639   -0.0026109    4.0777464  
C   -0.0655181   -0.0008797    4.3197917  
C   -1.2321768   -0.0002324    3.5801400  
O   -2.4392816   -0.0001146    4.2172520  
C   -1.1911209    0.0000007    2.1655264  
O   -2.4371527    0.0002320    1.5732860  
C    0.0000000    0.0000000    1.4700000  
H    3.0031534    0.0000661    0.8477417  
H    2.7054629    0.0071099    5.0445261  
H   -0.1193549   -0.0014844    5.3997470  
H   -3.1132988    0.0000648    3.5251786  
H   -2.3200282    0.0004071    0.6183591  
H    4.3686625   -0.0004071    3.1724291  
