62

C   -5.0976548    3.6478133    1.5576201  
C   -4.1598964    3.0488978    0.7486842  
C   -2.8816401    3.5138211    1.1782273  
C   -3.1042154    4.4013726    2.2620351  
N   -4.4606038    4.4615123    2.4650389  
C   -2.0638929    5.0494495    2.9347271  
C   -0.7753911    4.7967135    2.5056986  
O    0.2777452    5.4027961    3.1274557  
C   -0.5330835    3.9146116    1.4258842  
O    0.8035725    3.7672991    1.1176761  
C   -1.5589202    3.2751299    0.7616188  
H   -4.9176112    5.0042858    3.1753368  
H   -2.2269097    5.7271526    3.7613756  
H    1.0750024    5.0932261    2.6782219  
H    0.8797152    3.1561080    0.3785876  
H   -1.3425449    2.6050195   -0.0621600  
H   -6.1706208    3.5600490    1.5581833  
C   -4.4484567    2.1114131   -0.3461923  
C   -5.6479922    1.6480079   -0.7825926  
C   -5.3783937    0.7523815   -1.8825947  
C   -3.9129556    0.7318184   -2.0524737  
N   -3.4082415    1.5765166   -1.0908924  
C   -3.2578655    0.0024282   -2.9908505  
C   -4.0489184   -0.8168745   -3.8939085  
O   -3.5523761   -1.5094417   -4.7725988  
C   -5.6025059   -0.8101577   -3.7322736  
O   -6.2789748   -1.4957522   -4.4869994  
C   -6.1934213    0.0167333   -2.6830252  
H   -6.6117118    1.9044748   -0.3799978  
H   -7.2698070    0.0156510   -2.5775898  
H   -2.4341412    1.7725007   -0.9503006  
C    0.0000000    0.0000000    0.0000000  
C    1.0521666   -0.0011982   -0.8862343  
C    0.4917215   -0.0011996   -2.1979132  
C   -0.9187429    0.0003215   -2.0478682  
N   -1.1833171   -0.0009323   -0.7007913  
C   -1.7951703    0.0010483   -3.1372089  
C   -1.2375841    0.0005313   -4.4010422  
O   -2.0474218    0.0015510   -5.4997578  
C    0.1673576   -0.0013585   -4.5711963  
O    0.5673520   -0.0020735   -5.8915554  
C    1.0325768   -0.0023493   -3.4969892  
H    2.0953056   -0.0030808   -0.6200564  
H   -2.0989778    0.0102529   -0.2891822  
H   -1.4634888    0.0006601   -6.2693595  
H    1.5290707   -0.0033271   -5.9180047  
H    2.1042146   -0.0039770   -3.6584456  
C    1.0965515   -0.0001358    2.2710304  
C    0.0000000    0.0000000    1.4700000  
C   -1.1546562   -0.0001469    2.3369512  
C   -0.6372014   -0.0003519    3.7186280  
N    0.7342871   -0.0007337    3.6095011  
C   -1.4147739   -0.0001353    4.8308716  
C   -2.8576048    0.0001048    4.6554461  
O   -3.6427778    0.0002493    5.5944904  
C   -3.4275839    0.0000726    3.2011665  
O   -4.6406829   -0.0000333    3.0410059  
C   -2.4891866    0.0001091    2.0816745  
H   -1.0150448   -0.0001615    5.8354244  
H   -2.8919121    0.0002919    1.0779135  
H    2.1388271   -0.0000662    1.9961646  
H    1.3735872    0.0006099    4.3830260  
