62

C    1.4072400   -2.3782126   -7.7243045  
C    1.9860103   -2.5904039   -8.9541281  
C    1.8986712   -1.3615034   -9.6729986  
C    1.2516371   -0.4276308   -8.8237908  
N    0.9651107   -1.0781175   -7.6493175  
C    0.9962514    0.8925096   -9.2069310  
C    1.4016961    1.2769992  -10.4702445  
O    1.1774650    2.5545850  -10.8951046  
C    2.0484352    0.3596280  -11.3322039  
O    2.3903617    0.8942125  -12.5572143  
C    2.3004615   -0.9429535  -10.9549915  
H    2.4170313   -3.5172556   -9.2920059  
H    0.5033996    1.6090946   -8.5644321  
H    1.5329654    2.6105481  -11.7916283  
H    2.8219262    0.2099324  -13.0779024  
H    2.7975380   -1.6229275  -11.6369216  
H    1.2735482   -3.0517905   -6.8952212  
C    0.6496545   -0.7066350   -5.1591666  
C   -0.1496415   -0.0015615   -4.3176961  
C   -1.0762655    0.7401247   -5.1399522  
C   -0.7489652    0.4069440   -6.5394717  
N    0.3061889   -0.4741189   -6.4823094  
C   -1.3994874    0.9058710   -7.6209511  
C   -2.4949748    1.8330541   -7.3912234  
O   -3.1426433    2.3370192   -8.2994331  
C   -2.8587001    2.2002135   -5.9172144  
O   -3.7789323    2.9800102   -5.7114232  
C   -2.0849148    1.5977389   -4.8345636  
H   -1.1436101    0.6484266   -8.6393609  
H   -2.3432252    1.8569887   -3.8168260  
H    1.4608539   -1.3763737   -4.9240181  
C    3.3003543    0.0005276   -1.4738987  
C    2.5232814    0.0003497   -2.6090747  
C    1.1623200   -0.0001320   -2.1820103  
C    1.1711883    0.0000582   -0.7636140  
N    2.4852300   -0.0014919   -0.3662360  
C    0.0000000    0.0000000    0.0000000  
C   -1.2020384    0.0000519   -0.6806477  
O   -2.3759249    0.0003493    0.0157743  
C   -1.2314656   -0.0005115   -2.0955510  
O   -2.5054392   -0.0008039   -2.6250180  
C   -0.0764516   -0.0007274   -2.8495195  
H    2.8919955   -0.0005620   -3.6205304  
H    2.8036267    0.0088183    0.5858662  
H   -3.0835638    0.0000347   -0.6418818  
H   -2.4360047   -0.0011529   -3.5845921  
H    4.3715549    0.0004895   -1.3667136  
C    0.8175213    0.6860729    2.3021913  
C    0.0000000    0.0000000    1.4700000  
C   -0.8887526   -0.7456559    2.3478473  
C   -0.4549825   -0.3816753    3.7138435  
N    0.5448156    0.4573574    3.6934124  
C   -1.0945674   -0.9182058    4.8835240  
C   -2.1210866   -1.7789155    4.6970523  
O   -2.8083856   -2.3554314    5.6976972  
C   -2.5824069   -2.1655116    3.3310774  
O   -3.5227682   -2.9541547    3.2362962  
C   -1.9100805   -1.6015804    2.1470656  
H   -0.7567140   -0.6349833    5.8697035  
H   -3.4728268   -2.9124471    5.2533954  
H   -2.2742832   -1.9066565    1.1752040  
H    1.6189533    1.3585343    2.0405121  
