60

C    3.4515855   -0.7173100   -7.3655786  
C    2.5263060    0.0005363   -8.0873975  
C    3.2465294    0.7278995   -9.0807860  
C    4.6191762    0.4111491   -8.9151478  
N    4.7087381   -0.4672793   -7.8639774  
C    5.6228222    0.9498946   -9.7258502  
C    5.2336695    1.8240910  -10.7221020  
O    6.1727671    2.3789356  -11.5426247  
C    3.8690721    2.1527593  -10.9028460  
O    3.6426620    3.0374240  -11.9369874  
C    2.8784420    1.6218611  -10.1032677  
H    5.5587952   -0.8761232   -7.5201301  
H    6.6707785    0.7126117   -9.6046602  
H    5.6946720    2.9502272  -12.1576982  
H    2.6970845    3.2063916  -11.9911754  
H    1.8416315    1.8923937  -10.2654848  
H    3.3144002   -1.3867752   -6.5337404  
C    0.0950448    0.0004350   -4.4015596  
C    1.1192393    0.0002600   -5.2932436  
C    0.5298386    0.0006955   -6.6113640  
C   -0.9321731    0.0011709   -6.4130916  
N   -1.1298097    0.0005870   -5.0515376  
C   -1.8443588    0.0020607   -7.4178909  
C   -1.3534348    0.0023591   -8.7859296  
O   -2.0950461    0.0030854   -9.7597423  
C    0.1910171    0.0016134   -9.0193235  
O    0.6161265    0.0015496  -10.1667301  
C    1.0746176    0.0009559   -7.8560944  
H    2.1679381   -0.0003120   -5.0548232  
H   -2.9125319    0.0025267   -7.2508092  
H   -2.0258137    0.0022747   -4.5996293  
C    3.3321173    0.0004714   -1.3379336  
C    2.6974184    0.0000115   -2.5332313  
C    1.2800437   -0.0002119   -2.2052840  
C    1.2395034    0.0000643   -0.7271298  
N    2.4394063    0.0005459   -0.2131037  
C    0.0000000    0.0000000    0.0000000  
C   -1.1468702    0.0000634   -0.7169544  
O   -2.3742202    0.0000072   -0.1695489  
C   -1.1388770    0.0001606   -2.2096356  
O   -2.2206231    0.0000903   -2.7970412  
C    0.1454523    0.0001814   -2.9324241  
H    3.1367986   -0.0000653   -3.5160949  
H   -2.9844345    0.0001025   -0.9290168  
H    4.3940040    0.0007618   -1.1498638  
C    2.5128556    2.1077716    2.9199648  
C    1.9592212    1.6432552    4.0696553  
C    0.8915788    0.7479214    3.6910360  
C    0.8684491    0.7287414    2.2159470  
N    1.8754542    1.5738793    1.8102719  
C    0.0000000    0.0000000    1.4700000  
C   -0.9772830   -0.8200135    2.1664417  
O   -1.8021297   -1.5120829    1.5842315  
C   -0.9711318   -0.8147624    3.7284083  
O   -1.7894187   -1.5009653    4.3257297  
C    0.0140216    0.0115358    4.4216297  
H    2.2638494    1.8988021    5.0689105  
H    0.0117648    0.0094386    5.5031631  
H    3.3327358    2.7953732    2.7900019  
H    2.1123206    1.7707734    0.8551938  
