64

C    2.2183895   -1.8168392   -7.8093923  
C    3.3038186   -2.6233254   -8.0621598  
C    3.5880264   -2.5142674   -9.4556915  
C    2.6349733   -1.6194418  -10.0060586  
N    1.8173137   -1.2161355   -8.9797095  
C    2.6146266   -1.2757609  -11.3611447  
C    3.5740442   -1.8455496  -12.1754172  
O    3.6000233   -1.5442450  -13.5064141  
C    4.5331458   -2.7408721  -11.6450027  
O    5.4213010   -3.2241134  -12.5836196  
C    4.5536464   -3.0805837  -10.3083274  
H    3.8257858   -3.2180284   -7.3321784  
H    1.0528764   -0.5710162   -9.0659519  
H    1.8908234   -0.5945063  -11.7868246  
H    4.3366244   -2.0418376  -13.8846807  
H    6.0343118   -3.8208023  -12.1434106  
H    5.3004176   -3.7693278   -9.9309122  
C    1.8159014   -2.1156536   -5.3336806  
C    0.9337940   -1.6549082   -4.3839084  
C    0.0359165   -0.7660300   -5.0459592  
C    0.4223296   -0.7238312   -6.4100819  
N    1.5073772   -1.5530972   -6.5501064  
C   -0.2444663    0.0542444   -7.3612762  
C   -1.3211419    0.8031322   -6.9275550  
O   -2.0081614    1.5803928   -7.8146201  
C   -1.7216871    0.7745411   -5.5705127  
O   -2.8111773    1.5750119   -5.2955536  
C   -1.0641734    0.0073898   -4.6315339  
H    0.9377500   -1.9252651   -3.3418506  
H    0.0451694    0.0908672   -8.4024158  
H   -2.7106168    2.0128236   -7.3118043  
H   -3.0163348    1.4981863   -4.3587441  
H    2.6416168   -2.7999476   -5.2393631  
C    1.1319248    0.0015675   -0.8009270  
C    0.7969916    0.0034959   -2.1169404  
C   -0.6453336    0.0035703   -2.1842672  
C   -1.1266831    0.0015415   -0.7896027  
N    0.0000000    0.0000000    0.0000000  
C   -2.4346129    0.0013924   -0.4276297  
C   -3.4350110    0.0031352   -1.4820184  
O   -4.6384610    0.0030897   -1.2583919  
C   -2.9478958    0.0050460   -2.9661075  
O   -3.7809377    0.0062160   -3.8623775  
C   -1.5113821    0.0053068   -3.2312125  
H    1.4821240    0.0045436   -2.9459192  
H   -2.7664565    0.0000185    0.6013447  
H    2.1104318    0.0009428   -0.3488058  
C    0.8676693    0.7151171    2.2619005  
C    0.5875920    0.4624972    3.5848544  
C   -0.5048400   -0.4542819    3.6114698  
C   -0.8517165   -0.7276451    2.2635546  
N    0.0000000    0.0000000    1.4700000  
C   -1.8902865   -1.5946756    1.9108239  
C   -2.5912627   -2.1969500    2.9375057  
O   -3.6148162   -3.0527051    2.6493466  
C   -2.2603868   -1.9365747    4.2886322  
O   -3.0513550   -2.6123276    5.1947621  
C   -1.2361111   -1.0811317    4.6373480  
H    1.1060808    0.8876438    4.4271209  
H   -2.1597133   -1.8070987    0.8854031  
H   -3.9636755   -3.3565188    3.4974381  
H   -2.7621927   -2.3810384    6.0827341  
H   -1.0058879   -0.9010589    5.6809233  
H    1.6167816    1.3499334    1.8205408  
