60

C   -8.4305010    0.7283270   -2.1264509  
C   -9.6671552    0.7173770   -1.5239264  
C  -10.1631127   -0.6168808   -1.6154819  
C   -9.1771317   -1.3820819   -2.2894533  
N   -8.1392607   -0.5342864   -2.5872496  
C   -9.3298990   -2.7460510   -2.5559859  
C  -10.4991784   -3.3485964   -2.1342008  
O  -10.6998205   -4.6782402   -2.3682999  
C  -11.4948531   -2.6018597   -1.4605288  
O  -12.6015588   -3.3448885   -1.1049219  
C  -11.3449360   -1.2561776   -1.1974894  
H  -10.1526018    1.5668374   -1.0747587  
H   -8.5822415   -3.3348338   -3.0693518  
H  -11.5659958   -4.8929647   -1.9983022  
H  -13.2248438   -2.7660954   -0.6553468  
H  -12.1249748   -0.7103487   -0.6797181  
H   -7.7337828    1.5372037   -2.2652302  
C   -4.0230209    0.6852479   -1.8410563  
C   -3.3460097   -0.0004262   -2.7913647  
C   -4.3652413   -0.7461028   -3.5136062  
C   -5.6347339   -0.3825697   -2.8481619  
N   -5.4404329    0.4562398   -1.8670220  
C   -6.8979172   -0.9192523   -3.2741031  
C   -6.8931417   -1.7796796   -4.3176431  
O   -7.9981918   -2.3562940   -4.8200577  
C   -5.6284700   -2.1658224   -5.0102181  
O   -5.6989691   -2.9542263   -5.9529106  
C   -4.3454709   -1.6017428   -4.5545287  
H   -7.6764566   -2.9130446   -5.5519506  
H   -3.4519528   -1.9064880   -5.0827208  
H   -3.6257277    1.3575928   -1.0973603  
C    0.0000000    0.0000000    0.0000000  
C    1.0662919   -0.0000103   -0.8334272  
C    0.4961868    0.0000066   -2.1718889  
C   -0.9663860   -0.0000849   -1.9540248  
N   -1.2632775   -0.0000084   -0.6828659  
C   -1.8985364   -0.0000515   -3.0477258  
C   -1.3925778    0.0004567   -4.3020543  
O   -2.1456385    0.0005412   -5.4151314  
C    0.0786229    0.0009326   -4.5544999  
O    0.4683756    0.0012594   -5.7221104  
C    1.0143162    0.0008443   -3.4159034  
H    2.1107195    0.0000631   -0.5721869  
H   -1.5042277    0.0009692   -6.1484420  
H    2.0724151    0.0013151   -3.6409746  
C    0.0000000    0.0000000    1.4700000  
C    1.0541688    0.0001722    2.3260392  
C    0.5103138    0.0000454    3.6635956  
C   -0.9576371   -0.0002459    3.5155732  
N   -1.2018458    0.0001392    2.1615969  
C   -1.8348311   -0.0008317    4.5510609  
C   -1.2972847   -0.0009736    5.9014604  
O   -2.0050672   -0.0014265    6.9001319  
C    0.2542623   -0.0004184    6.0817573  
O    0.7184670   -0.0002256    7.2139121  
C    1.0974552   -0.0000873    4.8889129  
H    2.0940752    0.0005483    2.0517982  
H   -2.9081052   -0.0011668    4.4207061  
H    2.1707277    0.0000911    5.0223670  
H   -2.1128194   -0.0014912    1.7406791  
