64

C    3.8758963   -0.7315584   -4.5547718  
C    2.8310659   -0.0116218   -4.0232754  
C    2.2267726    0.7021014   -5.1003218  
C    2.9517227    0.3752585   -6.2748629  
N    3.9472864   -0.4957926   -5.9077934  
C    2.6324598    0.8994269   -7.5310904  
C    1.5616721    1.7691524   -7.6029847  
O    1.2064684    2.3098786   -8.8048417  
C    0.8263173    2.1077292   -6.4421940  
O   -0.2109569    2.9862818   -6.6778853  
C    1.1408823    1.5912147   -5.2025213  
H    4.6161958   -0.9090220   -6.5321192  
H    0.4459240    2.8803800   -8.6334801  
H   -0.6557439    3.1626650   -5.8432250  
H    0.5594785    1.8690837   -4.3311799  
H    4.5767360   -1.3934615   -4.0755366  
C    3.3041269    0.0001179   -1.5420438  
C    2.5845371   -0.0004781   -0.3695857  
C    1.2040004   -0.0000007   -0.7283595  
C    1.1422369    0.0006038   -2.1454374  
N    2.4348635    0.0026110   -2.6077469  
C   -0.0655184    0.0008799   -2.8497921  
C   -1.2321773    0.0002325   -2.1101399  
O   -2.4392821    0.0001149   -2.7472520  
C   -1.1911212   -0.0000006   -0.6955264  
O   -2.4371530   -0.0002320   -0.1032854  
C    0.0000000    0.0000000    0.0000000  
H    3.0031536   -0.0000663    0.6222571  
H   -0.1193554    0.0014844   -3.9297475  
H   -3.1132992   -0.0000647   -2.0551784  
H   -2.3200281   -0.0004072    0.8516410  
H    4.3686621    0.0004070   -1.7024303  
C    3.8600347   -0.6795206   -9.0823712  
C    3.3783603    0.5663157   -8.7532075  
C    3.7434852    1.4474557   -9.8138090  
C    4.4521108    0.6762184  -10.7703495  
N    4.5064916   -0.6102444  -10.2942470  
C    4.9642273    1.2210759  -11.9517275  
C    4.7569560    2.5689845  -12.1716321  
O    5.2354432    3.1521608  -13.3091596  
C    4.0526800    3.3552026  -11.2289366  
O    3.9293375    4.6804826  -11.5919288  
C    3.5474201    2.8184115  -10.0631346  
H    4.9387473   -1.3851336  -10.7640147  
H    5.5053134    0.6386823  -12.6846981  
H    4.9851353    4.0841457  -13.2642723  
H    3.4417571    5.1407034  -10.9019537  
H    3.0123018    3.4455720   -9.3597169  
H    3.7948475   -1.6117484   -8.5478981  
C    2.5128556    2.1077716    2.9199648  
C    1.9592212    1.6432552    4.0696553  
C    0.8915788    0.7479214    3.6910360  
C    0.8684491    0.7287414    2.2159470  
N    1.8754542    1.5738793    1.8102719  
C    0.0000000    0.0000000    1.4700000  
C   -0.9772830   -0.8200135    2.1664417  
O   -1.8021297   -1.5120829    1.5842315  
C   -0.9711318   -0.8147624    3.7284083  
O   -1.7894187   -1.5009653    4.3257297  
C    0.0140216    0.0115358    4.4216297  
H    2.2638494    1.8988021    5.0689105  
H    0.0117648    0.0094386    5.5031631  
H    3.3327358    2.7953732    2.7900019  
H    2.1123206    1.7707734    0.8551938  
