60

C    7.2402695   -4.4202612    1.1231369  
C    6.6192313   -3.5968756    0.2127428  
C    5.2187688   -3.6690046    0.4737044  
C    5.0438676   -4.5593155    1.5639719  
N    6.2910304   -4.9988226    1.9328038  
C    3.7874200   -4.8694259    2.0930839  
C    2.6875205   -4.2696137    1.5111682  
O    1.4371352   -4.5369409    1.9887532  
C    2.8416193   -3.3788181    0.4223373  
O    1.6510173   -2.8636863   -0.0471829  
C    4.0808106   -3.0726362   -0.1003334  
H    7.1145640   -3.0165924   -0.5468028  
H    6.4832477   -5.6336373    2.6864891  
H    3.6473927   -5.5472810    2.9238109  
H    0.8228739   -4.0230109    1.4485452  
H    1.8438793   -2.2724031   -0.7812071  
H    8.2851179   -4.6417243    1.2580622  
C    4.1985335   -2.1423497   -1.2324147  
C    5.3247420   -1.7348284   -1.8626215  
C    4.8654771   -0.8236651   -2.8996159  
C    3.3948139   -0.7971454   -2.7478598  
N    2.9980300   -1.5681518   -1.7721032  
C    2.5562217   -0.0001543   -3.6003001  
C    3.1594329    0.7371398   -4.5604401  
O    2.5003396    1.5262941   -5.4258146  
C    4.6414690    0.7318293   -4.7384888  
O    5.1222590    1.4271719   -5.6332291  
C    5.4799815   -0.0940140   -3.8514695  
H    6.3415678   -2.0175420   -1.6499845  
H    3.1964043    1.9185703   -5.9832783  
H    6.5493676   -0.0702000   -4.0129497  
C    0.0000000    0.0000000    0.0000000  
C    1.0541688   -0.0001719   -0.8560391  
C    0.5103141   -0.0000449   -2.1935955  
C   -0.9576367    0.0002461   -2.0455733  
N   -1.2018459   -0.0001392   -0.6915970  
C   -1.8348306    0.0008319   -3.0810611  
C   -1.2972842    0.0009739   -4.4314605  
O   -2.0050664    0.0014267   -5.4301321  
C    0.2542628    0.0004190   -4.6117571  
O    0.7184677    0.0002263   -5.7439119  
C    1.0974556    0.0000880   -3.4189127  
H    2.0940752   -0.0005479   -0.5817978  
H   -2.9081050    0.0011669   -2.9507065  
H   -2.1128195    0.0014911   -0.2706793  
C    0.0000000    0.0000000    1.4700000  
C    1.0541688    0.0001722    2.3260392  
C    0.5103138    0.0000454    3.6635956  
C   -0.9576371   -0.0002459    3.5155732  
N   -1.2018458    0.0001392    2.1615969  
C   -1.8348311   -0.0008317    4.5510609  
C   -1.2972847   -0.0009736    5.9014604  
O   -2.0050672   -0.0014265    6.9001319  
C    0.2542623   -0.0004184    6.0817573  
O    0.7184670   -0.0002256    7.2139121  
C    1.0974552   -0.0000873    4.8889129  
H    2.0940752    0.0005483    2.0517982  
H   -2.9081052   -0.0011668    4.4207061  
H    2.1707277    0.0000911    5.0223670  
H   -2.1128194   -0.0014912    1.7406791  
