64

C    0.6936372   -0.7066098   -5.1527421  
C    0.3462083   -0.4553046   -6.4598787  
C   -0.7528342    0.4534776   -6.4312306  
C   -1.0341482    0.7235432   -5.0674658  
N   -0.1387070    0.0017013   -4.3179684  
C   -2.0601479    1.5827598   -4.6626690  
C   -2.8157351    2.1804671   -5.6526247  
O   -3.8298697    3.0285541   -5.3130773  
C   -2.5506555    1.9232734   -7.0187878  
O   -3.3906528    2.5937316   -7.8837928  
C   -1.5388163    1.0755371   -7.4188522  
H   -2.2797240    1.7926340   -3.6249113  
H   -4.2227231    3.3302832   -6.1424691  
H   -3.1443855    2.3650593   -8.7852724  
H   -1.3595338    0.8977364   -8.4727604  
H    1.4683932   -1.3361784   -4.7498089  
C    3.3041277    0.0001175   -1.5420422  
C    2.5845373   -0.0004777   -0.3695845  
C    1.2040010   -0.0000009   -0.7283586  
C    1.1422380    0.0006035   -2.1454370  
N    2.4348647    0.0026109   -2.6077458  
C   -0.0655174    0.0008795   -2.8497917  
C   -1.2321761    0.0002322   -2.1101407  
O   -2.4392807    0.0001143   -2.7472526  
C   -1.1911206   -0.0000008   -0.6955265  
O   -2.4371526   -0.0002321   -0.1032868  
C    0.0000000    0.0000000    0.0000000  
H    3.0031533   -0.0000657    0.6222591  
H    2.7054639   -0.0071099   -3.5745255  
H   -3.1132983   -0.0000652   -2.0551796  
H   -2.3200280   -0.0004072    0.8516408  
H    4.3686629    0.0004073   -1.7024280  
C    1.9257801   -4.5438510   -7.3421476  
C    1.3514703   -3.4516653   -6.7340648  
C    1.4115223   -2.3754981   -7.6683335  
C    2.0380792   -2.8749150   -8.8387754  
N    2.3391964   -4.1939637   -8.6062745  
C    2.2642241   -2.0861291   -9.9707927  
C    1.8500498   -0.7692760   -9.9204494  
O    2.0459727    0.0451197  -10.9981259  
C    1.2234208   -0.2524795   -8.7615376  
O    0.8694550    1.0767857   -8.8669212  
C    1.0002456   -1.0299874   -7.6443086  
H    0.9408666   -3.4326185   -5.7390595  
H    2.7802634   -4.8129134   -9.2622795  
H    2.7413617   -2.4607348  -10.8658984  
H    1.6890690    0.9094635  -10.7556493  
H    0.4529134    1.3468682   -8.0428143  
H    2.0745093   -5.5443673   -6.9736285  
C    0.0000000    0.0000000    1.4700000  
C    1.0541688    0.0001722    2.3260392  
C    0.5103138    0.0000454    3.6635956  
C   -0.9576371   -0.0002459    3.5155732  
N   -1.2018458    0.0001392    2.1615969  
C   -1.8348311   -0.0008317    4.5510609  
C   -1.2972847   -0.0009736    5.9014604  
O   -2.0050672   -0.0014265    6.9001319  
C    0.2542623   -0.0004184    6.0817573  
O    0.7184670   -0.0002256    7.2139121  
C    1.0974552   -0.0000873    4.8889129  
H    2.0940752    0.0005483    2.0517982  
H   -2.9081052   -0.0011668    4.4207061  
H    2.1707277    0.0000911    5.0223670  
H   -2.1128194   -0.0014912    1.7406791  
