62

C    0.1523065   -3.2501856  -10.2446500  
C   -0.0424110   -2.4822928  -11.3693246  
C   -0.2583207   -1.1434734  -10.9271189  
C   -0.1830087   -1.1557152   -9.5107493  
N    0.0654788   -2.4507537   -9.1289808  
C   -0.3479146   -0.0045085   -8.7346579  
C   -0.5930165    1.1806996   -9.4005294  
O   -0.7615293    2.3347927   -8.6915264  
C   -0.6721033    1.2131091  -10.8131551  
O   -0.9222594    2.4687045  -11.3272021  
C   -0.5097901    0.0777552  -11.5794137  
H   -0.0314067   -2.8429530  -12.3836214  
H    0.1805891   -2.7648142   -8.1823575  
H   -0.9194892    3.0331052   -9.3401188  
H   -0.9602574    2.4026773  -12.2862650  
H   -0.5759615    0.1334773  -12.6596890  
H    0.3448336   -4.3051383  -10.1499595  
C    2.2991559   -2.1048094   -5.8924434  
C    1.6888962   -1.6397490   -7.0128795  
C    0.6412945   -0.7448178   -6.5810646  
C    0.6916339   -0.7264670   -5.1066432  
N    1.7177153   -1.5716515   -4.7520883  
C   -0.1387079    0.0017019   -4.3179684  
C   -1.1495776    0.8219302   -4.9644225  
O   -1.9445177    1.5135265   -4.3414737  
C   -1.2212022    0.8175538   -6.5247612  
O   -2.0683176    1.5039443   -7.0802107  
C   -0.2716610   -0.0081806   -7.2666415  
H    1.9434332   -1.8946826   -8.0262073  
H    3.1245939   -2.7923370   -5.8038529  
H    2.0018704   -1.7690377   -3.8101000  
C    3.3041273    0.0001178   -1.5420428  
C    2.5845373   -0.0004780   -0.3695851  
C    1.2040007   -0.0000007   -0.7283589  
C    1.1422374    0.0006038   -2.1454372  
N    2.4348641    0.0026111   -2.6077464  
C   -0.0655179    0.0008799   -2.8497918  
C   -1.2321766    0.0002325   -2.1101402  
O   -2.4392814    0.0001148   -2.7472522  
C   -1.1911209   -0.0000007   -0.6955266  
O   -2.4371528   -0.0002320   -0.1032862  
C    0.0000000    0.0000000    0.0000000  
H    3.0031533   -0.0000660    0.6222584  
H    2.7054631   -0.0071097   -3.5745261  
H   -3.1132988   -0.0000648   -2.0551787  
H   -2.3200282   -0.0004072    0.8516409  
H    4.3686625    0.0004073   -1.7024290  
C    0.8175213    0.6860729    2.3021913  
C    0.0000000    0.0000000    1.4700000  
C   -0.8887526   -0.7456559    2.3478473  
C   -0.4549825   -0.3816753    3.7138435  
N    0.5448156    0.4573574    3.6934124  
C   -1.0945674   -0.9182058    4.8835240  
C   -2.1210866   -1.7789155    4.6970523  
O   -2.8083856   -2.3554314    5.6976972  
C   -2.5824069   -2.1655116    3.3310774  
O   -3.5227682   -2.9541547    3.2362962  
C   -1.9100805   -1.6015804    2.1470656  
H   -0.7567140   -0.6349833    5.8697035  
H   -3.4728268   -2.9124471    5.2533954  
H   -2.2742832   -1.9066565    1.1752040  
H    1.6189533    1.3585343    2.0405121  
