66

C    1.2843020   -2.2962178   -7.3803435  
C    0.8450885   -0.9927581   -7.4038300  
C    1.5162800   -0.3466299   -8.4839314  
C    2.3592839   -1.3140240   -9.0884298  
N    2.1956018   -2.4860981   -8.3926802  
C    3.1728337   -1.0265225  -10.1885534  
C    3.1344519    0.2609324  -10.6877167  
O    3.9084926    0.5957315  -11.7609291  
C    2.3000942    1.2401874  -10.0980351  
O    2.3741214    2.4747200  -10.7094222  
C    1.4974465    0.9573380   -9.0125496  
H    2.6583742   -3.3528760   -8.5988827  
H    3.8176618   -1.7593191  -10.6537492  
H    3.7329165    1.5278871  -11.9440229  
H    1.7809089    3.0773919  -10.2506306  
H    0.8689222    1.7281219   -8.5820537  
H    1.0206979   -3.1051116   -6.7206751  
C   -0.2041194   -0.6662876   -5.1294033  
C   -1.2456329    0.0471727   -4.5828766  
C   -1.8465396    0.7861438   -5.6446833  
C   -1.1230379    0.4806687   -6.8258505  
N   -0.1315494   -0.4025053   -6.4771797  
C   -1.4397847    1.0325673   -8.0707872  
C   -2.5065215    1.9085689   -8.1243734  
O   -2.8591361    2.4760472   -9.3146021  
C   -3.2403725    2.2261122   -6.9567065  
O   -4.2735454    3.1142219   -7.1738690  
C   -2.9282867    1.6822346   -5.7281602  
H   -0.8922032    0.8039208   -8.9747113  
H   -3.6170366    3.0463484   -9.1312777  
H   -4.7175626    3.2751065   -6.3356759  
H   -3.5084514    1.9444458   -4.8511583  
H    0.4936113   -1.3413497   -4.6641911  
C    1.1243410    0.0099923   -0.7919003  
C    0.7474076    0.0234544   -2.1148543  
C   -0.6787381    0.0234490   -2.1414700  
C   -1.1201745    0.0098592   -0.7935546  
N    0.0000000    0.0000000    0.0000000  
C   -2.4730816    0.0063709   -0.4408240  
C   -3.3971958    0.0170982   -1.4675058  
O   -4.7313517    0.0146259   -1.1793471  
C   -2.9763648    0.0303504   -2.8186324  
O   -4.0166480    0.0395118   -3.7247624  
C   -1.6418562    0.0335260   -3.1673481  
H    1.4178717    0.0310972   -2.9571209  
H   -2.8160166   -0.0041111    0.5845966  
H   -5.1938818    0.0230867   -2.0274384  
H   -3.6464675    0.0482293   -4.6127343  
H    2.1062467    0.0052819   -0.3505407  
C    2.5285572    2.1210227    2.9438989  
C    1.9331703    1.6216660    4.0790748  
C    0.8903039    0.7472258    3.6520102  
C    0.8972198    0.7527806    2.2336141  
N    1.9028376    1.5986179    1.8362361  
C    0.0000000    0.0000000    1.4700000  
C   -0.9207814   -0.7726952    2.1506477  
O   -1.8198395   -1.5274828    1.4542253  
C   -0.9436862   -0.7911793    3.5655508  
O   -1.9197945   -1.6098497    4.0950179  
C   -0.0590329   -0.0485852    4.3195194  
H    2.2150357    1.8593692    5.0905303  
H    2.1533708    1.7953814    0.8841339  
H   -2.3621246   -1.9821033    2.1118817  
H   -1.8668290   -1.5649508    5.0545920  
H   -0.1007624   -0.0827977    5.4019087  
H    3.3491200    2.8096064    2.8367138  
