62

C    8.3214066   -3.1025988   -4.5629213  
C    9.3642395   -2.3014721   -4.9668567  
C    8.8505646   -0.9757428   -5.0816611  
C    7.4770026   -1.0298521   -4.7319079  
N    7.1879707   -2.3361527   -4.4242437  
C    6.6512658    0.0983966   -4.7331416  
C    7.2226104    1.3032697   -5.0937294  
O    6.4618603    2.4363874   -5.1115496  
C    8.5911919    1.3774366   -5.4462923  
O    9.0107041    2.6482094   -5.7816869  
C    9.4063331    0.2647506   -5.4455585  
H   10.3710380   -2.6321427   -5.1566112  
H    6.2912800   -2.6782153   -4.1294221  
H    7.0470917    3.1538620   -5.3872273  
H    9.9454262    2.6105334   -6.0063647  
H   10.4509368    0.3524058   -5.7205059  
H    8.2960889   -4.1603344   -4.3641454  
C    4.4206220   -2.1198138   -1.5561253  
C    5.4069067   -1.6197474   -2.3744427  
C    4.7719050   -0.7451150   -3.3052442  
C    3.3859892   -0.7512895   -3.0033736  
N    3.2068301   -1.5976640   -1.9374612  
C    2.4521483    0.0014840   -3.7217481  
C    2.9260544    0.7748090   -4.7636496  
O    2.0575520    1.5296191   -5.4978009  
C    4.3052229    0.7939172   -5.0804267  
O    4.6197291    1.6131716   -6.1449695  
C    5.2270108    0.0513305   -4.3723324  
H    6.4549560   -1.8571123   -2.3092927  
H    2.3277576   -1.7949326   -1.4944060  
H    2.5878303    1.9847230   -6.1648475  
H    5.5693400    1.5686713   -6.2928301  
H    4.4867485   -2.8087414   -0.7315251  
C    0.0000000    0.0000000    0.0000000  
C    1.0662923   -0.0000101   -0.8334270  
C    0.4961873    0.0000065   -2.1718887  
C   -0.9663854   -0.0000848   -1.9540250  
N   -1.2632773   -0.0000083   -0.6828660  
C   -1.8985359   -0.0000514   -3.0477261  
C   -1.3925770    0.0004566   -4.3020547  
O   -2.1456378    0.0005414   -5.4151314  
C    0.0786240    0.0009326   -4.5545000  
O    0.4683767    0.0012591   -5.7221100  
C    1.0143171    0.0008444   -3.4159031  
H    2.1107200    0.0000633   -0.5721865  
H   -2.9622181   -0.0003268   -2.8593381  
H   -1.5042265    0.0009697   -6.1484419  
C    1.1319247   -0.0015655    2.2709268  
C    0.7969915   -0.0034943    3.5869401  
C   -0.6453339   -0.0035710    3.6542670  
C   -1.1266833   -0.0015433    2.2596025  
N    0.0000000    0.0000000    1.4700000  
C   -2.4346130   -0.0013964    1.8976294  
C   -3.4350110   -0.0031408    2.9520183  
O   -4.6384611   -0.0030974    2.7283916  
C   -2.9478959   -0.0050506    4.4361073  
O   -3.7809380   -0.0062218    5.3323774  
C   -1.5113823   -0.0053090    4.7012123  
H    1.4821238   -0.0045407    4.4159191  
H   -2.7664565   -0.0000232    0.8686553  
H   -1.1823530   -0.0068408    5.7314848  
H    2.1104316   -0.0009391    1.8188057  
