60

C    4.5587516    0.0005405   -6.6513177  
C    5.7450317   -0.6739360   -6.8253543  
C    6.2463084   -0.3099604   -8.1102052  
C    5.3156025    0.5971588   -8.6784022  
N    4.3021464    0.7622913   -7.7672199  
C    5.4886440    1.1640999   -9.9446658  
C    6.6220231    0.8090731  -10.6500642  
O    6.8406398    1.3334745  -11.8911216  
C    7.5620496   -0.0947206  -10.1002245  
O    8.6378305   -0.3484631  -10.9258488  
C    7.3918510   -0.6546177   -8.8511964  
H    6.1933221   -1.3464950   -6.1142332  
H    3.5033281    1.3580818   -7.8893006  
H    4.7829365    1.8559726  -10.3834049  
H    7.6753924    0.9597892  -12.2022681  
H    9.2241171   -0.9673652  -10.4799429  
H    8.1289009   -1.3440487   -8.4563291  
C    4.5939379   -2.1037475   -2.7696727  
C    4.8996522   -1.6376004   -4.0079461  
C    3.8355764   -0.7416514   -4.3950537  
C    2.8780295   -0.7238871   -3.2727447  
N    3.3957275   -1.5703488   -2.3196540  
C    1.7334695    0.0049281   -3.2500363  
C    1.4239149    0.8265210   -4.4083521  
O    0.4172712    1.5187838   -4.4841266  
C    2.4237222    0.8227861   -5.6084260  
O    2.1735668    1.5103253   -6.5892280  
C    3.6246412   -0.0037449   -5.5162755  
H    5.7710263   -1.8924546   -4.5844616  
H    5.1430573   -2.7922317   -2.1481040  
H    2.9698478   -1.7683918   -1.4328324  
C    1.1319246    0.0015678   -0.8009268  
C    0.7969914    0.0034958   -2.1169401  
C   -0.6453340    0.0035696   -2.1842669  
C   -1.1266832    0.0015410   -0.7896025  
N    0.0000000    0.0000000    0.0000000  
C   -2.4346129    0.0013913   -0.4276292  
C   -3.4350111    0.0031335   -1.4820181  
O   -4.6384614    0.0030875   -1.2583914  
C   -2.9478961    0.0050442   -2.9661074  
O   -3.7809382    0.0062135   -3.8623773  
C   -1.5113825    0.0053055   -3.2312122  
H   -2.7664565    0.0000174    0.6013448  
H   -1.1823533    0.0068381   -4.2614848  
H    2.1104316    0.0009435   -0.3488059  
C    2.5128556    2.1077716    2.9199648  
C    1.9592212    1.6432552    4.0696553  
C    0.8915788    0.7479214    3.6910360  
C    0.8684491    0.7287414    2.2159470  
N    1.8754542    1.5738793    1.8102719  
C    0.0000000    0.0000000    1.4700000  
C   -0.9772830   -0.8200135    2.1664417  
O   -1.8021297   -1.5120829    1.5842315  
C   -0.9711318   -0.8147624    3.7284083  
O   -1.7894187   -1.5009653    4.3257297  
C    0.0140216    0.0115358    4.4216297  
H    2.2638494    1.8988021    5.0689105  
H    0.0117648    0.0094386    5.5031631  
H    3.3327358    2.7953732    2.7900019  
H    2.1123206    1.7707734    0.8551938  
