62

C    2.0773321   -4.6161025   -6.5985291  
C    1.3222869   -3.5098742   -6.2844690  
C    1.7610465   -2.4514337   -7.1340535  
C    2.7943008   -2.9756379   -7.9522964  
N    2.9624340   -4.2917558   -7.5998992  
C    3.4604507   -2.2090482   -8.9132198  
C    3.0763341   -0.8893164   -9.0508437  
O    3.6935028   -0.0959606   -9.9742639  
C    2.0477993   -0.3479478   -8.2434712  
O    1.7808637    0.9810059   -8.5003179  
C    1.3903781   -1.1035500   -7.2951091  
H    0.5509926   -3.4703269   -5.5344464  
H    3.6199391   -4.9250111   -8.0178171  
H    4.2488683   -2.6026003   -9.5398907  
H    3.2802483    0.7745812   -9.9061255  
H    1.0749538    1.2684260   -7.9132195  
H    2.0555165   -5.6104332   -6.1864742  
C    0.1164998   -0.7216400   -5.1523583  
C    0.3272678   -0.5036903   -6.4760463  
C   -0.6879590    0.4235563   -6.9169129  
C   -1.5133671    0.7301674   -5.7330708  
N   -0.9736297    0.0040464   -4.6965763  
C   -2.5790089    1.5704692   -5.7354640  
C   -2.9370249    2.2158046   -6.9876223  
O   -3.8800066    2.9891499   -7.0926168  
C   -2.0769102    1.9054768   -8.2539972  
O   -2.3689469    2.4426557   -9.3139092  
C   -0.9518103    0.9825202   -8.1269043  
H   -3.1711467    1.7818063   -4.8559076  
H   -0.3611580    0.7731148   -9.0083816  
H    0.6657026   -1.3515088   -4.4715271  
C    1.1188642    0.0008222   -0.8003808  
C    0.0000000    0.0000000    0.0000000  
C   -1.1323862    0.0008899   -0.8673528  
C   -0.6382663    0.0019679   -2.1969280  
N    0.7324016    0.0038481   -2.1202242  
C   -1.4770914    0.0027318   -3.3154808  
C   -2.8395473    0.0020945   -3.0876857  
O   -3.7039201    0.0024425   -4.1440349  
C   -3.3517868    0.0013931   -1.7684331  
O   -4.7300497    0.0012366   -1.7073121  
C   -2.5248543    0.0009123   -0.6644817  
H    1.3576314   -0.0056167   -2.9057046  
H   -4.5940032    0.0021826   -3.7685128  
H   -4.9934602    0.0007259   -0.7819913  
H   -2.9462577    0.0005603    0.3339659  
H    2.1619895    0.0009355   -0.5342068  
C    2.5128556    2.1077716    2.9199648  
C    1.9592212    1.6432552    4.0696553  
C    0.8915788    0.7479214    3.6910360  
C    0.8684491    0.7287414    2.2159470  
N    1.8754542    1.5738793    1.8102719  
C    0.0000000    0.0000000    1.4700000  
C   -0.9772830   -0.8200135    2.1664417  
O   -1.8021297   -1.5120829    1.5842315  
C   -0.9711318   -0.8147624    3.7284083  
O   -1.7894187   -1.5009653    4.3257297  
C    0.0140216    0.0115358    4.4216297  
H    2.2638494    1.8988021    5.0689105  
H    0.0117648    0.0094386    5.5031631  
H    3.3327358    2.7953732    2.7900019  
H    2.1123206    1.7707734    0.8551938  
