64

C    9.9563317   -0.7057306   -1.8438732  
C   11.1971080   -0.4535631   -2.3817886  
C   11.0049984    0.4568268   -3.4629379  
C    9.6145301    0.7269394   -3.5375323  
N    9.0068365    0.0035795   -2.5415027  
C    9.0613555    1.5875554   -4.4904890  
C    9.9276665    2.1866397   -5.3842351  
O    9.4407804    3.0361260   -6.3351968  
C   11.3180864    1.9294237   -5.3260320  
O   12.0482616    2.6013494   -6.2845220  
C   11.8644724    1.0803078   -4.3863561  
H   12.1262338   -0.8749073   -2.0380052  
H    8.0024565    1.7974731   -4.5526932  
H   10.2023735    3.3386559   -6.8467791  
H   12.9763808    2.3725575   -6.1756492  
H   12.9333382    0.9025266   -4.3663534  
H    9.6733495   -1.3365466   -1.0186757  
C    6.7748106   -0.0038149    1.2764664  
C    5.5082317   -0.0036674    0.7395819  
C    5.6573263   -0.0010630   -0.6789963  
C    7.0493884    0.0000132   -0.9511882  
N    7.6991164    0.0002435    0.2581385  
C    7.5659487    0.0022552   -2.2503992  
C    6.6607404    0.0031250   -3.2938428  
O    7.1109049    0.0049542   -4.5823933  
C    5.2680305    0.0024512   -3.0424940  
O    4.4967632    0.0038935   -4.1863862  
C    4.7577216    0.0005129   -1.7610467  
H    4.5898233   -0.0041378    1.3012930  
H    8.6954216   -0.0096155    0.3816703  
H    6.3261387    0.0055799   -5.1457818  
H    3.5699428    0.0032893   -3.9283024  
H    7.0920038   -0.0050482    2.3052258  
C    3.3041270    0.0001177   -1.5420435  
C    2.5845370   -0.0004780   -0.3695856  
C    1.2040004   -0.0000007   -0.7283590  
C    1.1422370    0.0006038   -2.1454373  
N    2.4348634    0.0026110   -2.6077469  
C   -0.0655187    0.0008799   -2.8497918  
C   -1.2321769    0.0002326   -2.1101398  
O   -2.4392822    0.0001149   -2.7472517  
C   -1.1911211   -0.0000007   -0.6955263  
O   -2.4371526   -0.0002319   -0.1032858  
C    0.0000000    0.0000000    0.0000000  
H    3.0031534   -0.0000661    0.6222578  
H    2.7054623   -0.0071098   -3.5745266  
H   -0.1193555    0.0014846   -3.9297472  
H   -3.1132992   -0.0000646   -2.0551783  
H   -2.3200279   -0.0004070    0.8516411  
C    0.0000000    0.0000000    1.4700000  
C    1.0541688    0.0001722    2.3260392  
C    0.5103138    0.0000454    3.6635956  
C   -0.9576371   -0.0002459    3.5155732  
N   -1.2018458    0.0001392    2.1615969  
C   -1.8348311   -0.0008317    4.5510609  
C   -1.2972847   -0.0009736    5.9014604  
O   -2.0050672   -0.0014265    6.9001319  
C    0.2542623   -0.0004184    6.0817573  
O    0.7184670   -0.0002256    7.2139121  
C    1.0974552   -0.0000873    4.8889129  
H    2.0940752    0.0005483    2.0517982  
H   -2.9081052   -0.0011668    4.4207061  
H    2.1707277    0.0000911    5.0223670  
H   -2.1128194   -0.0014912    1.7406791  
