62

C    5.4650857   -2.7707742   -8.6773698  
C    6.1183465   -2.2444024   -9.7676214  
C    5.8073844   -0.8528874   -9.8074821  
C    4.9534275   -0.5855545   -8.7069300  
N    4.7642792   -1.7720288   -8.0427619  
C    4.4474960    0.6890224   -8.4343948  
C    4.8104815    1.7124298   -9.2882424  
O    4.3452044    2.9766037   -9.0682526  
C    5.6612318    1.4654706  -10.3918968  
O    5.9300517    2.5873754  -11.1484733  
C    6.1605004    0.2082680  -10.6615213  
H    6.7413736   -2.7957862  -10.4508542  
H    4.2114146   -1.8910172   -7.2132059  
H    4.7134137    3.5290469   -9.7700315  
H    6.5105510    2.3339466  -11.8726282  
H    6.8099392    0.0495463  -11.5144667  
H    5.4424458   -3.7798943   -8.3030411  
C    4.4169323   -0.7262681   -4.2519965  
C    4.7208627   -0.5096733   -5.5576722  
C    3.7394655    0.4171453   -6.0702173  
C    2.8323815    0.7249817   -4.9480652  
N    3.2973506   -0.0000934   -3.8752374  
C    1.7696597    1.5653036   -5.0267153  
C    1.5012095    2.2093696   -6.3017244  
O    0.5680943    2.9826278   -6.4739712  
C    2.4487537    1.8977314   -7.5037428  
O    2.2325035    2.4338349   -8.5822092  
C    3.5619530    0.9748805   -7.2964140  
H    5.5390529   -0.9491615   -6.0999154  
H    1.1167845    1.7775507   -4.1914813  
H    4.9165210   -1.3554542   -3.5333689  
C    3.3321174    0.0004714   -1.3379332  
C    2.6974186    0.0000115   -2.5332308  
C    1.2800441   -0.0002119   -2.2052838  
C    1.2395035    0.0000643   -0.7271293  
N    2.4394063    0.0005458   -0.2131034  
C    0.0000000    0.0000000    0.0000000  
C   -1.1468701    0.0000634   -0.7169542  
O   -2.3742201    0.0000072   -0.1695492  
C   -1.1388767    0.0001606   -2.2096354  
O   -2.2206229    0.0000903   -2.7970413  
C    0.1454526    0.0001815   -2.9324239  
H   -2.9844344    0.0001023   -0.9290168  
H    0.1083580    0.0003680   -4.0135594  
H    4.3940040    0.0007617   -1.1498630  
C    0.8676693    0.7151171    2.2619005  
C    0.5875920    0.4624972    3.5848544  
C   -0.5048400   -0.4542819    3.6114698  
C   -0.8517165   -0.7276451    2.2635546  
N    0.0000000    0.0000000    1.4700000  
C   -1.8902865   -1.5946756    1.9108239  
C   -2.5912627   -2.1969500    2.9375057  
O   -3.6148162   -3.0527051    2.6493466  
C   -2.2603868   -1.9365747    4.2886322  
O   -3.0513550   -2.6123276    5.1947621  
C   -1.2361111   -1.0811317    4.6373480  
H    1.1060808    0.8876438    4.4271209  
H   -2.1597133   -1.8070987    0.8854031  
H   -3.9636755   -3.3565188    3.4974381  
H   -2.7621927   -2.3810384    6.0827341  
H   -1.0058879   -0.9010589    5.6809233  
H    1.6167816    1.3499334    1.8205408  
