64

C    3.8770949   -3.6452043   -5.3726996  
C    4.6006140   -4.4687704   -4.5415996  
C    4.0156770   -4.3691424   -3.2444790  
C    2.9294788   -3.4626407   -3.3462377  
N    2.8745159   -3.0403724   -4.6513376  
C    2.1221204   -3.1243022   -2.2560595  
C    2.4164498   -3.7120065   -1.0410895  
O    1.6598914   -3.4171772    0.0560466  
C    3.4963051   -4.6186142   -0.9194622  
O    3.6612830   -5.1187053    0.3556976  
C    4.2933713   -4.9526471   -1.9944658  
H    5.4466752   -5.0668280   -4.8340065  
H    1.2928798   -2.4339934   -2.3270200  
H    2.0304352   -3.9269410    0.7882372  
H    4.4105390   -5.7221960    0.3511450  
H    5.1136097   -5.6500611   -1.8707653  
H    3.9977665   -3.4402822   -6.4226534  
C    1.8844580   -2.1024760   -5.2000038  
C    1.7579309   -1.6369204   -6.4693831  
C    0.6249271   -0.7419051   -6.4785623  
C    0.0979862   -0.7240440   -5.1005905  
N    0.9053924   -1.5695641   -4.3752763  
C   -0.9736297    0.0040464   -4.6965763  
C   -1.6535194    0.8247014   -5.6849136  
O   -2.6280815    1.5162659   -5.4198313  
C   -1.1127797    0.8208474   -7.1503112  
O   -1.6771985    1.5076003   -7.9911817  
C    0.0504528   -0.0048495   -7.4649012  
H    2.3864450   -1.8915794   -7.3040885  
H    0.4187468   -0.0017846   -8.4817956  
H    0.8008849   -1.7673170   -3.3970026  
C    1.1188642    0.0008222   -0.8003808  
C    0.0000000    0.0000000    0.0000000  
C   -1.1323862    0.0008899   -0.8673528  
C   -0.6382663    0.0019679   -2.1969280  
N    0.7324016    0.0038481   -2.1202242  
C   -1.4770914    0.0027318   -3.3154808  
C   -2.8395473    0.0020945   -3.0876857  
O   -3.7039201    0.0024425   -4.1440349  
C   -3.3517868    0.0013931   -1.7684331  
O   -4.7300497    0.0012366   -1.7073121  
C   -2.5248543    0.0009123   -0.6644817  
H    1.3576314   -0.0056167   -2.9057046  
H   -4.5940032    0.0021826   -3.7685128  
H   -4.9934602    0.0007259   -0.7819913  
H   -2.9462577    0.0005603    0.3339659  
H    2.1619895    0.0009355   -0.5342068  
C    2.5311839    2.1237619    3.0120429  
C    1.9795631    1.6616747    1.8395852  
C    0.9223175    0.7739173    2.1983588  
C    0.8753926    0.7337535    3.6154372  
N    1.8668922    1.5631002    4.0777464  
C   -0.0496243   -0.0427881    4.3197917  
C   -0.9437528   -0.7922060    3.5801400  
O   -1.8685244   -1.5680278    4.2172520  
C   -0.9124520   -0.7656372    2.1655264  
O   -1.8671164   -1.5663939    1.5732860  
C    0.0000000    0.0000000    1.4700000  
H    2.3005065    1.9304404    0.8477417  
H    2.0679347    1.7444845    5.0445261  
H   -0.0904770   -0.0778569    5.3997470  
H   -2.3849669   -2.0011402    3.5251786  
H   -1.7775064   -1.4909735    0.6183591  
H    3.3468514    2.8078103    3.1724291  
