62

C    1.4507224   -2.4163464   -7.7211901  
C    1.0181723   -1.1136823   -7.6293534  
C    1.3363111   -0.4810576   -8.8675670  
C    1.9669589   -1.4554919   -9.6828501  
N    2.0221716   -2.6185713   -8.9556531  
C    2.4168128   -1.1816004  -10.9779963  
C    2.2262919    0.0992288  -11.4589925  
O    2.6461592    0.4207294  -12.7173096  
C    1.5994580    1.0853381  -10.6605656  
O    1.4833091    2.3118885  -11.2813937  
C    1.1556596    0.8159175   -9.3826840  
H    2.4071521   -3.4875537   -9.2791362  
H    2.8983421   -1.9198191  -11.6043877  
H    2.4198766    1.3502752  -12.8514887  
H    1.0497905    2.9199555  -10.6748300  
H    0.6792473    1.5916838   -8.7947252  
H    1.3981134   -3.2168313   -7.0032659  
C    0.6776466   -0.7282711   -5.1604461  
C    0.3570671   -0.5122885   -6.4622354  
C   -0.7499183    0.4146722   -6.4749880  
C   -1.0501144    0.7232591   -5.0638015  
N   -0.1496415   -0.0015615   -4.3176961  
C   -2.0330281    1.5639197   -4.6528576  
C   -2.8499207    2.2075843   -5.6681985  
O   -3.7597068    2.9810996   -5.3993800  
C   -2.5498407    1.8951507   -7.1689128  
O   -3.2311660    2.4309114   -8.0326354  
C   -1.4636387    0.9719933   -7.4879704  
H   -2.2366081    1.7767176   -3.6125776  
H   -1.2621751    0.7611250   -8.5294453  
H    1.4485190   -1.3573518   -4.7458346  
C    3.3003543    0.0005276   -1.4738987  
C    2.5232814    0.0003497   -2.6090747  
C    1.1623200   -0.0001320   -2.1820103  
C    1.1711883    0.0000582   -0.7636140  
N    2.4852300   -0.0014919   -0.3662360  
C    0.0000000    0.0000000    0.0000000  
C   -1.2020384    0.0000519   -0.6806477  
O   -2.3759249    0.0003493    0.0157743  
C   -1.2314656   -0.0005115   -2.0955510  
O   -2.5054392   -0.0008039   -2.6250180  
C   -0.0764516   -0.0007274   -2.8495195  
H    2.8919955   -0.0005620   -3.6205304  
H    2.8036267    0.0088183    0.5858662  
H   -3.0835638    0.0000347   -0.6418818  
H   -2.4360047   -0.0011529   -3.5845921  
H    4.3715549    0.0004895   -1.3667136  
C    0.8400945    0.7047457    2.2710304  
C    0.0000000    0.0000000    1.4700000  
C   -0.8844236   -0.7423113    2.3369512  
C   -0.4878984   -0.4098547    3.7186280  
N    0.5629682    0.4714286    3.6095011  
C   -1.0836927   -0.9095027    4.8308716  
C   -2.1891196   -1.8367527    4.6554461  
O   -2.7906899   -2.3413415    5.5944904  
C   -2.6257283   -2.2031529    3.2011665  
O   -3.5549479   -2.9829990    3.0410059  
C   -1.9068976   -1.5999348    2.0816745  
H   -0.7774656   -0.6525820    5.8354244  
H   -2.2155208   -1.8586617    1.0779135  
H    1.6384792    1.3747609    1.9961646  
H    1.0518368    0.8833920    4.3830260  
