64

C    9.8450877   -0.7148697   -2.2226213  
C    9.2566788    0.0028818   -3.2380401  
C   10.2957128    0.7317494   -3.8890079  
C   11.5067808    0.4159725   -3.2215319  
N   11.1971269   -0.4633495   -2.2138000  
C   12.7404033    0.9562868   -3.5970678  
C   12.7517075    1.8310810   -4.6660795  
O   13.9291393    2.3874499   -5.0748862  
C   11.5537467    2.1587953   -5.3445403  
O   11.7301287    3.0442261   -6.3877308  
C   10.3363511    1.6263500   -4.9744401  
H   11.8569988   -0.8718123   -1.5768477  
H   13.6669676    0.7197521   -3.0923605  
H   13.7155542    2.9589150   -5.8239349  
H   10.8734730    3.2124681   -6.7920070  
H    9.4354474    1.8961810   -5.5129960  
H    9.4070979   -1.3852126   -1.5030631  
C    5.6484569   -0.0000681   -0.6807740  
C    4.7161325   -0.0005435   -1.6923264  
C    5.4371286    0.0004103   -2.9230838  
C    6.8175140    0.0011681   -2.5968004  
N    6.9105280    0.0028045   -1.2271423  
C    7.8240135    0.0018979   -3.5672367  
C    7.4298415    0.0015550   -4.8911724  
O    8.3714604    0.0018843   -5.8792857  
C    6.0574640    0.0011754   -5.2367107  
O    5.8267420    0.0012878   -6.5968985  
C    5.0639868    0.0007285   -4.2798774  
H    7.7671525   -0.0069120   -0.7036150  
H    7.8889775    0.0018556   -6.7162295  
H    4.8759896    0.0009848   -6.7441179  
H    4.0211713    0.0006264   -4.5748589  
H    5.5130316   -0.0001048    0.3872235  
C    3.2573665   -0.0002920   -1.5109385  
C    2.5379463   -0.0001709   -0.3591964  
C    1.1435038    0.0000331   -0.7338500  
C    1.1092599   -0.0000083   -2.2088477  
N    2.4227553    0.0001909   -2.6182613  
C   -0.0265539   -0.0002524   -2.9515660  
C   -1.3003040   -0.0002640   -2.2514977  
O   -2.3786790   -0.0004133   -2.8306421  
C   -1.2877727    0.0000311   -0.6895603  
O   -2.3539959    0.0003306   -0.0892030  
C    0.0000000    0.0000000    0.0000000  
H    2.9384091   -0.0000367    0.6389234  
H   -0.0296303   -0.0004086   -4.0327229  
H    2.7280482   -0.0013407   -3.5742119  
C    0.8576279    0.7185626    2.2703808  
C    0.0000000    0.0000000    1.4700000  
C   -0.8668858   -0.7285659    2.3373528  
C   -0.4876752   -0.4117774    3.6669281  
N    0.5635254    0.4678311    3.5902241  
C   -1.1297612   -0.9515493    4.7854808  
C   -2.1738724   -1.8268314    4.5576857  
O   -2.8357962   -2.3827064    5.6140350  
C   -2.5667212   -2.1555554    3.2384331  
O   -3.6226318   -3.0413663    3.1773122  
C   -1.9335634   -1.6236449    2.1344818  
H    1.0363952    0.8769718    4.3757045  
H   -0.8454472   -0.7142436    5.8013813  
H   -3.5178062   -2.9546422    5.2385129  
H   -3.8247440   -3.2102924    2.2519915  
H   -2.2566033   -1.8942483    1.1360343  
H    1.6567807    1.3889844    2.0042067  
