66

C    1.5862965   -2.0670324   -5.3411837  
C    1.3189955   -1.5555211   -6.5899330  
C    0.1997468   -0.6822142   -6.4513058  
C   -0.1759083   -0.7009553   -5.0836590  
N    0.6852546   -1.5532115   -4.4381559  
C   -1.2456329    0.0471727   -4.5828766  
C   -1.9487576    0.8286862   -5.4789954  
O   -3.0021411    1.5794497   -5.0433908  
C   -1.5894390    0.8603675   -6.8474631  
O   -2.3865851    1.6866030   -7.6124701  
C   -0.5344144    0.1223711   -7.3422459  
H    1.8630207   -1.7845998   -7.4902396  
H    0.6698564   -1.7594945   -3.4557141  
H   -3.3470234    2.0416480   -5.8184353  
H   -2.0769442    1.6504691   -8.5226462  
H   -0.2828475    0.1667452   -8.3954427  
C    4.8465908   -4.1820823   -7.5517731  
C    3.7717113   -3.3891229   -7.2226585  
C    3.5526915   -3.5450930   -5.8218357  
C    4.5331608   -4.4528373   -5.3458025  
N    5.3011260   -4.8216329   -6.4222942  
C    4.6177396   -4.8401085   -4.0050355  
C    3.6959358   -4.3009663   -3.1288048  
O    3.7334358   -4.6447609   -1.8084213  
C    2.7098939   -3.3939655   -3.5847530  
O    1.8649027   -2.9455609   -2.5906371  
C    2.6256935   -3.0116757   -4.9073605  
H    3.2133967   -2.7747914   -7.9081322  
H    6.0833211   -5.4501609   -6.3890546  
H    5.3625499   -5.5316425   -3.6359288  
H    3.0135603   -4.1632960   -1.3803619  
H    1.2298871   -2.3381361   -2.9822914  
H    5.3240877   -4.3431624   -8.5030924  
C    1.1243410    0.0099923   -0.7919003  
C    0.7474076    0.0234544   -2.1148543  
C   -0.6787381    0.0234490   -2.1414700  
C   -1.1201745    0.0098592   -0.7935546  
N    0.0000000    0.0000000    0.0000000  
C   -2.4730816    0.0063709   -0.4408240  
C   -3.3971958    0.0170982   -1.4675058  
O   -4.7313517    0.0146259   -1.1793471  
C   -2.9763648    0.0303504   -2.8186324  
O   -4.0166480    0.0395118   -3.7247624  
C   -1.6418562    0.0335260   -3.1673481  
H    1.4178717    0.0310972   -2.9571209  
H   -2.8160166   -0.0041111    0.5845966  
H   -5.1938818    0.0230867   -2.0274384  
H   -3.6464675    0.0482293   -4.6127343  
H    2.1062467    0.0052819   -0.3505407  
C    2.5285572    2.1210227    2.9438989  
C    1.9331703    1.6216660    4.0790748  
C    0.8903039    0.7472258    3.6520102  
C    0.8972198    0.7527806    2.2336141  
N    1.9028376    1.5986179    1.8362361  
C    0.0000000    0.0000000    1.4700000  
C   -0.9207814   -0.7726952    2.1506477  
O   -1.8198395   -1.5274828    1.4542253  
C   -0.9436862   -0.7911793    3.5655508  
O   -1.9197945   -1.6098497    4.0950179  
C   -0.0590329   -0.0485852    4.3195194  
H    2.2150357    1.8593692    5.0905303  
H    2.1533708    1.7953814    0.8841339  
H   -2.3621246   -1.9821033    2.1118817  
H   -1.8668290   -1.5649508    5.0545920  
H   -0.1007624   -0.0827977    5.4019087  
H    3.3491200    2.8096064    2.8367138  
