60

C    2.4938363   -2.1214411   -5.9023410  
C    1.8951707   -1.6223093   -7.0358905  
C    0.8534333   -0.7479144   -6.6059867  
C    0.8643852   -0.7532636   -5.1876156  
N    1.8712166   -1.5989406   -4.7929780  
C   -0.0307359   -0.0004648   -4.4215606  
C   -0.9535297    0.7720375   -5.0996971  
O   -1.8506809    1.5268333   -4.4008284  
C   -0.9804619    0.7903148   -6.5145319  
O   -1.9581565    1.6088082   -7.0413378  
C   -0.0978807    0.0477026   -7.2709075  
H    2.1741817   -1.8601301   -8.0481094  
H    2.1244781   -1.7955407   -3.8415642  
H   -2.3948814    1.9813032   -5.0570047  
H   -1.9079166    1.5637762   -8.0010520  
H   -0.1426932    0.0817546   -8.3531784  
H    3.3147713   -2.8099247   -5.7973913  
C    3.2573667   -0.0002920   -1.5109386  
C    2.5379466   -0.0001709   -0.3591965  
C    1.1435040    0.0000332   -0.7338503  
C    1.1092604   -0.0000083   -2.2088478  
N    2.4227557    0.0001908   -2.6182616  
C   -0.0265538   -0.0002523   -2.9515663  
C   -1.3003040   -0.0002641   -2.2514979  
O   -2.3786787   -0.0004133   -2.8306426  
C   -1.2877728    0.0000312   -0.6895607  
O   -2.3539959    0.0003306   -0.0892033  
C    0.0000000    0.0000000    0.0000000  
H    2.9384091   -0.0000368    0.6389234  
H    2.7280486   -0.0013408   -3.5742120  
C    6.5597225   -0.0008213    1.3835017  
C    7.6114516   -0.0009116    0.5244667  
C    7.0637934   -0.0009872   -0.8115370  
C    5.5962696   -0.0009039   -0.6593386  
N    5.3559137   -0.0012039    0.6953270  
C    4.7161330   -0.0005435   -1.6923266  
C    5.2498352   -0.0004420   -3.0442500  
O    4.5392138   -0.0001858   -4.0409038  
C    6.8008627   -0.0007796   -3.2289604  
O    7.2618446   -0.0010042   -4.3624312  
C    7.6474462   -0.0008761   -2.0385198  
H    8.6521340   -0.0011062    0.7957479  
H    8.7203348   -0.0009047   -2.1750270  
H    6.5627892   -0.0007243    2.4614073  
H    4.4461412    0.0003270    1.1188347  
C    0.8681109    0.7263879    2.2709268  
C    0.6127770    0.5096195    3.5869401  
C   -0.4920590   -0.4175482    3.6542670  
C   -0.8620974   -0.7254003    2.2596025  
N    0.0000000    0.0000000    1.4700000  
C   -1.8641242   -1.5660088    1.8976294  
C   -2.6293522   -2.2103885    2.9520183  
O   -3.5512764   -2.9839180    2.7283916  
C   -2.2549728   -1.8987399    4.4361073  
O   -2.8923672   -2.4351063    5.3323774  
C   -1.1543735   -0.9755647    4.7012123  
H    1.1382914    0.9492124    4.4159191  
H   -2.1192137   -1.7782617    0.8686553  
H   -0.9013378   -0.7652422    5.7314848  
H    1.6172880    1.3558399    1.8188057  
