62

C    7.0850020   -1.9921905   -6.5255490  
C    8.1753425   -2.8309332   -6.5139181  
C    8.7319472   -2.8084678   -7.8270391  
C    7.9323360   -1.9307893   -8.6030730  
N    6.9401629   -1.4539642   -7.7828006  
C    8.1896556   -1.6665632   -9.9516870  
C    9.2741103   -2.2996503  -10.5273070  
O    9.5708545   -2.0771246  -11.8408657  
C   10.0835711   -3.1790959   -9.7695706  
O   11.1252168   -3.7318152  -10.4856849  
C    9.8301499   -3.4404388   -8.4391571  
H    8.5257048   -3.3910118   -5.6638879  
H    6.2266260   -0.8017102   -8.0537455  
H    7.5839519   -0.9987839  -10.5486765  
H   10.3530092   -2.6087782  -12.0379548  
H   11.6219154   -4.3123991   -9.9010338  
H   10.4676686   -4.1189156   -7.8844336  
C    6.1837013   -2.1071893   -4.1730104  
C    6.1473624   -1.6429265   -5.4486332  
C    5.0179317   -0.7478965   -5.5388751  
C    4.3948023   -0.7286186   -4.2016663  
N    5.1487785   -1.5734154   -3.4201754  
C    3.2973506   -0.0000934   -3.8752374  
C    2.6891815    0.8195676   -4.9100425  
O    1.6983688    1.5114227   -4.7152919  
C    3.3322637    0.8142072   -6.3334970  
O    2.8288284    1.5001137   -7.2128977  
C    4.5147646   -0.0118350   -6.5641428  
H    4.9540960   -0.0098156   -7.5524282  
H    6.8793285   -2.7945271   -3.7196252  
H    4.9752873   -1.7701682   -2.4515493  
C    3.3321174    0.0004714   -1.3379332  
C    2.6974186    0.0000115   -2.5332308  
C    1.2800441   -0.0002119   -2.2052838  
C    1.2395035    0.0000643   -0.7271293  
N    2.4394063    0.0005458   -0.2131034  
C    0.0000000    0.0000000    0.0000000  
C   -1.1468701    0.0000634   -0.7169542  
O   -2.3742201    0.0000072   -0.1695492  
C   -1.1388767    0.0001606   -2.2096354  
O   -2.2206229    0.0000903   -2.7970413  
C    0.1454526    0.0001815   -2.9324239  
H   -2.9844344    0.0001023   -0.9290168  
H    0.1083580    0.0003680   -4.0135594  
H    4.3940040    0.0007617   -1.1498630  
C    0.8576279    0.7185626    2.2703808  
C    0.0000000    0.0000000    1.4700000  
C   -0.8668858   -0.7285659    2.3373528  
C   -0.4876752   -0.4117774    3.6669281  
N    0.5635254    0.4678311    3.5902241  
C   -1.1297612   -0.9515493    4.7854808  
C   -2.1738724   -1.8268314    4.5576857  
O   -2.8357962   -2.3827064    5.6140350  
C   -2.5667212   -2.1555554    3.2384331  
O   -3.6226318   -3.0413663    3.1773122  
C   -1.9335634   -1.6236449    2.1344818  
H    1.0363952    0.8769718    4.3757045  
H   -0.8454472   -0.7142436    5.8013813  
H   -3.5178062   -2.9546422    5.2385129  
H   -3.8247440   -3.2102924    2.2519915  
H   -2.2566033   -1.8942483    1.1360343  
H    1.6567807    1.3889844    2.0042067  
