64

C    1.2235113   -0.2384301   -4.5828762  
C   -0.0142982   -0.0497492   -5.1526963  
C    0.1675264   -0.0919429   -6.5668248  
C    1.5489408   -0.3112290   -6.8024818  
N    2.1614521   -0.3934892   -5.5766433  
C    2.0907110   -0.4090338   -8.0876700  
C    1.2220815   -0.2834810   -9.1543924  
O    1.6979649   -0.3712193  -10.4306567  
C   -0.1594072   -0.0640145   -8.9395906  
O   -0.8932576    0.0397709  -10.1032212  
C   -0.6945293    0.0328487   -7.6719995  
H   -0.9348531    0.1009820   -4.6152468  
H    3.1408104   -0.5560827   -5.4269733  
H    3.1426764   -0.5759450   -8.2739809  
H    0.9366675   -0.2573006  -11.0143645  
H   -1.8148238    0.1870514   -9.8694954  
C   -1.1124679    0.1632688   -0.7919003  
C   -0.7421039    0.0919217   -2.1148548  
C    0.6670315   -0.1276909   -2.1414700  
C    1.1052948   -0.1822419   -0.7935545  
N    0.0000000    0.0000000    0.0000000  
C    2.4426011   -0.3871348   -0.4408235  
C    3.3540407   -0.5400422   -1.4675050  
O    4.6726629   -0.7430516   -1.1793463  
C    2.9361888   -0.4883311   -2.8186316  
O    3.9626523   -0.6575804   -3.7247614  
C    1.6171096   -0.2859622   -3.1673481  
H   -1.4057470    0.1876176   -2.9571212  
H    2.7830596   -0.4295879    0.5845973  
H    5.1283730   -0.8226384   -2.0274376  
H    3.5955455   -0.6091885   -4.6127343  
H   -2.0819359    0.3191306   -0.3505410  
C   -3.0048437    2.5751546   -4.8103939  
C   -1.9954515    1.9415580   -5.4975255  
C   -2.6153087    1.1305435   -6.4938351  
C   -4.0162528    1.3117894   -6.3656473  
N   -4.2183411    2.1934791   -5.3329802  
C   -4.9412506    0.6631376   -7.1893090  
C   -4.4429133   -0.1836775   -8.1602578  
O   -5.3018620   -0.8420825   -8.9919566  
C   -3.0484227   -0.3778199   -8.3035141  
O   -2.7100042   -1.2518350   -9.3158946  
C   -2.1353205    0.2615540   -7.4911278  
H   -0.9420090    2.0496678   -5.3037109  
H   -5.1129532    2.5211443   -5.0162999  
H   -6.0102300    0.7969081   -7.0966254  
H   -4.7544727   -1.3726542   -9.5853567  
H   -1.7512911   -1.3267596   -9.3452056  
H   -2.9552500    3.2680236   -3.9879387  
C    2.5528530    2.1414826    2.8079335  
C    2.0663498    1.7338582    4.0032312  
C    0.9804344    0.8229586    3.6752840  
C    0.9495562    0.7966882    2.1971295  
N    1.8690446    1.5676019    1.6831036  
C    0.0000000    0.0000000    1.4700000  
C   -0.8785127   -0.7372425    2.1869543  
O   -1.8187535   -1.5261249    1.6395491  
C   -0.8723269   -0.7321790    3.6796354  
O   -1.7010379   -1.4274584    4.2670412  
C    0.1115397    0.0933559    4.4024240  
H    2.4028853    2.0163452    4.9860947  
H   -2.2861435   -1.9184361    2.3990168  
H    0.0832434    0.0693689    5.4835595  
H    3.3664920    2.8238276    2.6198634  
