64

C    8.1074188    0.0312211   -1.0614715  
C    8.4308210    0.0306319    0.2756443  
C    9.8546901    0.0426619    0.3596292  
C   10.3499661    0.0505564   -0.9694927  
N    9.2626761    0.0413622   -1.8075458  
C   11.7159126    0.0634350   -1.2675071  
C   12.5979461    0.0687421   -0.2044139  
O   13.9425573    0.0816284   -0.4386559  
C   12.1231305    0.0606473    1.1287412  
O   13.1260862    0.0669758    2.0760451  
C   10.7757313    0.0476682    1.4234812  
H    7.7270566    0.0214234    1.0902751  
H    9.3029638    0.0545082   -2.8106335  
H   12.0998014    0.0693589   -2.2783464  
H   14.3705847    0.0829997    0.4274016  
H   12.7205076    0.0608508    2.9484398  
H   10.4419015    0.0415267    2.4544983  
C    5.5764485    0.0082717   -1.0736981  
C    6.7920324    0.0210387   -1.7176388  
C    6.5213451    0.0206190   -3.1181130  
C    5.1110777    0.0075046   -3.2694402  
N    4.5679461   -0.0016854   -2.0086701  
C    4.4845816    0.0037915   -4.5193514  
C    5.2965308    0.0138010   -5.6368558  
O    4.7370949    0.0110807   -6.8818609  
C    6.7056518    0.0265710   -5.5063510  
O    7.3755167    0.0350354   -6.7123995  
C    7.3243927    0.0299677   -4.2736002  
H    3.4102466   -0.0063309   -4.6414310  
H    5.4703979    0.0190335   -7.5107242  
H    8.3210797    0.0434622   -6.5350732  
H    8.4059103    0.0396466   -4.2050110  
H    5.3490389    0.0040348   -0.0214503  
C    3.1301149   -0.0010311   -1.7028252  
C    2.5367768   -0.0002767   -0.4864665  
C    1.1089904    0.0001028   -0.7656183  
C    1.0177872   -0.0004148   -2.2415132  
N    2.1993578   -0.0011611   -2.7963820  
C   -0.2459209   -0.0002877   -2.9257118  
C   -1.3675319   -0.0000605   -2.1698524  
O   -2.6129313    0.0000867   -2.6748490  
C   -1.3083584    0.0000910   -0.6783232  
O   -2.3693261    0.0004206   -0.0541692  
C    0.0000000    0.0000000    0.0000000  
H    3.0096017   -0.0001007    0.4807525  
H   -0.2829630   -0.0004687   -4.0053125  
H   -3.1967441    0.0002094   -1.8949034  
C    0.0000000    0.0000000    1.4700000  
C    1.0521667    0.0011902    2.3562342  
C    0.4917218    0.0011957    3.6679131  
C   -0.9187428   -0.0003148    3.5178682  
N   -1.1833171    0.0009411    2.1707914  
C   -1.7951701   -0.0010350    4.6072090  
C   -1.2375837   -0.0005224    5.8710424  
O   -2.0474215   -0.0015360    6.9697579  
C    0.1673580    0.0013566    6.0411963  
O    0.5673524    0.0020687    7.3615553  
C    1.0325770    0.0023412    4.9669890  
H    2.0953057    0.0030649    2.0900562  
H   -2.0989778   -0.0102372    1.7591824  
H   -2.8710934   -0.0020419    4.4995513  
H   -1.4634884   -0.0006497    7.7393593  
H    1.5290710    0.0033153    7.3880045  
H    2.1042148    0.0039609    5.1284455  
