62

C    0.0000000    0.0000000    0.0000000  
C    0.7161582    0.7708264   -0.8862346  
C    0.3351591    0.3598042   -2.1979133  
C   -0.6248125   -0.6735721   -2.0478680  
N   -0.8037548   -0.8684587   -0.7007909  
C   -1.2211550   -1.3158350   -3.1372086  
C   -0.8417204   -0.9072625   -4.4010424  
O   -1.3930090   -1.5004907   -5.4997571  
C    0.1147669    0.1218130   -4.5711966  
O    0.3872139    0.4146758   -5.8915555  
C    0.7036837    0.7556762   -3.4969895  
H    1.4266810    1.5345665   -0.6200570  
H   -1.4344378   -1.5323841   -0.2891820  
H   -1.9533290   -2.1042084   -3.0295504  
H   -0.9953892   -1.0728501   -6.2693589  
H    1.0419248    1.1191314   -5.9180051  
C    4.4678147    1.7097850   -1.4465424  
C    4.8456965    2.7981262   -2.1654262  
C    3.8269733    3.0168504   -3.1650256  
C    2.8173639    1.9591569   -2.9681412  
N    3.2650980    1.2000144   -1.9116725  
C    1.6934786    1.8202155   -3.7159930  
C    1.4629351    2.7760666   -4.7863826  
O    0.4805698    2.7354962   -5.5155011  
C    2.5191224    3.9043025   -5.0130032  
O    2.3359316    4.7146442   -5.9113624  
C    3.6907669    3.9513943   -4.1418640  
H    4.4172311    4.7357963   -4.3052256  
H    4.9668776    1.2371155   -0.6162355  
H    2.7901917    0.4001999   -1.5350985  
C    6.0633189    3.5949206   -1.9570662  
C    7.0313404    3.4106397   -1.0294053  
C    7.9915370    4.4762026   -1.2725068  
C    7.4302486    5.2304550   -2.4138407  
N    6.2999771    4.7185758   -2.8193698  
C    8.0934169    6.3793117   -2.9664916  
C    9.2639019    6.7577103   -2.4042513  
O    9.9897312    7.8102762   -2.8181572  
C    9.8558897    6.0172827   -1.2512213  
O   10.9243730    6.4178838   -0.7896121  
C    9.1564847    4.8419460   -0.7022786  
H    7.0868973    2.6460994   -0.2734505  
H    7.6605124    6.9115021   -3.8009236  
H   10.7639626    7.8254215   -2.2269810  
H    9.6182234    4.3330853    0.1332379  
C    3.3041272   -0.0001177    3.0120429  
C    2.5845372    0.0004780    1.8395852  
C    1.2040006    0.0000008    2.1983588  
C    1.1422373   -0.0006037    3.6154372  
N    2.4348639   -0.0026109    4.0777464  
C   -0.0655181   -0.0008797    4.3197917  
C   -1.2321768   -0.0002324    3.5801400  
O   -2.4392816   -0.0001146    4.2172520  
C   -1.1911209    0.0000007    2.1655264  
O   -2.4371527    0.0002320    1.5732860  
C    0.0000000    0.0000000    1.4700000  
H    3.0031534    0.0000661    0.8477417  
H    2.7054629    0.0071099    5.0445261  
H   -0.1193549   -0.0014844    5.3997470  
H   -3.1132988    0.0000648    3.5251786  
H   -2.3200282    0.0004071    0.6183591  
H    4.3686625   -0.0004071    3.1724291  
