62

C    4.0834644    0.0818328   -8.1639979  
C    5.1026441   -0.5671987   -8.8216450  
C    5.0371954   -0.1668371  -10.1891330  
C    3.9489480    0.7352329  -10.3070866  
N    3.3905644    0.8624922   -9.0594362  
C    3.5893857    1.3321454  -11.5191916  
C    4.3423037    1.0128375  -12.6324455  
O    4.0349560    1.5675126  -13.8411175  
C    5.4316050    0.1146527  -12.5349580  
O    6.0823395   -0.1018830  -13.7320375  
C    5.7867234   -0.4747986  -11.3395644  
H    5.8059885   -1.2465825   -8.3713807  
H    2.6061637    1.4462071   -8.8314601  
H    2.7609859    2.0203568  -11.6157422  
H    4.6748473    1.2157253  -14.4736113  
H    6.8039031   -0.7194660  -13.5786067  
H    6.6259715   -1.1590648  -11.2957369  
C    5.7490607   -2.1284786   -4.7144778  
C    4.8671665   -1.6645342   -3.7660657  
C    3.9696975   -0.7771949   -4.4307298  
C    4.3561282   -0.7391884   -5.7949702  
N    5.4407941   -1.5693622   -5.9325542  
C    3.6896895    0.0363916   -6.7484506  
C    2.6133592    0.7870479   -6.3169351  
O    1.9266964    1.5620108   -7.2062837  
C    2.2128025    0.7626344   -4.9598146  
O    1.1236815    1.5644119   -4.6872123  
C    2.8699641   -0.0020530   -4.0185824  
H    4.8709993   -1.9318255   -2.7232165  
H    5.9263183   -1.7522465   -6.7920894  
H    1.2244406    1.9962425   -6.7047427  
H    0.9184891    1.4904381   -3.7501808  
H    6.5744613   -2.8128719   -4.6181474  
C    3.2573670   -0.0002921   -1.5109382  
C    2.5379468   -0.0001711   -0.3591962  
C    1.1435043    0.0000330   -0.7338498  
C    1.1092608   -0.0000085   -2.2088474  
N    2.4227562    0.0001906   -2.6182610  
C   -0.0265533   -0.0002525   -2.9515663  
C   -1.3003033   -0.0002641   -2.2514979  
O   -2.3786785   -0.0004132   -2.8306425  
C   -1.2877724    0.0000310   -0.6895608  
O   -2.3539956    0.0003306   -0.0892035  
C    0.0000000    0.0000000    0.0000000  
H    2.9384091   -0.0000370    0.6389240  
H   -0.0296290   -0.0004088   -4.0327231  
H    4.3270394   -0.0004767   -1.6439445  
C    2.4951002    2.0940188    2.9809380  
C    1.9440701    1.6314916    1.8291961  
C    0.8759964    0.7350050    2.2038498  
C    0.8497377    0.7130254    3.6788474  
N    1.8560616    1.5571714    4.0882609  
C   -0.0205033   -0.0168748    4.4215661  
C   -0.9962600   -0.8356168    3.7214979  
O   -1.8224391   -1.5286685    4.3006425  
C   -0.9864710   -0.8277881    2.1595606  
O   -1.8030528   -1.5133726    1.5592035  
C    0.0000000    0.0000000    1.4700000  
H    2.2509283    1.8888011    0.8310761  
H   -0.0229599   -0.0187323    5.5027230  
H    3.3143982    2.7817323    3.1139444  
H    2.0889452    1.7545833    5.0442112  
