62

C    9.6357767   -0.7105581    1.4300947  
C   10.9885659   -0.4606966    1.4310289  
C   11.2450464    0.4470421    0.3610623  
C   10.0001086    0.7179891   -0.2623502  
N    9.0444194   -0.0023487    0.4102494  
C    9.8742679    1.5765519   -1.3586271  
C   11.0261270    2.1726873   -1.8340467  
O   10.9602628    3.0200765   -2.9020380  
C   12.2775795    1.9145946   -1.2257117  
O   13.3305337    2.5835046   -1.8149391  
C   12.4025081    1.0675027   -0.1443447  
H   11.7028291   -0.8818391    2.1176577  
H    8.9283551    1.7870909   -1.8383399  
H   11.8631975    3.3207222   -3.0681326  
H   14.1378720    2.3543085   -1.3445374  
H   13.3744412    0.8889836    0.3005744  
H    9.0461459   -1.3390331    2.0753177  
C    6.5698745   -0.0006427    0.9721610  
C    7.6069601   -0.0018567    0.1026609  
C    6.9912940   -0.0024305   -1.2154645  
C    5.5370519   -0.0015107   -0.9475763  
N    5.2839240   -0.0003802    0.3330154  
C    4.5679461   -0.0016854   -2.0086701  
C    5.0305955   -0.0023425   -3.2796106  
O    4.2398095   -0.0025848   -4.3662099  
C    6.4922745   -0.0029069   -3.5823559  
O    6.8417597   -0.0036175   -4.7626441  
C    7.4664605   -0.0027580   -2.4765142  
H    4.8556974   -0.0030412   -5.1210838  
H    8.5162193   -0.0030654   -2.7377360  
H    6.6068538    0.0001032    2.0499390  
C    3.1301149   -0.0010311   -1.7028252  
C    2.5367768   -0.0002767   -0.4864665  
C    1.1089904    0.0001028   -0.7656183  
C    1.0177872   -0.0004148   -2.2415132  
N    2.1993578   -0.0011611   -2.7963820  
C   -0.2459209   -0.0002877   -2.9257118  
C   -1.3675319   -0.0000605   -2.1698524  
O   -2.6129313    0.0000867   -2.6748490  
C   -1.3083584    0.0000910   -0.6783232  
O   -2.3693261    0.0004206   -0.0541692  
C    0.0000000    0.0000000    0.0000000  
H    3.0096017   -0.0001007    0.4807525  
H   -0.2829630   -0.0004687   -4.0053125  
H   -3.1967441    0.0002094   -1.8949034  
C    0.0000000    0.0000000    1.4700000  
C    1.0521667    0.0011902    2.3562342  
C    0.4917218    0.0011957    3.6679131  
C   -0.9187428   -0.0003148    3.5178682  
N   -1.1833171    0.0009411    2.1707914  
C   -1.7951701   -0.0010350    4.6072090  
C   -1.2375837   -0.0005224    5.8710424  
O   -2.0474215   -0.0015360    6.9697579  
C    0.1673580    0.0013566    6.0411963  
O    0.5673524    0.0020687    7.3615553  
C    1.0325770    0.0023412    4.9669890  
H    2.0953057    0.0030649    2.0900562  
H   -2.0989778   -0.0102372    1.7591824  
H   -2.8710934   -0.0020419    4.4995513  
H   -1.4634884   -0.0006497    7.7393593  
H    1.5290710    0.0033153    7.3880045  
H    2.1042148    0.0039609    5.1284455  
