60

C    5.1833133   -2.3716619   -4.7377139  
C    4.8041502   -1.0679545   -4.9591845  
C    5.8746265   -0.4361326   -5.6588140  
C    6.8881884   -1.4121089   -5.8379464  
N    6.4369440   -2.5752991   -5.2652475  
C    8.0937086   -1.1393387   -6.4914813  
C    8.2792996    0.1419342   -6.9732206  
O    9.4379329    0.4623863   -7.6196662  
C    7.2799349    1.1295758   -6.8039567  
O    7.6145983    2.3563866   -7.3390064  
C    6.0905297    0.8612615   -6.1590930  
H    6.9378079   -3.4452173   -5.2463065  
H    8.8702374   -1.8787349   -6.6311173  
H    9.3627986    1.3924729   -7.8697821  
H    6.8866702    2.9655148   -7.1818828  
H    5.3437432    1.6381918   -6.0443484  
H    4.6592941   -3.1719986   -4.2439283  
C    2.8912669   -0.6998116   -3.3332350  
C    1.7334695    0.0049281   -3.2500363  
C    1.6041098    0.7488997   -4.4807302  
C    2.7899379    0.4174237   -5.2935811  
N    3.5303610   -0.4649347   -4.5411804  
C    3.0393018    0.9187047   -6.5298007  
C    2.0755503    1.8468030   -7.0975613  
O    2.2101243    2.3528611   -8.2039495  
C    0.8125763    2.2121887   -6.2542377  
O   -0.0056409    2.9927353   -6.7217077  
C    0.6534232    1.6072170   -4.9341878  
H    3.9152830    0.6624806   -7.1093831  
H   -0.2239005    1.8652503   -4.3567400  
H    3.3315067   -1.3708305   -2.6136436  
C    1.1319246    0.0015678   -0.8009268  
C    0.7969914    0.0034958   -2.1169401  
C   -0.6453340    0.0035696   -2.1842669  
C   -1.1266832    0.0015410   -0.7896025  
N    0.0000000    0.0000000    0.0000000  
C   -2.4346129    0.0013913   -0.4276292  
C   -3.4350111    0.0031335   -1.4820181  
O   -4.6384614    0.0030875   -1.2583914  
C   -2.9478961    0.0050442   -2.9661074  
O   -3.7809382    0.0062135   -3.8623773  
C   -1.5113825    0.0053055   -3.2312122  
H   -2.7664565    0.0000174    0.6013448  
H   -1.1823533    0.0068381   -4.2614848  
H    2.1104316    0.0009435   -0.3488059  
C    2.4951002    2.0940188    2.9809380  
C    1.9440701    1.6314916    1.8291961  
C    0.8759964    0.7350050    2.2038498  
C    0.8497377    0.7130254    3.6788474  
N    1.8560616    1.5571714    4.0882609  
C   -0.0205033   -0.0168748    4.4215661  
C   -0.9962600   -0.8356168    3.7214979  
O   -1.8224391   -1.5286685    4.3006425  
C   -0.9864710   -0.8277881    2.1595606  
O   -1.8030528   -1.5133726    1.5592035  
C    0.0000000    0.0000000    1.4700000  
H    2.2509283    1.8888011    0.8310761  
H   -0.0229599   -0.0187323    5.5027230  
H    3.3143982    2.7817323    3.1139444  
H    2.0889452    1.7545833    5.0442112  
