60

C   -6.6930520    0.0002333   -0.0208355  
C   -5.7235516   -0.0003140    0.9551440  
C   -6.3980187   -0.0005590    2.2120030  
C   -7.7896408   -0.0004246    1.9375676  
N   -7.9338092    0.0020094    0.5723476  
C   -8.7591467   -0.0009023    2.9449645  
C   -8.3157406   -0.0018341    4.2532337  
O   -9.2197494   -0.0026844    5.2758669  
C   -6.9314015   -0.0016071    4.5472089  
O   -6.6499763   -0.0022039    5.8978171  
C   -5.9743999   -0.0008627    3.5538941  
H   -4.6609288    0.0005930    0.7824457  
H   -8.8094069   -0.0078939    0.0812141  
H   -9.8212988   -0.0006590    2.7423928  
H   -8.7063073   -0.0029455    6.0941831  
H   -5.6943832   -0.0020289    6.0093804  
H   -4.9212835   -0.0005240    3.8096732  
C   -3.2941076    0.0012874   -2.9038237  
C   -3.9928922    0.0012412   -1.7448244  
C   -5.3903272    0.0018076   -2.1493928  
C   -5.3503943    0.0022631   -3.6275636  
N   -4.1243042    0.0018802   -4.0755523  
C   -6.5485052    0.0028438   -4.4210470  
C   -7.7326800    0.0025751   -3.7675455  
O   -8.9284331    0.0030579   -4.3809097  
C   -7.8059026    0.0017434   -2.2766403  
O   -8.9180023    0.0016636   -1.7489529  
C   -6.5627960    0.0012025   -1.4850532  
H   -3.6076317    0.0007784   -0.7395137  
H   -6.4897385    0.0033747   -5.4996831  
H   -9.5790599    0.0026676   -3.6557628  
C    0.0000000    0.0000000    0.0000000  
C    1.0541688   -0.0001722   -0.8560393  
C    0.5103135   -0.0000454   -2.1935957  
C   -0.9576374    0.0002459   -2.0455730  
N   -1.2018460   -0.0001391   -0.6915968  
C   -1.8348314    0.0008317   -3.0810607  
C   -1.2972851    0.0009737   -4.4314604  
O   -2.0050676    0.0014265   -5.4301315  
C    0.2542619    0.0004184   -4.6117571  
O    0.7184666    0.0002257   -5.7439121  
C    1.0974550    0.0000874   -3.4189130  
H    2.0940752   -0.0005483   -0.5817984  
H    2.1707276   -0.0000911   -3.5523671  
H   -2.1128194    0.0014912   -0.2706789  
C    3.2798086   -0.0005857    2.9199648  
C    2.5571146   -0.0005566    4.0696553  
C    1.1637436   -0.0001548    3.6910360  
C    1.1336965    0.0000200    2.2159470  
N    2.4483514    0.0001428    1.8102719  
C    0.0000000    0.0000000    1.4700000  
C   -1.2757367    0.0000186    2.1664417  
O   -2.3524596    0.0000640    1.5842315  
C   -1.2676493    0.0000873    3.7284083  
O   -2.3355761    0.0004100    4.3257297  
C    0.0181563   -0.0001760    4.4216297  
H    2.9547357   -0.0006076    5.0689105  
H    0.0150794   -0.0003319    5.5031631  
H    4.3498549   -0.0008612    2.7900019  
H    2.7563627   -0.0012824    0.8551938  
