62

C    1.1243397    0.0100587   -0.7919008  
C    0.7474050    0.0234990   -2.1148549  
C   -0.6787407    0.0234097   -2.1414696  
C   -1.1201756    0.0097938   -0.7935543  
N    0.0000000    0.0000000    0.0000000  
C   -2.4730823    0.0062259   -0.4408234  
C   -3.3971976    0.0168991   -1.4675051  
O   -4.7313527    0.0143484   -1.1793462  
C   -2.9763681    0.0301765   -2.8186315  
O   -4.0166513    0.0392766   -3.7247609  
C   -1.6418599    0.0334306   -3.1673478  
H   -2.8160163   -0.0042766    0.5845976  
H   -5.1938847    0.0227821   -2.0274361  
H   -3.6464721    0.0480164   -4.6127334  
H   -1.3497514    0.0435084   -4.2109230  
H    2.1062457    0.0054059   -0.3505416  
C    2.8410155   -0.6914087   -3.3574595  
C    3.4607952   -0.4638597   -4.5441225  
C    2.6381572    0.4698018   -5.2765010  
C    1.4800223    0.7697157   -4.4130397  
N    1.6628915    0.0339888   -3.2649308  
C    0.4704761    1.6131951   -4.7463023  
C    0.5283133    2.2692638   -6.0419736  
O   -0.3323904    3.0462149   -6.4341923  
C    1.7455370    1.9661678   -6.9727280  
O    1.8049353    2.5123990   -8.0660552  
C    2.7718921    1.0388940   -6.5030354  
H    4.3882980   -0.9003973   -4.8693730  
H   -0.3699633    1.8194938   -4.0982191  
H    3.1456979   -1.3281646   -2.5428425  
C    4.8503175   -2.7042885   -7.3131153  
C    5.7973721   -2.3182566   -8.1994819  
C    5.5859281   -0.8897427   -8.3759437  
C    4.4397904   -0.5713182   -7.4975603  
N    4.0043827   -1.6310202   -6.8719071  
C    3.9131114    0.7611495   -7.3869900  
C    4.5047833    1.7314788   -8.1202841  
O    4.1172663    3.0182723   -8.1145788  
C    5.6634285    1.4417598   -9.0156981  
O    6.1524537    2.3737508   -9.6540308  
C    6.1853399    0.0668848   -9.1118781  
H    6.5469393   -2.9276133   -8.6747828  
H    4.7255705    3.4631463   -8.7319973  
H    7.0259199   -0.1015867   -9.7716320  
H    4.6720579   -3.6925411   -6.9199824  
C    0.8676693    0.7151171    2.2619005  
C    0.5875920    0.4624972    3.5848544  
C   -0.5048400   -0.4542819    3.6114698  
C   -0.8517165   -0.7276451    2.2635546  
N    0.0000000    0.0000000    1.4700000  
C   -1.8902865   -1.5946756    1.9108239  
C   -2.5912627   -2.1969500    2.9375057  
O   -3.6148162   -3.0527051    2.6493466  
C   -2.2603868   -1.9365747    4.2886322  
O   -3.0513550   -2.6123276    5.1947621  
C   -1.2361111   -1.0811317    4.6373480  
H    1.1060808    0.8876438    4.4271209  
H   -2.1597133   -1.8070987    0.8854031  
H   -3.9636755   -3.3565188    3.4974381  
H   -2.7621927   -2.3810384    6.0827341  
H   -1.0058879   -0.9010589    5.6809233  
H    1.6167816    1.3499334    1.8205408  
