60

C    5.2168938   -4.3735712   -8.5113840  
C    5.9725683   -5.0045222   -7.5504866  
C    5.4725940   -4.5813881   -6.2833707  
C    4.4026899   -3.6851394   -6.5362927  
N    4.2753546   -3.5798496   -7.8991267  
C    3.6731335   -3.0706763   -5.5140544  
C    4.0299455   -3.3665925   -4.2127868  
O    3.3505405   -2.7946104   -3.1763225  
C    5.0947657   -4.2580408   -3.9402151  
O    5.3282522   -4.4499800   -2.5941148  
C    5.8151020   -4.8643780   -4.9481817  
H    6.7850191   -5.6850846   -7.7395681  
H    3.5914629   -3.0210694   -8.3766595  
H    3.7548309   -3.1311242   -2.3660309  
H    6.0620632   -5.0645987   -2.4973158  
H    6.6256894   -5.5426619   -4.7086898  
H    5.2759617   -4.4258154   -9.5850417  
C    2.5632298   -2.1406387   -5.7671242  
C    2.0732861   -1.7328921   -6.9609742  
C    0.9882146   -0.8221516   -6.6298070  
C    0.9615393   -0.7960978   -5.1515671  
N    1.8825654   -1.5669908   -4.6402708  
C    0.0139741    0.0003876   -4.4216236  
C   -0.8666506    0.7376431   -5.1359692  
O   -1.8054112    1.5263499   -4.5857773  
C   -0.8647112    0.7327957   -6.6286625  
O   -1.6951612    1.4280743   -7.2136077  
C    0.1171797   -0.0925334   -7.3543666  
H    2.4070530   -2.0152026   -7.9448323  
H   -2.2750004    1.9187226   -5.3438555  
H    0.0858053   -0.0683935   -8.4354135  
C    3.2798085    0.0005853   -1.4499648  
C    2.5571144    0.0005562   -2.5996554  
C    1.1637436    0.0001546   -2.2210360  
C    1.1336965   -0.0000201   -0.7459470  
N    2.4483513   -0.0001430   -0.3402717  
C    0.0000000    0.0000000    0.0000000  
C   -1.2757367   -0.0000188   -0.6964414  
O   -2.3524597   -0.0000640   -0.1142313  
C   -1.2676494   -0.0000875   -2.2584081  
O   -2.3355762   -0.0004102   -2.8557294  
C    0.0181562    0.0001757   -2.9516296  
H    2.9547357    0.0006072   -3.5989105  
H    4.3498550    0.0008609   -1.3200021  
H    2.7563627    0.0012824    0.6148063  
C    2.5528530    2.1414826    2.8079335  
C    2.0663498    1.7338582    4.0032312  
C    0.9804344    0.8229586    3.6752840  
C    0.9495562    0.7966882    2.1971295  
N    1.8690446    1.5676019    1.6831036  
C    0.0000000    0.0000000    1.4700000  
C   -0.8785127   -0.7372425    2.1869543  
O   -1.8187535   -1.5261249    1.6395491  
C   -0.8723269   -0.7321790    3.6796354  
O   -1.7010379   -1.4274584    4.2670412  
C    0.1115397    0.0933559    4.4024240  
H    2.4028853    2.0163452    4.9860947  
H   -2.2861435   -1.9184361    2.3990168  
H    0.0832434    0.0693689    5.4835595  
H    3.3664920    2.8238276    2.6198634  
