60

C    4.8298522   -1.1036128   -4.9087183  
C    5.6500351   -1.9890702   -4.2486184  
C    6.7605372   -2.2464788   -5.1060133  
C    6.5616376   -1.4835204   -6.2851060  
N    5.3791698   -0.8028685   -6.1331169  
C    7.4640225   -1.4926253   -7.3530043  
C    8.5878166   -2.2861573   -7.2282184  
O    9.5017596   -2.3319382   -8.2409505  
C    8.8037098   -3.0548683   -6.0597622  
O    9.9686899   -3.7933714   -6.0876397  
C    7.9137732   -3.0465808   -5.0059736  
H    5.4695226   -2.3998677   -3.2700210  
H    4.9824681   -0.1714183   -6.8053364  
H    7.3181257   -0.9135174   -8.2544200  
H   10.1978366   -2.9369734   -7.9534190  
H   10.0383821   -4.2827732   -5.2622710  
H    8.1058355   -3.6460033   -4.1237709  
C    2.9127944   -0.7214797   -3.3153362  
C    3.5543783   -0.5031937   -4.4921099  
C    2.7457297    0.4250582   -5.2466109  
C    1.5720421    0.7318925   -4.4069087  
N    1.7334695    0.0049281   -3.2500363  
C    0.5691430    1.5730721   -4.7651197  
C    0.6510615    2.2191848   -6.0644901  
O   -0.2019644    2.9933463   -6.4784003  
C    1.8850639    1.9086368   -6.9703614  
O    1.9647776    2.4464642   -8.0665592  
C    2.9022259    0.9847054   -6.4747973  
H   -0.2829824    1.7845577   -4.1341953  
H    3.7535956    0.7751533   -7.1080283  
H    3.2021854   -1.3520628   -2.4904076  
C    1.1319246    0.0015678   -0.8009268  
C    0.7969914    0.0034958   -2.1169401  
C   -0.6453340    0.0035696   -2.1842669  
C   -1.1266832    0.0015410   -0.7896025  
N    0.0000000    0.0000000    0.0000000  
C   -2.4346129    0.0013913   -0.4276292  
C   -3.4350111    0.0031335   -1.4820181  
O   -4.6384614    0.0030875   -1.2583914  
C   -2.9478961    0.0050442   -2.9661074  
O   -3.7809382    0.0062135   -3.8623773  
C   -1.5113825    0.0053055   -3.2312122  
H   -2.7664565    0.0000174    0.6013448  
H   -1.1823533    0.0068381   -4.2614848  
H    2.1104316    0.0009435   -0.3488059  
C    0.0000000    0.0000000    1.4700000  
C    1.0541688    0.0001722    2.3260392  
C    0.5103138    0.0000454    3.6635956  
C   -0.9576371   -0.0002459    3.5155732  
N   -1.2018458    0.0001392    2.1615969  
C   -1.8348311   -0.0008317    4.5510609  
C   -1.2972847   -0.0009736    5.9014604  
O   -2.0050672   -0.0014265    6.9001319  
C    0.2542623   -0.0004184    6.0817573  
O    0.7184670   -0.0002256    7.2139121  
C    1.0974552   -0.0000873    4.8889129  
H    2.0940752    0.0005483    2.0517982  
H   -2.9081052   -0.0011668    4.4207061  
H    2.1707277    0.0000911    5.0223670  
H   -2.1128194   -0.0014912    1.7406791  
