64

C    2.3028670   -2.1229283   -5.9144801  
C    1.6515880   -1.6243313   -7.0188822  
C    0.6310838   -0.7498517   -6.5409113  
C    0.7086130   -0.7546005   -5.1246157  
N    1.7329569   -1.6000169   -4.7773282  
C   -0.1496417   -0.0015612   -4.3176960  
C   -1.1033417    0.7705688   -4.9520852  
O   -1.9667784    1.5255766   -4.2121835  
C   -1.1966689    0.7882458   -6.3641033  
O   -2.1981099    1.6064257   -6.8447694  
C   -0.3504871    0.0453959   -7.1607690  
H    1.8827975   -1.8625537   -8.0429848  
H    2.0306273   -1.7961914   -3.8387715  
H   -2.5412361    1.9797186   -4.8422778  
H   -2.1929768    1.5609928   -7.8057658  
H    3.1279011   -2.8112910   -5.8478997  
C    3.3003542    0.0005276   -1.4738986  
C    2.5232811    0.0003500   -2.6090752  
C    1.1623199   -0.0001317   -2.1820104  
C    1.1711882    0.0000584   -0.7636142  
N    2.4852299   -0.0014918   -0.3662358  
C    0.0000000    0.0000000    0.0000000  
C   -1.2020385    0.0000521   -0.6806478  
O   -2.3759251    0.0003494    0.0157744  
C   -1.2314659   -0.0005113   -2.0955510  
O   -2.5054393   -0.0008037   -2.6250178  
C   -0.0764518   -0.0007272   -2.8495196  
H    2.8919952   -0.0005617   -3.6205304  
H    2.8036265    0.0088183    0.5858661  
H   -3.0835642    0.0000346   -0.6418816  
H   -2.4360051   -0.0011527   -3.5845921  
H    4.3715548    0.0004899   -1.3667135  
C   -0.0445582   -3.1113758  -10.2429889  
C   -0.2778853   -2.3114497  -11.3375864  
C   -0.4736986   -0.9853533  -10.8500159  
C   -0.3469025   -1.0380114   -9.4382525  
N   -0.0884070   -2.3438390   -9.1026765  
C   -0.4801292    0.0909586   -8.6243319  
C   -0.7459015    1.2950745   -9.2469455  
O   -0.8851669    2.4288447   -8.4998281  
C   -0.8762755    1.3677928  -10.6542597  
O   -1.1413686    2.6379592  -11.1230311  
C   -0.7452364    0.2543942  -11.4578130  
H   -0.3048562   -2.6431361  -12.3614271  
H    0.0601892   -2.6849070   -8.1701669  
H   -1.0646275    3.1456109   -9.1221667  
H   -1.2144501    2.5993051  -12.0815549  
H   -0.8505356    0.3409394  -12.5329406  
H    0.1482528   -4.1689480  -10.1853349  
C    2.5528530    2.1414826    2.8079335  
C    2.0663498    1.7338582    4.0032312  
C    0.9804344    0.8229586    3.6752840  
C    0.9495562    0.7966882    2.1971295  
N    1.8690446    1.5676019    1.6831036  
C    0.0000000    0.0000000    1.4700000  
C   -0.8785127   -0.7372425    2.1869543  
O   -1.8187535   -1.5261249    1.6395491  
C   -0.8723269   -0.7321790    3.6796354  
O   -1.7010379   -1.4274584    4.2670412  
C    0.1115397    0.0933559    4.4024240  
H    2.4028853    2.0163452    4.9860947  
H   -2.2861435   -1.9184361    2.3990168  
H    0.0832434    0.0693689    5.4835595  
H    3.3664920    2.8238276    2.6198634  
