62

C    8.4071617   -3.0251676   -4.6783875  
C    7.2227541   -2.3429832   -4.5226019  
C    7.4860586   -0.9756163   -4.8317596  
C    8.8598338   -0.8830171   -5.1724866  
N    9.3897737   -2.1450404   -5.0672306  
C    9.4697198    0.3219226   -5.5343525  
C    8.6783040    1.4539538   -5.5528835  
O    9.2227789    2.6566811   -5.8993046  
C    7.3057268    1.3818625   -5.2157636  
O    6.6527767    2.5954115   -5.2813295  
C    6.7034526    0.1935463   -4.8584154  
H    6.2846702   -2.7772525   -4.2219322  
H   10.3440945   -2.3915400   -5.2582560  
H   10.5162870    0.3991801   -5.7949891  
H    8.5082451    3.3048073   -5.8479452  
H    5.7317623    2.4587113   -5.0391537  
H    8.6290967   -4.0696621   -4.5415114  
C    4.6171595   -2.0114327   -1.7322444  
C    3.3328193   -1.6298289   -1.9231036  
C    3.3780282   -0.7112571   -3.0503489  
C    4.8069992   -0.6523616   -3.4260571  
N    5.5382134   -1.4125184   -2.6569815  
C    5.2745454    0.1606803   -4.5148406  
C    4.3562407    0.8817945   -5.1975154  
O    4.6514314    1.6829997   -6.2352884  
C    2.9068165    0.8432089   -4.8427747  
O    2.1270270    1.5254609   -5.5073660  
C    2.4521483    0.0014840   -3.7217481  
H    2.4622564   -1.9341723   -1.3676121  
H    3.7953895    2.0581840   -6.5102098  
H    5.0049135   -2.6900162   -0.9891798  
C    0.0000000    0.0000000    0.0000000  
C    1.0662923   -0.0000101   -0.8334270  
C    0.4961873    0.0000065   -2.1718887  
C   -0.9663854   -0.0000848   -1.9540250  
N   -1.2632773   -0.0000083   -0.6828660  
C   -1.8985359   -0.0000514   -3.0477261  
C   -1.3925770    0.0004566   -4.3020547  
O   -2.1456378    0.0005414   -5.4151314  
C    0.0786240    0.0009326   -4.5545000  
O    0.4683767    0.0012591   -5.7221100  
C    1.0143171    0.0008444   -3.4159031  
H    2.1107200    0.0000633   -0.5721865  
H   -2.9622181   -0.0003268   -2.8593381  
H   -1.5042265    0.0009697   -6.1484419  
C    3.3003543   -0.0005276    2.9438989  
C    2.5232812   -0.0003497    4.0790748  
C    1.1623199    0.0001319    3.6520102  
C    1.1711883   -0.0000583    2.2336141  
N    2.4852299    0.0014920    1.8362361  
C    0.0000000    0.0000000    1.4700000  
C   -1.2020384   -0.0000520    2.1506477  
O   -2.3759250   -0.0003494    1.4542253  
C   -1.2314658    0.0005113    3.5655508  
O   -2.5054393    0.0008037    4.0950179  
C   -0.0764518    0.0007272    4.3195194  
H    2.8919952    0.0005619    5.0905303  
H    2.8036267   -0.0088181    0.8841339  
H   -3.0835639   -0.0000348    2.1118817  
H   -2.4360050    0.0011527    5.0545920  
H   -0.1304098    0.0013421    5.4019087  
H    4.3715549   -0.0004895    2.8367138  
