64

C    9.9592104    0.7075485   -1.5040447  
C   11.2252751    0.4558731   -1.0284328  
C   11.0873958   -0.4539322    0.0614495  
C    9.7024151   -0.7242117    0.2053326  
N    9.0457537   -0.0015086   -0.7596096  
C    9.1975271   -1.5843701    1.1851306  
C   10.1073685   -2.1828169    2.0349702  
O    9.6685863   -3.0318368    3.0094688  
C   11.4931201   -1.9254245    1.9074676  
O   12.2702328   -2.5966964    2.8287899  
C   11.9918912   -1.0767596    0.9412783  
H   12.1360576    0.8771621   -1.4182856  
H    8.1430759   -1.7944119    1.3000966  
H   10.4547601   -3.3339617    3.4826669  
H   13.1917394   -2.3678266    2.6737139  
H   13.0584036   -0.8988289    0.8679833  
H    9.6353806    1.3378537   -2.3144820  
C    6.6264025    0.0033836   -4.4617166  
C    5.3881254    0.0033500   -3.8624359  
C    5.6076651    0.0015729   -2.4530392  
C    7.0115531    0.0008607   -2.2504938  
N    7.6002636    0.0000421   -3.4906695  
C    7.5921590   -0.0005664   -0.9786122  
C    6.7400256   -0.0009805    0.1086071  
O    7.2537887   -0.0020107    1.3731471  
C    5.3365289   -0.0006589   -0.0730884  
O    4.6231718   -0.0015683    1.1077863  
C    4.7630507    0.0004755   -1.3275395  
H    4.4428892    0.0033634   -4.3777240  
H    8.5891809    0.0099810   -3.6636589  
H    6.4980460   -0.0024350    1.9749099  
H    3.6846508   -0.0012501    0.8961678  
H    6.8919807    0.0040809   -5.5049934  
C    3.3003548    0.0005276   -1.4738982  
C    2.5232817    0.0003497   -2.6090743  
C    1.1623204   -0.0001319   -2.1820101  
C    1.1711886    0.0000583   -0.7636140  
N    2.4852302   -0.0014919   -0.3662356  
C    0.0000000    0.0000000    0.0000000  
C   -1.2020379    0.0000520   -0.6806479  
O   -2.3759249    0.0003495    0.0157742  
C   -1.2314652   -0.0005112   -2.0955511  
O   -2.5054384   -0.0008036   -2.6250184  
C   -0.0764510   -0.0007271   -2.8495195  
H    2.8919962   -0.0005619   -3.6205297  
H    2.8036267    0.0088181    0.5858667  
H   -3.0835636    0.0000348   -0.6418823  
H   -2.4360038   -0.0011526   -3.5845925  
H   -0.1304090   -0.0013420   -3.9319089  
C    0.0000000    0.0000000    1.4700000  
C    1.0662921    0.0000102    2.3034270  
C    0.4961870   -0.0000064    3.6418889  
C   -0.9663858    0.0000850    3.4240247  
N   -1.2632773    0.0000084    2.1528658  
C   -1.8985362    0.0000517    4.5177257  
C   -1.3925775   -0.0004564    5.7720543  
O   -2.1456383   -0.0005410    6.8851312  
C    0.0786232   -0.0009323    6.0245000  
O    0.4683759   -0.0012588    7.1921102  
C    1.0143166   -0.0008442    4.8859032  
H    2.1107198   -0.0000632    2.0421868  
H   -2.9622183    0.0003270    4.3293377  
H   -1.5042274   -0.0009692    7.6184419  
H    2.0724152   -0.0013148    5.1109744  
