62

C    2.8499962   -0.6538193   -6.3998169  
C    2.1864102    0.0732519   -7.3608002  
C    3.1734093    0.8073669   -8.0829550  
C    4.4316589    0.4850402   -7.5130080  
N    4.1990382   -0.4030719   -6.4923409  
C    5.6335417    1.0280560   -7.9771208  
C    5.5639904    1.9123374   -9.0360759  
O    6.7073188    2.4717326   -9.5289157  
C    4.3179830    2.2466931   -9.6178737  
O    4.4150142    3.1412970  -10.6636329  
C    3.1318712    1.7115856   -9.1603526  
H    4.9052631   -0.8175298   -5.9114343  
H    6.5957540    0.7865631   -7.5469688  
H    6.4376811    3.0499596  -10.2543215  
H    3.5301164    3.3135691  -10.9996122  
H    2.1926938    1.9866624   -9.6259246  
H    2.4675980   -1.3303273   -5.6547888  
C   -1.2456296    0.0472577   -4.5828766  
C    0.0002605    0.0520443   -5.1230708  
C   -0.1629402    0.0660975   -6.5576450  
C   -1.6164586    0.0691567   -6.8107554  
N   -2.2165808    0.0569155   -5.5727758  
C   -2.1820808    0.0818100   -8.0442937  
C   -1.3004427    0.0929479   -9.1997691  
O   -1.7128467    0.1046495  -10.3521964  
C    0.2422773    0.0896881   -8.9552087  
O    0.9944631    0.0986758   -9.9202983  
C    0.7327431    0.0759273   -7.5793068  
H    0.9277599    0.0461949   -4.5787142  
H   -3.2507684    0.0839639   -8.2080410  
H   -3.2072922    0.0572146   -5.4129706  
C    1.1243418    0.0099155   -0.7919003  
C    0.7474093    0.0234033   -2.1148542  
C   -0.6787365    0.0234953   -2.1414700  
C   -1.1201738    0.0099357   -0.7935546  
N    0.0000000    0.0000000    0.0000000  
C   -2.4730811    0.0065398   -0.4408241  
C   -3.3971945    0.0173300   -1.4675058  
O   -4.7313507    0.0149490   -1.1793472  
C   -2.9763626    0.0305537   -2.8186325  
O   -4.0166449    0.0397860   -3.7247623  
C   -1.6418538    0.0336381   -3.1673481  
H    1.4178738    0.0310004   -2.9571209  
H   -2.8160170   -0.0039189    0.5845965  
H   -5.1938800    0.0234412   -2.0274384  
H   -3.6464643    0.0484782   -4.6127344  
H    2.1062469    0.0051381   -0.3505407  
C    0.8681109    0.7263879    2.2709268  
C    0.6127770    0.5096195    3.5869401  
C   -0.4920590   -0.4175482    3.6542670  
C   -0.8620974   -0.7254003    2.2596025  
N    0.0000000    0.0000000    1.4700000  
C   -1.8641242   -1.5660088    1.8976294  
C   -2.6293522   -2.2103885    2.9520183  
O   -3.5512764   -2.9839180    2.7283916  
C   -2.2549728   -1.8987399    4.4361073  
O   -2.8923672   -2.4351063    5.3323774  
C   -1.1543735   -0.9755647    4.7012123  
H    1.1382914    0.9492124    4.4159191  
H   -2.1192137   -1.7782617    0.8686553  
H   -0.9013378   -0.7652422    5.7314848  
H    1.6172880    1.3558399    1.8188057  
