62

C    1.1188645    0.0008219   -0.8003801  
C    0.0000000    0.0000000    0.0000000  
C   -1.1323858    0.0008903   -0.8673532  
C   -0.6382657    0.0019682   -2.1969279  
N    0.7324024    0.0038480   -2.1202239  
C   -1.4770905    0.0027327   -3.3154810  
C   -2.8395466    0.0020957   -3.0876862  
O   -3.7039187    0.0024444   -4.1440358  
C   -3.3517864    0.0013947   -1.7684340  
O   -4.7300491    0.0012386   -1.7073135  
C   -2.5248541    0.0009133   -0.6644822  
H    1.3576322   -0.0056170   -2.9057038  
H   -4.5940022    0.0021850   -3.7685142  
H   -4.9934602    0.0007281   -0.7819926  
H   -2.9462578    0.0005613    0.3339650  
H    2.1619892    0.0009347   -0.5342060  
C    1.8836773   -2.1362888   -5.0810760  
C    1.8358587   -1.7275861   -6.3703605  
C    0.7030375   -0.8169587   -6.4333925  
C    0.1677643   -0.7920094   -5.0551895  
N    0.8558152   -1.5634005   -4.2579875  
C   -0.9736285    0.0040472   -4.6965764  
C   -1.5536710    0.7419478   -5.6704285  
O   -2.6247557    1.5303591   -5.4774864  
C   -1.0366279    0.7382189   -7.0707186  
O   -1.6142376    1.4340398   -7.9058361  
C    0.1355216   -0.0866888   -7.4135265  
H    2.4887441   -2.0092009   -7.1787595  
H   -2.8038801    1.9233579   -6.3507666  
H    0.4792093   -0.0617345   -8.4389466  
C    2.8381505   -3.0666541   -4.4611556  
C    3.8818064   -3.7257273   -5.0272651  
C    4.4985860   -4.5117898   -3.9849007  
C    3.7231330   -4.2548245   -2.7563108  
N    2.7312406   -3.3703950   -3.1124336  
C    3.9892782   -4.8129304   -1.5482593  
C    5.1147117   -5.7275826   -1.4515850  
O    5.4354129   -6.2811554   -0.4080291  
C    5.9499565   -6.0140835   -2.7400294  
O    6.8999530   -6.7821830   -2.6708134  
C    5.5657542   -5.3527941   -3.9845922  
H    4.1850938   -3.6676995   -6.0574415  
H    3.4078731   -4.6111410   -0.6593508  
H    6.1490770   -5.5566653   -4.8722270  
H    2.0354805   -3.0037776   -2.4890900  
C    2.5311839    2.1237619    3.0120429  
C    1.9795631    1.6616747    1.8395852  
C    0.9223175    0.7739173    2.1983588  
C    0.8753926    0.7337535    3.6154372  
N    1.8668922    1.5631002    4.0777464  
C   -0.0496243   -0.0427881    4.3197917  
C   -0.9437528   -0.7922060    3.5801400  
O   -1.8685244   -1.5680278    4.2172520  
C   -0.9124520   -0.7656372    2.1655264  
O   -1.8671164   -1.5663939    1.5732860  
C    0.0000000    0.0000000    1.4700000  
H    2.3005065    1.9304404    0.8477417  
H    2.0679347    1.7444845    5.0445261  
H   -0.0904770   -0.0778569    5.3997470  
H   -2.3849669   -2.0011402    3.5251786  
H   -1.7775064   -1.4909735    0.6183591  
H    3.3468514    2.8078103    3.1724291  
