64

C    7.6427276   -2.1260171   -3.7021920  
C    8.8841176   -1.6281780   -4.0240222  
C    8.7062481   -0.7532584   -5.1364417  
C    7.3233592   -0.7569696   -5.4519254  
N    6.7068404   -1.6022181   -4.5630628  
C    6.7844971   -0.0032615   -6.4989884  
C    7.6575137    0.7684825   -7.2408980  
O    7.1845067    1.5241102   -8.2744881  
C    9.0406501    0.7851265   -6.9417762  
O    9.7790654    1.6030380   -7.7719001  
C    9.5729864    0.0416167   -5.9091401  
H    9.8047914   -1.8671753   -3.5198066  
H    5.7224655   -1.7977261   -4.5354134  
H    7.9487415    1.9778369   -8.6530917  
H   10.7014611    1.5568961   -7.5023425  
H   10.6365991    0.0744198   -5.7038845  
H    7.3510546   -2.8144016   -2.9275880  
C    3.1006060    0.0006268   -3.9654947  
C    4.4058792   -0.0003210   -4.3999228  
C    4.3701029   -0.0003707   -5.8258685  
C    3.0041050    0.0008646   -6.2079353  
N    2.2602342   -0.0005059   -5.0541279  
C    2.5925325    0.0014702   -7.5441224  
C    3.5778770    0.0011237   -8.5122522  
O    3.2316417    0.0020357   -9.8325294  
C    4.9461776   -0.0004800   -8.1509103  
O    5.8059958   -0.0010533   -9.2298262  
C    5.3529316   -0.0013514   -6.8329291  
H    5.2766925   -0.0020102   -3.7669343  
H    1.2572719    0.0104787   -5.0102251  
H    1.5530432    0.0022673   -7.8418858  
H    4.0587372    0.0012975  -10.3317064  
H    6.7093483   -0.0021156   -8.8988327  
C    3.2798085    0.0005859   -1.4499648  
C    2.5571146    0.0005569   -2.5996553  
C    1.1637437    0.0001551   -2.2210359  
C    1.1336966   -0.0000198   -0.7459471  
N    2.4483513   -0.0001427   -0.3402720  
C    0.0000000    0.0000000    0.0000000  
C   -1.2757366   -0.0000185   -0.6964416  
O   -2.3524595   -0.0000640   -0.1142313  
C   -1.2676493   -0.0000870   -2.2584084  
O   -2.3355759   -0.0004098   -2.8557296  
C    0.0181563    0.0001763   -2.9516295  
H    0.0150795    0.0003323   -4.0331630  
H    4.3498549    0.0008614   -1.3200020  
H    2.7563627    0.0012824    0.6148062  
C    0.8576279    0.7185626    2.2703808  
C    0.0000000    0.0000000    1.4700000  
C   -0.8668858   -0.7285659    2.3373528  
C   -0.4876752   -0.4117774    3.6669281  
N    0.5635254    0.4678311    3.5902241  
C   -1.1297612   -0.9515493    4.7854808  
C   -2.1738724   -1.8268314    4.5576857  
O   -2.8357962   -2.3827064    5.6140350  
C   -2.5667212   -2.1555554    3.2384331  
O   -3.6226318   -3.0413663    3.1773122  
C   -1.9335634   -1.6236449    2.1344818  
H    1.0363952    0.8769718    4.3757045  
H   -0.8454472   -0.7142436    5.8013813  
H   -3.5178062   -2.9546422    5.2385129  
H   -3.8247440   -3.2102924    2.2519915  
H   -2.2566033   -1.8942483    1.1360343  
H    1.6567807    1.3889844    2.0042067  
