60

C    7.7551153   -1.0843132   -4.0581608  
C    9.0601224   -0.7090865   -4.2786795  
C    9.0520183    0.6936697   -4.5371540  
C    7.7024293    1.1233063   -4.4600227  
N    6.9410535    0.0185219   -4.1695466  
C    7.3193275    2.4528092   -4.6611305  
C    8.3168340    3.3652730   -4.9449782  
O    7.9983703    4.6766161   -5.1498529  
C    9.6690676    2.9558476   -5.0265278  
O   10.5439726    3.9821012   -5.3175378  
C   10.0477030    1.6443782   -4.8285125  
H    9.9128796   -1.3658474   -4.2571096  
H    6.2924440    2.7866244   -4.6038659  
H    8.8295918    5.1343928   -5.3308996  
H   11.4349393    3.6209560   -5.3543804  
H   11.0913144    1.3605057   -4.8975608  
H    7.3404326   -2.0516231   -3.8316476  
C    4.3630981   -2.0949037   -1.3110654  
C    3.1522514   -1.6320804   -1.7156885  
C    3.3924175   -0.7354493   -2.8216759  
C    4.8529074   -0.7137077   -3.0297340  
N    5.3832069   -1.5581154   -2.0817639  
C    5.4827050    0.0162381   -3.9848456  
C    4.6677391    0.8352837   -4.8666221  
O    5.1406430    1.5283993   -5.7578308  
C    3.1189447    0.8277106   -4.6641774  
O    2.4225435    1.5135518   -5.4003220  
C    2.5562217   -0.0001543   -3.6003001  
H    2.1995749   -1.8892847   -1.2880586  
H    4.5960548   -2.7827973   -0.5145584  
H    6.3605504   -1.7557299   -1.9686510  
C    0.0000000    0.0000000    0.0000000  
C    1.0541688   -0.0001719   -0.8560391  
C    0.5103141   -0.0000449   -2.1935955  
C   -0.9576367    0.0002461   -2.0455733  
N   -1.2018459   -0.0001392   -0.6915970  
C   -1.8348306    0.0008319   -3.0810611  
C   -1.2972842    0.0009739   -4.4314605  
O   -2.0050664    0.0014267   -5.4301321  
C    0.2542628    0.0004190   -4.6117571  
O    0.7184677    0.0002263   -5.7439119  
C    1.0974556    0.0000880   -3.4189127  
H    2.0940752   -0.0005479   -0.5817978  
H   -2.9081050    0.0011669   -2.9507065  
H   -2.1128195    0.0014911   -0.2706793  
C    3.3321173   -0.0004715    2.8079335  
C    2.6974184   -0.0000116    4.0032312  
C    1.2800439    0.0002118    3.6752840  
C    1.2395035   -0.0000644    2.1971295  
N    2.4394063   -0.0005460    1.6831036  
C    0.0000000    0.0000000    1.4700000  
C   -1.1468701   -0.0000635    2.1869543  
O   -2.3742202   -0.0000073    1.6395491  
C   -1.1388768   -0.0001607    3.6796354  
O   -2.2206231   -0.0000905    4.2670412  
C    0.1454524   -0.0001816    4.4024240  
H    3.1367986    0.0000651    4.9860947  
H   -2.9844344   -0.0001026    2.3990168  
H    0.1083576   -0.0003682    5.4835595  
H    4.3940039   -0.0007619    2.6198634  
