60

C    2.1652795   -4.5865981   -7.2746787  
C    1.5670558   -3.4784223   -6.7210160  
C    1.6857298   -2.4222186   -7.6723051  
C    2.3710496   -2.9497318   -8.7965788  
N    2.6492234   -4.2655838   -8.5213127  
C    2.6641328   -2.1859935   -9.9304201  
C    2.2577221   -0.8657633   -9.9294159  
O    2.5178749   -0.0751042  -11.0111708  
C    1.5730858   -0.3211130   -8.8170116  
O    1.2353286    1.0079200   -8.9684534  
C    1.2838546   -1.0739009   -7.6980018  
H    1.1032738   -3.4361741   -5.7503901  
H    3.1205487   -4.9007745   -9.1396700  
H    3.1862678   -2.5820749  -10.7904761  
H    2.1548426    0.7963318  -10.8060549  
H    0.7767635    1.2976474   -8.1738585  
H    2.2863081   -5.5802049   -6.8783751  
C    0.8518586   -0.7041561   -5.2251428  
C    0.0139741    0.0003876   -4.4216236  
C   -0.8729886    0.7427329   -5.2859478  
C   -0.4803619    0.4105163   -6.6687950  
N    0.5709013   -0.4706744   -6.5627858  
C   -1.0793694    0.9102632   -7.7792669  
C   -2.1843879    1.8373742   -7.6005633  
O   -2.7886791    2.3420362   -8.5378192  
C   -2.6168948    2.2035197   -6.1449948  
O   -3.5457350    2.9832468   -5.9820782  
C   -1.8948203    1.6002142   -5.0276394  
H   -0.7759753    0.6535189   -8.7847240  
H   -2.2006131    1.8587645   -4.0229668  
H    1.6510907   -1.3741286   -4.9526464  
C    3.2798085    0.0005853   -1.4499648  
C    2.5571144    0.0005562   -2.5996554  
C    1.1637436    0.0001546   -2.2210360  
C    1.1336965   -0.0000201   -0.7459470  
N    2.4483513   -0.0001430   -0.3402717  
C    0.0000000    0.0000000    0.0000000  
C   -1.2757367   -0.0000188   -0.6964414  
O   -2.3524597   -0.0000640   -0.1142313  
C   -1.2676494   -0.0000875   -2.2584081  
O   -2.3355762   -0.0004102   -2.8557294  
C    0.0181562    0.0001757   -2.9516296  
H    2.9547357    0.0006072   -3.5989105  
H    4.3498550    0.0008609   -1.3200021  
H    2.7563627    0.0012824    0.6148063  
C    2.3971438    2.0127888    3.1728260  
C    1.9431056    1.6308205    1.9564670  
C    0.8496017    0.7127664    2.2356185  
C    0.7794028    0.6545384    3.7115134  
N    1.6840587    1.4146091    4.2663826  
C   -0.1885723   -0.1578550    4.3957118  
C   -1.0476298   -0.8789867    3.6398520  
O   -2.0015663   -1.6796266    4.1448486  
C   -1.0022026   -0.8410666    2.1483229  
O   -1.8147390   -1.5232959    1.5241687  
C    0.0000000    0.0000000    1.4700000  
H    2.3054237    1.9346118    0.9892483  
H   -0.2170646   -0.1815267    5.4753125  
H   -2.4487139   -2.0549881    3.3649027  
H    3.2048689    2.6911772    3.3971983  
