60

C    5.3427999   -3.0426671   -1.9220103  
C    6.5353456   -3.6881513   -2.1536411  
C    6.8091331   -4.4831516   -1.0014194  
C    5.7393063   -4.2807741   -0.0923316  
N    4.8674882   -3.3992044   -0.6817245  
C    5.6770907   -4.9101914    1.1545659  
C    6.7135902   -5.7596105    1.4897249  
O    6.7028686   -6.4003246    2.6948745  
C    7.7899568   -5.9741284    0.5962852  
O    8.7444427   -6.8474656    1.0754303  
C    7.8521251   -5.3533190   -0.6338604  
H    7.1348034   -3.5963515   -3.0431443  
H    4.0078541   -3.0749444   -0.2769215  
H    4.8645467   -4.7600467    1.8520123  
H    7.5063193   -6.9357937    2.7265836  
H    9.4353619   -6.9368377    0.4119193  
H    8.6893630   -5.5370297   -1.2970055  
C    4.5939385   -2.1037469   -2.7696746  
C    4.8996524   -1.6375995   -4.0079478  
C    3.8355762   -0.7416506   -4.3950551  
C    2.8780294   -0.7238867   -3.2727454  
N    3.3957278   -1.5703484   -2.3196554  
C    1.7334695    0.0049281   -3.2500363  
C    1.4239143    0.8265213   -4.4083520  
O    0.4172706    1.5187838   -4.4841258  
C    2.4237214    0.8227868   -5.6084261  
O    2.1735652    1.5103263   -6.5892281  
C    3.6246404   -0.0037441   -5.5162761  
H    5.7710266   -1.8924535   -4.5844638  
H    4.3119022   -0.0005906   -6.3513721  
H    2.9698485   -1.7683917   -1.4328337  
C    1.1319246    0.0015678   -0.8009268  
C    0.7969914    0.0034958   -2.1169401  
C   -0.6453340    0.0035696   -2.1842669  
C   -1.1266832    0.0015410   -0.7896025  
N    0.0000000    0.0000000    0.0000000  
C   -2.4346129    0.0013913   -0.4276292  
C   -3.4350111    0.0031335   -1.4820181  
O   -4.6384614    0.0030875   -1.2583914  
C   -2.9478961    0.0050442   -2.9661074  
O   -3.7809382    0.0062135   -3.8623773  
C   -1.5113825    0.0053055   -3.2312122  
H   -2.7664565    0.0000174    0.6013448  
H   -1.1823533    0.0068381   -4.2614848  
H    2.1104316    0.0009435   -0.3488059  
C    0.8175213    0.6860729    2.3021913  
C    0.0000000    0.0000000    1.4700000  
C   -0.8887526   -0.7456559    2.3478473  
C   -0.4549825   -0.3816753    3.7138435  
N    0.5448156    0.4573574    3.6934124  
C   -1.0945674   -0.9182058    4.8835240  
C   -2.1210866   -1.7789155    4.6970523  
O   -2.8083856   -2.3554314    5.6976972  
C   -2.5824069   -2.1655116    3.3310774  
O   -3.5227682   -2.9541547    3.2362962  
C   -1.9100805   -1.6015804    2.1470656  
H   -0.7567140   -0.6349833    5.8697035  
H   -3.4728268   -2.9124471    5.2533954  
H   -2.2742832   -1.9066565    1.1752040  
H    1.6189533    1.3585343    2.0405121  
