64

C    7.1235616   -3.3937589   -1.4665678  
C    6.6913557   -2.1297426   -1.7950927  
C    7.8454565   -1.2924725   -1.8354534  
C    8.9624986   -2.1079750   -1.5206501  
N    8.4886531   -3.3774566   -1.3004120  
C   10.2691361   -1.6132879   -1.4680114  
C   10.4514849   -0.2709668   -1.7383831  
O   11.7066172    0.2640832   -1.7012376  
C    9.3494941    0.5589470   -2.0540967  
O    9.6945696    1.8722893   -2.2978118  
C    8.0601561    0.0716625   -2.1059423  
H    9.0522962   -4.1750925   -1.0678923  
H   11.1247356   -2.2295774   -1.2285570  
H   11.6105996    1.2008344   -1.9169744  
H    8.8936005    2.3641470   -2.5030643  
H    7.2359799    0.7315463   -2.3504106  
H    6.5659187   -4.3053523   -1.3362212  
C    4.1863608   -2.1478772   -1.3903806  
C    5.2964345   -1.7420569   -2.0496413  
C    4.8117016   -0.8307213   -3.0748248  
C    3.3454828   -0.8022507   -2.8851476  
N    2.9730514   -1.5723544   -1.8991330  
C    2.4861704   -0.0045255   -3.7159919  
C    3.0653208    0.7316068   -4.6917118  
O    2.3851028    1.5212588   -5.5401180  
C    4.5422559    0.7243200   -4.9079754  
O    5.0006617    1.4186843   -5.8151378  
C    5.4023453   -0.1022439   -4.0425491  
H    3.0670362    1.9124160   -6.1155441  
H    6.4672339   -0.0798685   -4.2316053  
H    4.1206068   -2.8299028   -0.5576195  
C    0.0000000    0.0000000    0.0000000  
C    1.0521669   -0.0011848   -0.8862341  
C    0.4917221   -0.0011931   -2.1979130  
C   -0.9187427    0.0003100   -2.0478683  
N   -1.1833170   -0.0009472   -0.7007915  
C   -1.7951698    0.0010259   -3.1372090  
C   -1.2375835    0.0005161   -4.4010425  
O   -2.0474208    0.0015256   -5.4997580  
C    0.1673584   -0.0013557   -4.5711962  
O    0.5673529   -0.0020659   -5.8915551  
C    1.0325773   -0.0023359   -3.4969890  
H    2.0953059   -0.0030542   -0.6200560  
H   -2.0989777    0.0102265   -0.2891825  
H   -2.8710930    0.0020274   -3.0295514  
H   -1.4634881    0.0006427   -6.2693593  
H    1.5290715   -0.0033076   -5.9180042  
C    1.1188642   -0.0008217    2.2703808  
C    0.0000000    0.0000000    1.4700000  
C   -1.1323862   -0.0008904    2.3373528  
C   -0.6382662   -0.0019682    3.6669281  
N    0.7324016   -0.0038477    3.5902241  
C   -1.4770914   -0.0027325    4.7854808  
C   -2.8395474   -0.0020958    4.5576857  
O   -3.7039201   -0.0024443    5.6140350  
C   -3.3517868   -0.0013946    3.2384331  
O   -4.7300496   -0.0012389    3.1773122  
C   -2.5248543   -0.0009135    2.1344818  
H    1.3576314    0.0056174    4.3757045  
H   -1.1067570   -0.0036993    5.8013813  
H   -4.5940033   -0.0021850    5.2385129  
H   -4.9934601   -0.0007286    2.2519915  
H   -2.9462578   -0.0005617    1.1360343  
H    2.1619896   -0.0009344    2.0042067  
