62

C    0.8863675   -1.0442887   -7.7021027  
C    1.9370565   -1.9291826   -7.7761553  
C    2.1876011   -2.1631042   -9.1607512  
C    1.2507701   -1.3870595   -9.8901546  
N    0.4746664   -0.7215415   -8.9739854  
C    1.2059236   -1.3722626  -11.2874952  
C    2.1237157   -2.1549048  -11.9607743  
O    2.1243736   -2.1773718  -13.3255131  
C    3.0660425   -2.9363746  -11.2507463  
O    3.9122317   -3.6615490  -12.0640304  
C    3.1106864   -2.9516672   -9.8722334  
H    2.4580293   -2.3546873   -6.9356042  
H   -0.2697468   -0.0857861   -9.1967977  
H    0.4942913   -0.7830817  -11.8493202  
H    2.8335672   -2.7783898  -13.5883559  
H    4.5163931   -4.1608852  -11.5061269  
H    3.8437309   -3.5603994   -9.3559298  
C    0.5435729   -0.7159129   -5.2159112  
C    0.2183312   -0.4634730   -6.5285264  
C   -0.8742402    0.4534640   -6.5178246  
C   -1.1746526    0.7271044   -5.1588547  
N   -0.2963293   -0.0005341   -4.3948471  
C   -2.2003929    1.5943483   -4.7708676  
C   -2.9360764    2.1965549   -5.7730126  
O   -3.9490248    3.0525104   -5.4500718  
C   -2.6517632    1.9359039   -7.1346452  
O   -3.4732418    2.6116225   -8.0132358  
C   -1.6401699    1.0802505   -7.5181315  
H   -2.4344682    1.8069831   -3.7368478  
H   -4.3267172    3.3562337   -6.2857549  
H   -3.2147317    2.3801417   -8.9105612  
H   -1.4458925    0.8999686   -8.5689566  
H    1.3072884   -1.3507663   -4.8003894  
C    3.1301146   -0.0010313   -1.7028256  
C    2.5367765   -0.0002766   -0.4864669  
C    1.1089901    0.0001027   -0.7656184  
C    1.0177865   -0.0004150   -2.2415133  
N    2.1993571   -0.0011612   -2.7963824  
C   -0.2459219   -0.0002879   -2.9257116  
C   -1.3675326   -0.0000606   -2.1698520  
O   -2.6129318    0.0000865   -2.6748483  
C   -1.3083588    0.0000910   -0.6783229  
O   -2.3693264    0.0004206   -0.0541685  
C    0.0000000    0.0000000    0.0000000  
H    3.0096016   -0.0001007    0.4807518  
H   -3.1967444    0.0002093   -1.8949026  
H    4.1849275   -0.0015114   -1.9271979  
C    0.0000000    0.0000000    1.4700000  
C    1.0662921    0.0000102    2.3034270  
C    0.4961870   -0.0000064    3.6418889  
C   -0.9663858    0.0000850    3.4240247  
N   -1.2632773    0.0000084    2.1528658  
C   -1.8985362    0.0000517    4.5177257  
C   -1.3925775   -0.0004564    5.7720543  
O   -2.1456383   -0.0005410    6.8851312  
C    0.0786232   -0.0009323    6.0245000  
O    0.4683759   -0.0012588    7.1921102  
C    1.0143166   -0.0008442    4.8859032  
H    2.1107198   -0.0000632    2.0421868  
H   -2.9622183    0.0003270    4.3293377  
H   -1.5042274   -0.0009692    7.6184419  
H    2.0724152   -0.0013148    5.1109744  
