60

C    1.5598140    2.1253533   -8.0535436  
C    2.5116003    1.6636571   -7.1741076  
C    3.3574199    0.7767168   -7.9038517  
C    2.8689001    0.7366258   -9.2348915  
N    1.7757833    1.5652272   -9.2908645  
C    3.4623382   -0.0391908  -10.2352558  
C    4.5692794   -0.7879448   -9.8856460  
O    5.1877365   -1.5630437  -10.8235940  
C    5.0713646   -0.7614371   -8.5627609  
O    6.1791031   -1.5614797   -8.3725230  
C    4.4862643    0.0034850   -7.5753000  
H    2.5863347    1.9321516   -6.1342426  
H    1.2263459    1.7464829  -10.1113805  
H    3.0947596   -0.0742002  -11.2515533  
H    5.9265381   -1.9957797  -10.3761827  
H    6.4545213   -1.4861528   -7.4537875  
H    0.7431244    2.8087827   -7.8957424  
C    2.4521485    0.0014838   -3.7217479  
C    3.4891879    0.0014496   -2.8521911  
C    4.6797445    0.0022555   -3.6882979  
C    4.1623483    0.0025994   -5.0735361  
N    2.8572360    0.0022305   -5.0994557  
C    5.0381738    0.0034465   -6.2128407  
C    6.3703214    0.0043170   -5.9789268  
O    7.3023601    0.0051588   -6.9470923  
C    6.9233380    0.0043694   -4.5924444  
O    8.1464877    0.0050629   -4.4541510  
C    6.0043360    0.0034466   -3.4403333  
H    3.4509659    0.0010307   -1.7762664  
H    8.1530739    0.0056733   -6.4722887  
H    6.4446278    0.0036317   -2.4522171  
C    0.0000000    0.0000000    0.0000000  
C    1.0662924   -0.0000102   -0.8334267  
C    0.4961874    0.0000064   -2.1718888  
C   -0.9663853   -0.0000849   -1.9540250  
N   -1.2632772   -0.0000084   -0.6828660  
C   -1.8985357   -0.0000515   -3.0477261  
C   -1.3925767    0.0004566   -4.3020548  
O   -2.1456375    0.0005411   -5.4151316  
C    0.0786242    0.0009324   -4.5545000  
O    0.4683770    0.0012590   -5.7221099  
C    1.0143173    0.0008443   -3.4159029  
H    2.1107200    0.0000632   -0.5721862  
H   -2.9622180   -0.0003269   -2.8593382  
H   -1.5042262    0.0009694   -6.1484423  
C    0.0000000    0.0000000    1.4700000  
C    1.0541688    0.0001722    2.3260392  
C    0.5103138    0.0000454    3.6635956  
C   -0.9576371   -0.0002459    3.5155732  
N   -1.2018458    0.0001392    2.1615969  
C   -1.8348311   -0.0008317    4.5510609  
C   -1.2972847   -0.0009736    5.9014604  
O   -2.0050672   -0.0014265    6.9001319  
C    0.2542623   -0.0004184    6.0817573  
O    0.7184670   -0.0002256    7.2139121  
C    1.0974552   -0.0000873    4.8889129  
H    2.0940752    0.0005483    2.0517982  
H   -2.9081052   -0.0011668    4.4207061  
H    2.1707277    0.0000911    5.0223670  
H   -2.1128194   -0.0014912    1.7406791  
