60

C   -0.4885191   -0.5430988   -9.5414477  
C   -0.2276859   -0.4359150  -10.8879043  
C   -0.4411943    0.9281709  -11.2460712  
C   -0.8339705    1.6115488  -10.0668136  
N   -0.8544336    0.6884806   -9.0508689  
C   -1.1272753    2.9784313  -10.0469543  
C   -1.0218657    3.6680711  -11.2392054  
O   -1.2963725    5.0045889  -11.2763260  
C   -0.6318445    3.0037840  -12.4263964  
O   -0.5737118    3.8281019  -13.5311422  
C   -0.3426028    1.6552852  -12.4467827  
H    0.0777126   -1.2419919  -11.5328586  
H   -1.4273119    3.5051097   -9.1515265  
H   -1.1633482    5.2853495  -12.1910630  
H   -0.3029616    3.3016550  -14.2895299  
H   -0.0466003    1.1737879  -13.3714568  
H   -0.4438810   -1.4009086   -8.8925042  
C    0.8351697   -0.7268778   -5.2248488  
C    0.5760704   -0.5103264   -6.5401621  
C   -0.5290498    0.4167164   -6.6044789  
C   -0.8951514    0.7247316   -5.2088119  
N   -0.0307352   -0.0004646   -4.4215603  
C   -1.8962323    1.5652877   -4.8441110  
C   -2.6645245    2.2094353   -5.8964112  
O   -3.5858897    2.9829009   -5.6702747  
C   -2.2943358    1.8976110   -7.3815147  
O   -2.9343337    2.4337813   -8.2760453  
C   -1.1943983    0.9745125   -7.6496164  
H    1.0992703   -0.9499842   -7.3705689  
H   -2.1484159    1.7776630   -3.8144458  
H    1.5856962   -1.3561862   -4.7747704  
C    3.2573670   -0.0002920   -1.5109380  
C    2.5379468   -0.0001709   -0.3591961  
C    1.1435043    0.0000332   -0.7338500  
C    1.1092609   -0.0000082   -2.2088477  
N    2.4227562    0.0001909   -2.6182613  
C   -0.0265532   -0.0002522   -2.9515663  
C   -1.3003035   -0.0002639   -2.2514981  
O   -2.3786784   -0.0004131   -2.8306429  
C   -1.2877725    0.0000312   -0.6895608  
O   -2.3539958    0.0003307   -0.0892036  
C    0.0000000    0.0000000    0.0000000  
H    2.9384091   -0.0000369    0.6389239  
H    4.3270394   -0.0004765   -1.6439446  
H    2.7280494   -0.0013406   -3.5742113  
C    0.0000000    0.0000000    1.4700000  
C    1.0662921    0.0000102    2.3034270  
C    0.4961870   -0.0000064    3.6418889  
C   -0.9663858    0.0000850    3.4240247  
N   -1.2632773    0.0000084    2.1528658  
C   -1.8985362    0.0000517    4.5177257  
C   -1.3925775   -0.0004564    5.7720543  
O   -2.1456383   -0.0005410    6.8851312  
C    0.0786232   -0.0009323    6.0245000  
O    0.4683759   -0.0012588    7.1921102  
C    1.0143166   -0.0008442    4.8859032  
H    2.1107198   -0.0000632    2.0421868  
H   -2.9622183    0.0003270    4.3293377  
H   -1.5042274   -0.0009692    7.6184419  
H    2.0724152   -0.0013148    5.1109744  
