62

C    4.4862643    0.0034847   -7.5753000  
C    3.1783352    0.0039405   -8.0016656  
C    3.2053119    0.0043839   -9.4278047  
C    4.5689262    0.0038849   -9.8182932  
N    5.3199020    0.0052960   -8.6690982  
C    4.9722463    0.0038242  -11.1569952  
C    3.9809464    0.0039684  -12.1190254  
O    4.3190278    0.0035667  -13.4414158  
C    2.6149009    0.0048404  -11.7492475  
O    1.7484415    0.0052991  -12.8228371  
C    2.2162873    0.0051740  -10.4287808  
H    2.3114440    0.0050573   -7.3633153  
H    6.3231210   -0.0052338   -8.6313875  
H    6.0098790    0.0035891  -11.4611672  
H    3.4888677    0.0040526  -13.9354785  
H    0.8471479    0.0058539  -12.4862754  
H    1.1624275    0.0060264  -10.1760812  
C    2.4521485    0.0014838   -3.7217479  
C    3.4891874    0.0014496   -2.8521910  
C    4.6797446    0.0022553   -3.6882977  
C    4.1623478    0.0025993   -5.0735360  
N    2.8572357    0.0022305   -5.0994557  
C    5.0381733    0.0034462   -6.2128406  
C    6.3703214    0.0043167   -5.9789268  
O    7.3023601    0.0051585   -6.9470923  
C    6.9233371    0.0043691   -4.5924440  
O    8.1464868    0.0050623   -4.4541506  
C    6.0043355    0.0034465   -3.4403332  
H    3.4509657    0.0010309   -1.7762664  
H    8.1530740    0.0056732   -6.4722882  
H    6.4446273    0.0036314   -2.4522170  
C    0.0000000    0.0000000    0.0000000  
C    1.0662924   -0.0000102   -0.8334267  
C    0.4961874    0.0000064   -2.1718888  
C   -0.9663853   -0.0000849   -1.9540250  
N   -1.2632772   -0.0000084   -0.6828660  
C   -1.8985357   -0.0000515   -3.0477261  
C   -1.3925767    0.0004566   -4.3020548  
O   -2.1456375    0.0005411   -5.4151316  
C    0.0786242    0.0009324   -4.5545000  
O    0.4683770    0.0012590   -5.7221099  
C    1.0143173    0.0008443   -3.4159029  
H    2.1107200    0.0000632   -0.5721862  
H   -2.9622180   -0.0003269   -2.8593382  
H   -1.5042262    0.0009694   -6.1484423  
C    3.3003543   -0.0005276    2.9438989  
C    2.5232812   -0.0003497    4.0790748  
C    1.1623199    0.0001319    3.6520102  
C    1.1711883   -0.0000583    2.2336141  
N    2.4852299    0.0014920    1.8362361  
C    0.0000000    0.0000000    1.4700000  
C   -1.2020384   -0.0000520    2.1506477  
O   -2.3759250   -0.0003494    1.4542253  
C   -1.2314658    0.0005113    3.5655508  
O   -2.5054393    0.0008037    4.0950179  
C   -0.0764518    0.0007272    4.3195194  
H    2.8919952    0.0005619    5.0905303  
H    2.8036267   -0.0088181    0.8841339  
H   -3.0835639   -0.0000348    2.1118817  
H   -2.4360050    0.0011527    5.0545920  
H   -0.1304098    0.0013421    5.4019087  
H    4.3715549   -0.0004895    2.8367138  
