64

C   -3.9665820    3.0748255    0.7604665  
C   -4.7624232    3.7535585    1.6540128  
C   -3.8938898    4.5197914    2.4865606  
C   -2.5683240    4.2664098    2.0499835  
N   -2.6483109    3.3834466    1.0018450  
C   -1.4498902    4.8568036    2.6460796  
C   -1.6737036    5.7189201    3.7019384  
O   -0.6173031    6.3230046    4.3200922  
C   -2.9888965    5.9841144    4.1522234  
O   -3.0463133    6.8639964    5.2132862  
C   -4.0927103    5.4018219    3.5648075  
H   -5.8367261    3.7018178    1.7007988  
H   -1.8667205    3.0280276    0.4814842  
H   -0.4370253    4.6677085    2.3181301  
H   -0.9897369    6.8752046    5.0198307  
H   -3.9690371    6.9886163    5.4554735  
H   -5.0879857    5.6239912    3.9316124  
C   -4.3329675    2.1450165   -0.3175488  
C   -5.5711461    1.7385426   -0.6826123  
C   -5.3538023    0.8273989   -1.7957513  
C   -3.8860920    0.7997430   -1.9736453  
N   -3.2823486    1.5701202   -1.1099313  
C   -3.2578655    0.0024282   -2.9908505  
C   -4.0594178   -0.7340900   -3.7935896  
O   -3.6090876   -1.5234311   -4.7836320  
C   -5.5440605   -0.7276259   -3.6388183  
O   -6.2117105   -1.4223052   -4.4049024  
C   -6.1645245    0.0985292   -2.5879063  
H   -6.5153538    2.0219323   -0.2499015  
H   -4.4116850   -1.9150023   -5.1730707  
H   -7.2431276    0.0755590   -2.5084194  
C    0.0000000    0.0000000    0.0000000  
C    1.0521666   -0.0011982   -0.8862343  
C    0.4917215   -0.0011996   -2.1979132  
C   -0.9187429    0.0003215   -2.0478682  
N   -1.1833171   -0.0009323   -0.7007913  
C   -1.7951703    0.0010483   -3.1372089  
C   -1.2375841    0.0005313   -4.4010422  
O   -2.0474218    0.0015510   -5.4997578  
C    0.1673576   -0.0013585   -4.5711963  
O    0.5673520   -0.0020735   -5.8915554  
C    1.0325768   -0.0023493   -3.4969892  
H    2.0953056   -0.0030808   -0.6200564  
H   -2.0989778    0.0102529   -0.2891822  
H   -1.4634888    0.0006601   -6.2693595  
H    1.5290707   -0.0033271   -5.9180047  
H    2.1042146   -0.0039770   -3.6584456  
C    0.0000000    0.0000000    1.4700000  
C    1.0521667    0.0011902    2.3562342  
C    0.4917218    0.0011957    3.6679131  
C   -0.9187428   -0.0003148    3.5178682  
N   -1.1833171    0.0009411    2.1707914  
C   -1.7951701   -0.0010350    4.6072090  
C   -1.2375837   -0.0005224    5.8710424  
O   -2.0474215   -0.0015360    6.9697579  
C    0.1673580    0.0013566    6.0411963  
O    0.5673524    0.0020687    7.3615553  
C    1.0325770    0.0023412    4.9669890  
H    2.0953057    0.0030649    2.0900562  
H   -2.0989778   -0.0102372    1.7591824  
H   -2.8710934   -0.0020419    4.4995513  
H   -1.4634884   -0.0006497    7.7393593  
H    1.5290710    0.0033153    7.3880045  
H    2.1042148    0.0039609    5.1284455  
