64

C    2.8745159   -3.0403724   -4.6513376  
C    3.9213931   -3.6852344   -5.2683213  
C    4.5655155   -4.4793235   -4.2737715  
C    3.8612825   -4.2770573   -3.0592465  
N    2.8417999   -3.3964261   -3.3233676  
C    4.2202974   -4.9057199   -1.8631356  
C    5.3098969   -5.7542562   -1.8937048  
O    5.7034820   -6.3942091   -0.7541581  
C    6.0255377   -5.9686488   -3.0956660  
O    7.0860369   -6.8410645   -2.9630999  
C    5.6720895   -5.3485834   -4.2759718  
H    4.1886683   -3.5936146   -6.3071489  
H    2.1668488   -3.0724629   -2.6544358  
H    3.6877651   -4.7556552   -0.9341077  
H    6.4716884   -6.9291393   -0.9928517  
H    7.5152546   -6.9304134   -3.8194834  
H    6.2393951   -5.5321763   -5.1809222  
C    1.8844580   -2.1024760   -5.2000038  
C    1.7579309   -1.6369204   -6.4693831  
C    0.6249271   -0.7419051   -6.4785623  
C    0.0979862   -0.7240440   -5.1005905  
N    0.9053924   -1.5695641   -4.3752763  
C   -0.9736297    0.0040464   -4.6965763  
C   -1.6535194    0.8247014   -5.6849136  
O   -2.6280815    1.5162659   -5.4198313  
C   -1.1127797    0.8208474   -7.1503112  
O   -1.6771985    1.5076003   -7.9911817  
C    0.0504528   -0.0048495   -7.4649012  
H    2.3864450   -1.8915794   -7.3040885  
H    0.4187468   -0.0017846   -8.4817956  
H    0.8008849   -1.7673170   -3.3970026  
C    1.1188642    0.0008222   -0.8003808  
C    0.0000000    0.0000000    0.0000000  
C   -1.1323862    0.0008899   -0.8673528  
C   -0.6382663    0.0019679   -2.1969280  
N    0.7324016    0.0038481   -2.1202242  
C   -1.4770914    0.0027318   -3.3154808  
C   -2.8395473    0.0020945   -3.0876857  
O   -3.7039201    0.0024425   -4.1440349  
C   -3.3517868    0.0013931   -1.7684331  
O   -4.7300497    0.0012366   -1.7073121  
C   -2.5248543    0.0009123   -0.6644817  
H    1.3576314   -0.0056167   -2.9057046  
H   -4.5940032    0.0021826   -3.7685128  
H   -4.9934602    0.0007259   -0.7819913  
H   -2.9462577    0.0005603    0.3339659  
H    2.1619895    0.0009355   -0.5342068  
C    0.8576279    0.7185626    2.2703808  
C    0.0000000    0.0000000    1.4700000  
C   -0.8668858   -0.7285659    2.3373528  
C   -0.4876752   -0.4117774    3.6669281  
N    0.5635254    0.4678311    3.5902241  
C   -1.1297612   -0.9515493    4.7854808  
C   -2.1738724   -1.8268314    4.5576857  
O   -2.8357962   -2.3827064    5.6140350  
C   -2.5667212   -2.1555554    3.2384331  
O   -3.6226318   -3.0413663    3.1773122  
C   -1.9335634   -1.6236449    2.1344818  
H    1.0363952    0.8769718    4.3757045  
H   -0.8454472   -0.7142436    5.8013813  
H   -3.5178062   -2.9546422    5.2385129  
H   -3.8247440   -3.2102924    2.2519915  
H   -2.2566033   -1.8942483    1.1360343  
H    1.6567807    1.3889844    2.0042067  
