64

C    1.2235113   -0.2384301   -4.5828762  
C   -0.0142982   -0.0497492   -5.1526963  
C    0.1675264   -0.0919429   -6.5668248  
C    1.5489408   -0.3112290   -6.8024818  
N    2.1614521   -0.3934892   -5.5766433  
C    2.0907110   -0.4090338   -8.0876700  
C    1.2220815   -0.2834810   -9.1543924  
O    1.6979649   -0.3712193  -10.4306567  
C   -0.1594072   -0.0640145   -8.9395906  
O   -0.8932576    0.0397709  -10.1032212  
C   -0.6945293    0.0328487   -7.6719995  
H   -0.9348531    0.1009820   -4.6152468  
H    3.1408104   -0.5560827   -5.4269733  
H    3.1426764   -0.5759450   -8.2739809  
H    0.9366675   -0.2573006  -11.0143645  
H   -1.8148238    0.1870514   -9.8694954  
C   -1.1124679    0.1632688   -0.7919003  
C   -0.7421039    0.0919217   -2.1148548  
C    0.6670315   -0.1276909   -2.1414700  
C    1.1052948   -0.1822419   -0.7935545  
N    0.0000000    0.0000000    0.0000000  
C    2.4426011   -0.3871348   -0.4408235  
C    3.3540407   -0.5400422   -1.4675050  
O    4.6726629   -0.7430516   -1.1793463  
C    2.9361888   -0.4883311   -2.8186316  
O    3.9626523   -0.6575804   -3.7247614  
C    1.6171096   -0.2859622   -3.1673481  
H   -1.4057470    0.1876176   -2.9571212  
H    2.7830596   -0.4295879    0.5845973  
H    5.1283730   -0.8226384   -2.0274376  
H    3.5955455   -0.6091885   -4.6127343  
H   -2.0819359    0.3191306   -0.3505410  
C   -2.7024718    1.0876871   -6.5486254  
C   -2.1353205    0.2615540   -7.4911278  
C   -3.2054603   -0.3149028   -8.2375178  
C   -4.4126689    0.2012583   -7.7007206  
N   -4.0712882    1.0481660   -6.6756238  
C   -5.6719835   -0.1517717   -8.1949735  
C   -5.7133699   -1.0418480   -9.2505440  
O   -6.9166629   -1.4202731   -9.7719783  
C   -4.5198137   -1.5680629   -9.7994882  
O   -4.7276524   -2.4424953  -10.8461561  
C   -3.2771327   -1.2204413   -9.3122216  
H   -4.7193203    1.5700069   -6.1137357  
H   -6.5957926    0.2379802   -7.7901626  
H   -6.7215062   -2.0371446  -10.4893690  
H   -3.8718694   -2.7513939  -11.1589192  
H   -2.3803748   -1.6399995   -9.7529872  
H   -2.2389458    1.7008883   -5.7949098  
C    2.5128556    2.1077716    2.9199648  
C    1.9592212    1.6432552    4.0696553  
C    0.8915788    0.7479214    3.6910360  
C    0.8684491    0.7287414    2.2159470  
N    1.8754542    1.5738793    1.8102719  
C    0.0000000    0.0000000    1.4700000  
C   -0.9772830   -0.8200135    2.1664417  
O   -1.8021297   -1.5120829    1.5842315  
C   -0.9711318   -0.8147624    3.7284083  
O   -1.7894187   -1.5009653    4.3257297  
C    0.0140216    0.0115358    4.4216297  
H    2.2638494    1.8988021    5.0689105  
H    0.0117648    0.0094386    5.5031631  
H    3.3327358    2.7953732    2.7900019  
H    2.1123206    1.7707734    0.8551938  
