60

C   -4.2597101    0.7226391   -7.6894050  
C   -5.5066307    0.4734714   -8.2143557  
C   -5.3274471   -0.4335250   -9.3005649  
C   -3.9381677   -0.7047549   -9.3914654  
N   -3.3187311    0.0147086   -8.3998563  
C   -3.3964689   -1.5627567  -10.3533309  
C   -4.2732449   -2.1580291  -11.2393843  
O   -3.7977982   -3.0048430  -12.1984835  
C   -5.6626727   -1.8996418  -11.1649182  
O   -6.4041129   -2.5676753  -12.1174613  
C   -6.1977402   -1.0531030  -10.2164455  
H   -6.4314584    0.8945885   -7.8589021  
H   -2.3385389   -1.7735070  -10.4279657  
H   -4.5653242   -3.3049302  -12.7025832  
H   -7.3307354   -2.3383335  -11.9975485  
H   -7.2661368   -0.8743393  -10.1840041  
H   -3.9669541    1.3504433   -6.8653209  
C   -1.0641738    0.0073911   -4.6315339  
C    0.2004553    0.0078178   -5.1262942  
C    0.0892946    0.0101555   -6.5659030  
C   -1.3541083    0.0110917   -6.8714806  
N   -1.9986532    0.0089311   -5.6559784  
C   -1.8747039    0.0136545   -8.1247479  
C   -0.9518136    0.0153963   -9.2476043  
O   -1.3222287    0.0176755  -10.4142606  
C    0.5810414    0.0141933   -8.9473387  
O    1.3676713    0.0153340   -9.8846081  
C    1.0213765    0.0116821   -7.5545177  
H    1.1076402    0.0064481   -4.5486895  
H    2.0843764    0.0110680   -7.3551324  
H   -2.9945001    0.0104955   -5.5321487  
C    1.1319245    0.0015656   -0.8009271  
C    0.7969914    0.0034943   -2.1169404  
C   -0.6453340    0.0035712   -2.1842672  
C   -1.1266833    0.0015434   -0.7896027  
N    0.0000000    0.0000000    0.0000000  
C   -2.4346131    0.0013965   -0.4276296  
C   -3.4350110    0.0031409   -1.4820182  
O   -4.6384610    0.0030975   -1.2583916  
C   -2.9478961    0.0050507   -2.9661073  
O   -3.7809383    0.0062220   -3.8623773  
C   -1.5113824    0.0053091   -3.2312124  
H    1.4821237    0.0045409   -2.9459193  
H   -2.7664564    0.0000233    0.6013449  
H    2.1104315    0.0009392   -0.3488061  
C    2.5528530    2.1414826    2.8079335  
C    2.0663498    1.7338582    4.0032312  
C    0.9804344    0.8229586    3.6752840  
C    0.9495562    0.7966882    2.1971295  
N    1.8690446    1.5676019    1.6831036  
C    0.0000000    0.0000000    1.4700000  
C   -0.8785127   -0.7372425    2.1869543  
O   -1.8187535   -1.5261249    1.6395491  
C   -0.8723269   -0.7321790    3.6796354  
O   -1.7010379   -1.4274584    4.2670412  
C    0.1115397    0.0933559    4.4024240  
H    2.4028853    2.0163452    4.9860947  
H   -2.2861435   -1.9184361    2.3990168  
H    0.0832434    0.0693689    5.4835595  
H    3.3664920    2.8238276    2.6198634  
