60

C    1.0442345    0.0120824   -7.5868831  
C   -0.2695939    0.0128124   -7.1790581  
C   -1.0716824    0.0150435   -8.3585708  
C   -0.1844323    0.0153022   -9.4652385  
N    1.0925393    0.0154256   -8.9612939  
C   -0.6288468    0.0169944  -10.7908640  
C   -1.9938009    0.0181449  -11.0031816  
O   -2.4820322    0.0194627  -12.2777964  
C   -2.8950018    0.0182845   -9.9120112  
O   -4.2225329    0.0199135  -10.2875154  
C   -2.4572838    0.0168889   -8.6039877  
H   -0.6082197    0.0129599   -6.1571357  
H    1.9330886    0.0050472   -9.5102467  
H    0.0422346    0.0173447  -11.6387140  
H   -3.4450555    0.0204019  -12.2013036  
H   -4.7636278    0.0198694   -9.4920157  
H   -3.1713527    0.0172171   -7.7887675  
C    1.7334697    0.0049246   -3.2500361  
C    3.0913864    0.0046110   -3.2383151  
C    3.5242786    0.0065420   -4.6157897  
C    2.2984618    0.0080462   -5.4368632  
N    1.2476583    0.0065694   -4.5487757  
C    2.2819760    0.0104503   -6.7938550  
C    3.5566099    0.0114095   -7.4923122  
O    3.6472547    0.0134883   -8.7130007  
C    4.8674242    0.0095955   -6.6428609  
O    5.9464907    0.0100754   -7.2198161  
C    4.7574561    0.0073244   -5.1862366  
H    3.7182532    0.0030069   -2.3644448  
H    5.6697682    0.0062837   -4.6053670  
H    0.2773174    0.0086322   -4.8046684  
C    1.1319247    0.0015655   -0.8009267  
C    0.7969916    0.0034943   -2.1169401  
C   -0.6453337    0.0035710   -2.1842668  
C   -1.1266832    0.0015433   -0.7896026  
N    0.0000000    0.0000000    0.0000000  
C   -2.4346130    0.0013964   -0.4276294  
C   -3.4350109    0.0031408   -1.4820183  
O   -4.6384610    0.0030973   -1.2583915  
C   -2.9478956    0.0050505   -2.9661075  
O   -3.7809378    0.0062218   -3.8623775  
C   -1.5113821    0.0053090   -3.2312122  
H   -2.7664565    0.0000232    0.6013446  
H   -1.1823527    0.0068407   -4.2614846  
H    2.1104317    0.0009391   -0.3488056  
C    0.0000000    0.0000000    1.4700000  
C    1.0541688    0.0001722    2.3260392  
C    0.5103138    0.0000454    3.6635956  
C   -0.9576371   -0.0002459    3.5155732  
N   -1.2018458    0.0001392    2.1615969  
C   -1.8348311   -0.0008317    4.5510609  
C   -1.2972847   -0.0009736    5.9014604  
O   -2.0050672   -0.0014265    6.9001319  
C    0.2542623   -0.0004184    6.0817573  
O    0.7184670   -0.0002256    7.2139121  
C    1.0974552   -0.0000873    4.8889129  
H    2.0940752    0.0005483    2.0517982  
H   -2.9081052   -0.0011668    4.4207061  
H    2.1707277    0.0000911    5.0223670  
H   -2.1128194   -0.0014912    1.7406791  
