60

C   -5.8577283    4.5891510   -0.4162881  
C   -5.3826387    3.4808399   -1.0784087  
C   -6.3125151    2.4250451   -0.8434027  
C   -7.3433831    2.9529358   -0.0245210  
N   -7.0352725    4.2686086    0.2177400  
C   -8.4327559    2.1896553    0.4061267  
C   -8.4825345    0.8695033    0.0025185  
O   -9.5242962    0.0792847    0.3940568  
C   -7.4633686    0.3244808   -0.8142227  
O   -7.6559604   -1.0044180   -1.1308925  
C   -6.3882432    1.0768170   -1.2392193  
H   -4.4766781    3.4382414   -1.6584209  
H   -7.5904439    4.9039887    0.7618506  
H   -9.2216246    2.5860256    1.0304503  
H   -9.3659576   -0.7921740    0.0083706  
H   -6.9241595   -1.2944170   -1.6840400  
H   -5.4490482    5.5825545   -0.3449505  
C   -3.9877630    0.7060338   -1.9730979  
C   -3.2941076    0.0012878   -2.9038237  
C   -4.2616232   -0.7404938   -3.6774573  
C   -5.5852975   -0.4077259   -3.1171523  
N   -5.3499622    0.4732135   -2.0868840  
C   -6.7614333   -0.9068530   -3.5746254  
C   -6.7208864   -1.8338309   -4.6933759  
O   -7.7257842   -2.3379512   -5.1774670  
C   -5.3299836   -2.2005534   -5.3022346  
O   -5.2832941   -2.9801748   -6.2441853  
C   -4.1317821   -1.5978946   -4.7234702  
H   -7.7216480   -0.6497113   -3.1494485  
H   -3.1726430   -1.8568415   -5.1509312  
H   -3.6184115    1.3757280   -1.2135067  
C    0.0000000    0.0000000    0.0000000  
C    1.0541688   -0.0001723   -0.8560392  
C    0.5103136   -0.0000455   -2.1935956  
C   -0.9576373    0.0002461   -2.0455730  
N   -1.2018460   -0.0001389   -0.6915968  
C   -1.8348314    0.0008319   -3.0810607  
C   -1.2972851    0.0009739   -4.4314603  
O   -2.0050676    0.0014268   -5.4301316  
C    0.2542619    0.0004184   -4.6117572  
O    0.7184666    0.0002257   -5.7439122  
C    1.0974551    0.0000873   -3.4189129  
H    2.0940752   -0.0005484   -0.5817983  
H    2.1707276   -0.0000912   -3.5523673  
H   -2.1128194    0.0014915   -0.2706789  
C    1.0965515   -0.0001358    2.2710304  
C    0.0000000    0.0000000    1.4700000  
C   -1.1546562   -0.0001469    2.3369512  
C   -0.6372014   -0.0003519    3.7186280  
N    0.7342871   -0.0007337    3.6095011  
C   -1.4147739   -0.0001353    4.8308716  
C   -2.8576048    0.0001048    4.6554461  
O   -3.6427778    0.0002493    5.5944904  
C   -3.4275839    0.0000726    3.2011665  
O   -4.6406829   -0.0000333    3.0410059  
C   -2.4891866    0.0001091    2.0816745  
H   -1.0150448   -0.0001615    5.8354244  
H   -2.8919121    0.0002919    1.0779135  
H    2.1388271   -0.0000662    1.9961646  
H    1.3735872    0.0006099    4.3830260  
