62

C    8.6213209    0.0029139   -3.3762192  
C    7.8150570    0.0034824   -4.4908523  
C    8.6764332    0.0047771   -5.6277909  
C   10.0085933    0.0046575   -5.1406806  
N    9.9391113    0.0054659   -3.7696266  
C   11.1227124    0.0054368   -5.9853858  
C   10.8877440    0.0060464   -7.3466229  
O   11.9395249    0.0064678   -8.2165477  
C    9.5658107    0.0065511   -7.8519054  
O    9.4974307    0.0075551   -9.2298274  
C    8.4662308    0.0060561   -7.0191705  
H    6.7385068    0.0041259   -4.4851806  
H   10.7278682   -0.0049782   -3.1485513  
H   12.1405493    0.0054945   -5.6204080  
H   11.5593199    0.0071583   -9.1046405  
H    8.5707353    0.0078126   -9.4883604  
H    7.4655774    0.0066445   -7.4353084  
C    4.7390840    0.0009613   -1.2727298  
C    5.7159780    0.0017140   -2.2159966  
C    6.9782054    0.0017424   -1.5148417  
C    6.6542736    0.0009094   -0.0754467  
N    5.2807306    0.0008646    0.0037337  
C    7.5764457    0.0002871    0.9201955  
C    8.9818048    0.0006748    0.5493866  
O    9.8878556    0.0002341    1.3724141  
C    9.3478545    0.0018086   -0.9691034  
O   10.5277193    0.0024500   -1.2934192  
C    8.2653746    0.0021243   -1.9499649  
H    5.5691178    0.0023771   -3.2813817  
H    7.3176385   -0.0004497    1.9699235  
H    4.7530492   -0.0011860    0.8573115  
C    3.2798077    0.0005856   -1.4499661  
C    2.5571132    0.0005565   -2.5996564  
C    1.1637425    0.0001547   -2.2210366  
C    1.1336959   -0.0000200   -0.7459475  
N    2.4483509   -0.0001429   -0.3402730  
C    0.0000000    0.0000000    0.0000000  
C   -1.2757370   -0.0000187   -0.6964411  
O   -2.3524597   -0.0000640   -0.1142306  
C   -1.2676502   -0.0000874   -2.2584078  
O   -2.3355774   -0.0004102   -2.8557287  
C    0.0181551    0.0001758   -2.9516297  
H    2.9547342    0.0006074   -3.5989118  
H    0.0150776    0.0003317   -4.0331632  
H    2.7563626    0.0012823    0.6148051  
C    0.0000000    0.0000000    1.4700000  
C    1.0521667    0.0011902    2.3562342  
C    0.4917218    0.0011957    3.6679131  
C   -0.9187428   -0.0003148    3.5178682  
N   -1.1833171    0.0009411    2.1707914  
C   -1.7951701   -0.0010350    4.6072090  
C   -1.2375837   -0.0005224    5.8710424  
O   -2.0474215   -0.0015360    6.9697579  
C    0.1673580    0.0013566    6.0411963  
O    0.5673524    0.0020687    7.3615553  
C    1.0325770    0.0023412    4.9669890  
H    2.0953057    0.0030649    2.0900562  
H   -2.0989778   -0.0102372    1.7591824  
H   -2.8710934   -0.0020419    4.4995513  
H   -1.4634884   -0.0006497    7.7393593  
H    1.5290710    0.0033153    7.3880045  
H    2.1042148    0.0039609    5.1284455  
