64

C    4.8639835   -0.9923909   -8.8039692  
C    5.2133910   -0.5776939  -10.0682508  
C    4.9614346    0.8248740  -10.1308702  
C    4.4549954    1.2137241   -8.8642844  
N    4.4068094    0.0858814   -8.0830880  
C    4.0968463    2.5316970   -8.5651760  
C    4.2530715    3.4743550   -9.5627565  
O    3.9190879    4.7761206   -9.3242750  
C    4.7564223    3.1057974  -10.8330404  
O    4.8530395    4.1585444  -11.7194567  
C    5.1096922    1.8057246  -11.1289058  
H    5.6010296   -1.2086964  -10.8496384  
H    3.7101430    2.8344794   -7.6018561  
H    4.1026325    5.2590471  -10.1405838  
H    5.2009260    3.8243224  -12.5518478  
H    5.4922980    1.5533946  -12.1109560  
H    4.9033620   -1.9722763   -8.3598600  
C    5.9329384   -2.1252339   -4.5701439  
C    5.0131317   -1.6623128   -3.6579342  
C    4.1427217   -0.7751636   -4.3579004  
C    4.5839726   -0.7362134   -5.7053822  
N    5.6738279   -1.5656661   -5.7994100  
C    3.9561505    0.0394654   -6.6846424  
C    2.8627887    0.7892521   -6.2966255  
O    2.2121667    1.5642681   -7.2126249  
C    2.4077029    0.7638903   -4.9568228  
O    1.3079542    1.5648737   -4.7280809  
C    3.0267438   -0.0008951   -3.9901699  
H    4.9749616   -1.9301460   -2.6159160  
H    6.1938216   -1.7478112   -6.6387020  
H    1.4899374    1.9978180   -6.7396720  
H    1.0650889    1.4902877   -3.8001490  
H    6.7541925   -2.8091831   -4.4408600  
C    3.3003547    0.0005277   -1.4738986  
C    2.5232816    0.0003497   -2.6090746  
C    1.1623203   -0.0001319   -2.1820102  
C    1.1711884    0.0000584   -0.7636141  
N    2.4852301   -0.0014919   -0.3662359  
C    0.0000000    0.0000000    0.0000000  
C   -1.2020383    0.0000520   -0.6806479  
O   -2.3759248    0.0003493    0.0157745  
C   -1.2314655   -0.0005115   -2.0955511  
O   -2.5054388   -0.0008040   -2.6250184  
C   -0.0764513   -0.0007274   -2.8495195  
H    2.8036266    0.0088183    0.5858662  
H   -3.0835639    0.0000346   -0.6418822  
H   -2.4360043   -0.0011529   -3.5845924  
H   -0.1304091   -0.0013423   -3.9319089  
H    4.3715553    0.0004897   -1.3667133  
C    0.8681109    0.7263879    2.2709268  
C    0.6127770    0.5096195    3.5869401  
C   -0.4920590   -0.4175482    3.6542670  
C   -0.8620974   -0.7254003    2.2596025  
N    0.0000000    0.0000000    1.4700000  
C   -1.8641242   -1.5660088    1.8976294  
C   -2.6293522   -2.2103885    2.9520183  
O   -3.5512764   -2.9839180    2.7283916  
C   -2.2549728   -1.8987399    4.4361073  
O   -2.8923672   -2.4351063    5.3323774  
C   -1.1543735   -0.9755647    4.7012123  
H    1.1382914    0.9492124    4.4159191  
H   -2.1192137   -1.7782617    0.8686553  
H   -0.9013378   -0.7652422    5.7314848  
H    1.6172880    1.3558399    1.8188057  
