60

C   -4.9708064    2.1215875   -6.3895494  
C   -3.7108587    1.6601681   -6.6930163  
C   -3.8482175    0.7725290   -7.8010911  
C   -5.2265785    0.7317458   -8.1333309  
N   -5.8800625    1.5606256   -7.2555298  
C   -5.7291607   -0.0448664   -9.1816979  
C   -4.8237623   -0.7937193   -9.9080941  
O   -5.2605365   -1.5695819  -10.9426364  
C   -3.4446513   -0.7665283   -9.5916560  
O   -2.6713703   -1.5667695  -10.4071279  
C   -2.9481726   -0.0008210   -8.5573799  
H   -2.8044335    1.9292914   -6.1782750  
H   -6.8676120    1.7415257   -7.2539093  
H   -6.7785789   -0.0804060   -9.4398855  
H   -4.4781900   -2.0022498  -11.3086913  
H   -1.7542725   -1.4909471  -10.1264396  
H   -5.2929997    2.8053497   -5.6229861  
C   -0.8712823    0.0001712   -4.7267111  
C    0.4275912    0.0003833   -5.1068522  
C    0.3927410    0.0003247   -6.5612539  
C   -1.0467465   -0.0000492   -6.8995726  
N   -1.7925763   -0.0000599   -5.8282525  
C   -1.5084818   -0.0001658   -8.2604131  
C   -0.5746209    0.0004688   -9.2387989  
O   -0.8627925    0.0004378  -10.5514293  
C    0.8856683    0.0012296   -8.9294213  
O    1.6794953    0.0016587   -9.8701972  
C    1.3340964    0.0012909   -7.5255565  
H    1.3014267    0.0006482   -4.4779747  
H    0.0042906    0.0010052  -10.9956357  
H    2.4004347    0.0019677   -7.3434774  
C    1.0965515    0.0001358   -0.8010304  
C    0.0000000    0.0000000    0.0000000  
C   -1.1546562    0.0001470   -0.8669514  
C   -0.6372012    0.0003520   -2.2486282  
N    0.7342873    0.0007338   -2.1395014  
C   -1.4147737    0.0001354   -3.3608717  
C   -2.8576047   -0.0001047   -3.1854463  
O   -3.6427778   -0.0002491   -4.1244908  
C   -3.4275837   -0.0000725   -1.7311667  
O   -4.6406828    0.0000333   -1.5710061  
C   -2.4891866   -0.0001090   -0.6116745  
H   -2.8919121   -0.0002919    0.3920865  
H    2.1388272    0.0000662   -0.5261647  
H    1.3735873   -0.0006098   -2.9130261  
C    2.5528530    2.1414826    2.8079335  
C    2.0663498    1.7338582    4.0032312  
C    0.9804344    0.8229586    3.6752840  
C    0.9495562    0.7966882    2.1971295  
N    1.8690446    1.5676019    1.6831036  
C    0.0000000    0.0000000    1.4700000  
C   -0.8785127   -0.7372425    2.1869543  
O   -1.8187535   -1.5261249    1.6395491  
C   -0.8723269   -0.7321790    3.6796354  
O   -1.7010379   -1.4274584    4.2670412  
C    0.1115397    0.0933559    4.4024240  
H    2.4028853    2.0163452    4.9860947  
H   -2.2861435   -1.9184361    2.3990168  
H    0.0832434    0.0693689    5.4835595  
H    3.3664920    2.8238276    2.6198634  
