64

C    5.9956985   -0.0113347   -6.8730895  
C    6.6564891   -0.0208163   -8.0796272  
C    8.0530465   -0.0111883   -7.7895685  
C    8.1847308    0.0038987   -6.3773512  
N    6.9165240    0.0053560   -5.8517420  
C    9.4257924    0.0161027   -5.7336056  
C   10.5544806    0.0127132   -6.5299912  
O   11.7915719    0.0238452   -5.9533674  
C   10.4435974   -0.0018946   -7.9407736  
O   11.6588409   -0.0030684   -8.5938627  
C    9.2195860   -0.0136662   -8.5765273  
H    6.1893915   -0.0320494   -9.0495175  
H    9.5329072    0.0277716   -4.6576918  
H   12.4305734    0.0194221   -6.6778830  
H   11.4946901   -0.0133061   -9.5417832  
H    9.1660522   -0.0245522   -9.6588832  
H    4.9403951   -0.0137114   -6.6602792  
C    6.5907972    0.0037509   -4.4182844  
C    5.3731494    0.0029998   -3.8171113  
C    5.6071058    0.0014825   -2.3922963  
C    7.0713654    0.0014398   -2.2113661  
N    7.6095208    0.0024507   -3.4775716  
C    7.6973068    0.0005987   -1.0072486  
C    6.8738981   -0.0005525    0.1904707  
O    7.3427974   -0.0014291    1.3211488  
C    5.3209694   -0.0007806    0.0224890  
O    4.6174378   -0.0020529    1.0236397  
C    4.7630507    0.0004755   -1.3275395  
H    4.4198609    0.0032743   -4.3149605  
H    8.7727861    0.0007137   -0.8965432  
H    8.5911177    0.0042330   -3.6861682  
C    3.3003548    0.0005276   -1.4738982  
C    2.5232817    0.0003497   -2.6090743  
C    1.1623204   -0.0001319   -2.1820101  
C    1.1711886    0.0000583   -0.7636140  
N    2.4852302   -0.0014919   -0.3662356  
C    0.0000000    0.0000000    0.0000000  
C   -1.2020379    0.0000520   -0.6806479  
O   -2.3759249    0.0003495    0.0157742  
C   -1.2314652   -0.0005112   -2.0955511  
O   -2.5054384   -0.0008036   -2.6250184  
C   -0.0764510   -0.0007271   -2.8495195  
H    2.8919962   -0.0005619   -3.6205297  
H    2.8036267    0.0088181    0.5858667  
H   -3.0835636    0.0000348   -0.6418823  
H   -2.4360038   -0.0011526   -3.5845925  
H   -0.1304090   -0.0013420   -3.9319089  
C    2.5285572    2.1210227    2.9438989  
C    1.9331703    1.6216660    4.0790748  
C    0.8903039    0.7472258    3.6520102  
C    0.8972198    0.7527806    2.2336141  
N    1.9028376    1.5986179    1.8362361  
C    0.0000000    0.0000000    1.4700000  
C   -0.9207814   -0.7726952    2.1506477  
O   -1.8198395   -1.5274828    1.4542253  
C   -0.9436862   -0.7911793    3.5655508  
O   -1.9197945   -1.6098497    4.0950179  
C   -0.0590329   -0.0485852    4.3195194  
H    2.2150357    1.8593692    5.0905303  
H    2.1533708    1.7953814    0.8841339  
H   -2.3621246   -1.9821033    2.1118817  
H   -1.8668290   -1.5649508    5.0545920  
H   -0.1007624   -0.0827977    5.4019087  
H    3.3491200    2.8096064    2.8367138  
