64

C   -0.3030212   -0.4454259   -9.6551713  
C   -0.7776061    0.7820663   -9.2545470  
C   -0.4478555    1.7122899  -10.2843770  
C    0.2328743    0.9885252  -11.2966500  
N    0.3054145   -0.3181376  -10.8819365  
C    0.7067054    1.5889480  -12.4670194  
C    0.4891174    2.9446461  -12.6183995  
O    0.9305907    3.5812026  -13.7421913  
C   -0.1877341    3.6840263  -11.6193974  
O   -0.3258042    5.0240084  -11.9172692  
C   -0.6552160    3.0924023  -10.4644212  
H    0.7249905   -1.0689498  -11.3998341  
H    1.2263947    1.0429142  -13.2422448  
H    0.6792988    4.5091262  -13.6469289  
H   -0.7930170    5.4501842  -11.1922241  
H   -1.1699745    3.6845314   -9.7168358  
H   -0.3491322   -1.4013868   -9.1622500  
C   -0.1938777   -0.6741357   -5.1271791  
C   -0.0850112   -0.4444576   -6.4611477  
C   -1.1306716    0.4863328   -6.8147845  
C   -1.8628865    0.7822420   -5.5685545  
N   -1.2456329    0.0471727   -4.5828766  
C   -2.9252687    1.6222089   -5.4819281  
C   -3.3778801    2.2784531   -6.6972557  
O   -4.3258446    3.0524080   -6.7229092  
C   -2.6173816    1.9795654   -8.0284638  
O   -2.9895257    2.5259815   -9.0581235  
C   -1.4861970    1.0558654   -7.9960431  
H    0.6444308   -0.8777807   -7.1220245  
H   -3.4482354    1.8256019   -4.5577812  
H    0.4056142   -1.3098174   -4.4959836  
C    1.1243410    0.0099923   -0.7919003  
C    0.7474076    0.0234544   -2.1148543  
C   -0.6787381    0.0234490   -2.1414700  
C   -1.1201745    0.0098592   -0.7935546  
N    0.0000000    0.0000000    0.0000000  
C   -2.4730816    0.0063709   -0.4408240  
C   -3.3971958    0.0170982   -1.4675058  
O   -4.7313517    0.0146259   -1.1793471  
C   -2.9763648    0.0303504   -2.8186324  
O   -4.0166480    0.0395118   -3.7247624  
C   -1.6418562    0.0335260   -3.1673481  
H    1.4178717    0.0310972   -2.9571209  
H   -2.8160166   -0.0041111    0.5845966  
H   -5.1938818    0.0230867   -2.0274384  
H   -3.6464675    0.0482293   -4.6127343  
H    2.1062467    0.0052819   -0.3505407  
C    2.5285572    2.1210227    2.9438989  
C    1.9331703    1.6216660    4.0790748  
C    0.8903039    0.7472258    3.6520102  
C    0.8972198    0.7527806    2.2336141  
N    1.9028376    1.5986179    1.8362361  
C    0.0000000    0.0000000    1.4700000  
C   -0.9207814   -0.7726952    2.1506477  
O   -1.8198395   -1.5274828    1.4542253  
C   -0.9436862   -0.7911793    3.5655508  
O   -1.9197945   -1.6098497    4.0950179  
C   -0.0590329   -0.0485852    4.3195194  
H    2.2150357    1.8593692    5.0905303  
H    2.1533708    1.7953814    0.8841339  
H   -2.3621246   -1.9821033    2.1118817  
H   -1.8668290   -1.5649508    5.0545920  
H   -0.1007624   -0.0827977    5.4019087  
H    3.3491200    2.8096064    2.8367138  
