64

C   -5.8748395    0.7195084    0.6862383  
C   -6.2225038    0.4712592    1.9938968  
C   -7.3224057   -0.4365396    1.9671433  
C   -7.6039782   -0.7091830    0.6039455  
N   -6.7078559    0.0102461   -0.1470561  
C   -8.6307915   -1.5682705    0.2009414  
C   -9.3869424   -2.1631956    1.1921416  
O  -10.4018800   -3.0110287    0.8543639  
C   -9.1216175   -1.9034042    2.5577655  
O   -9.9622472   -2.5712613    3.4241666  
C   -8.1089755   -1.0557936    2.9560605  
H   -5.7431146    0.8934874    2.8604431  
H   -8.8505676   -1.7801003   -0.8363762  
H  -10.7950181   -3.3106553    1.6843829  
H   -9.7157617   -2.3409425    4.3251678  
H   -7.9295219   -0.8759648    4.0095960  
H   -5.0994889    1.3475016    0.2819931  
C   -3.2578655    0.0024039   -2.9908504  
C   -4.0349370    0.0043532   -1.8556749  
C   -5.3958978    0.0056152   -2.2827396  
C   -5.3870307    0.0040534   -3.7011352  
N   -4.0729888    0.0040717   -4.0985144  
C   -6.5582195    0.0044024   -4.4647484  
C   -7.7602566    0.0060568   -3.7841010  
O   -8.9341438    0.0061170   -4.4805224  
C   -7.7896819    0.0080061   -2.3691991  
O   -9.0636544    0.0099227   -1.8397323  
C   -6.6346679    0.0079364   -1.6152312  
H   -3.6662215    0.0059147   -0.8442207  
H   -3.7546023   -0.0074325   -5.0506064  
H   -6.5582208    0.0033628   -5.5460445  
H   -9.6417821    0.0076829   -3.8228672  
H   -8.9942190    0.0111335   -0.8801591  
C    0.0000000    0.0000000    0.0000000  
C    1.0521667   -0.0011902   -0.8862342  
C    0.4917216   -0.0011957   -2.1979129  
C   -0.9187429    0.0003148   -2.0478680  
N   -1.1833171   -0.0009412   -0.7007912  
C   -1.7951702    0.0010350   -3.1372088  
C   -1.2375841    0.0005225   -4.4010424  
O   -2.0474217    0.0015360   -5.4997576  
C    0.1673577   -0.0013567   -4.5711964  
O    0.5673522   -0.0020688   -5.8915554  
C    1.0325769   -0.0023413   -3.4969890  
H    2.0953057   -0.0030649   -0.6200562  
H   -2.0989779    0.0102372   -0.2891821  
H   -1.4634887    0.0006498   -6.2693588  
H    1.5290708   -0.0033153   -5.9180049  
H    2.1042148   -0.0039610   -3.6584453  
C    0.0000000    0.0000000    1.4700000  
C    1.0541688    0.0001722    2.3260392  
C    0.5103138    0.0000454    3.6635956  
C   -0.9576371   -0.0002459    3.5155732  
N   -1.2018458    0.0001392    2.1615969  
C   -1.8348311   -0.0008317    4.5510609  
C   -1.2972847   -0.0009736    5.9014604  
O   -2.0050672   -0.0014265    6.9001319  
C    0.2542623   -0.0004184    6.0817573  
O    0.7184670   -0.0002256    7.2139121  
C    1.0974552   -0.0000873    4.8889129  
H    2.0940752    0.0005483    2.0517982  
H   -2.9081052   -0.0011668    4.4207061  
H    2.1707277    0.0000911    5.0223670  
H   -2.1128194   -0.0014912    1.7406791  
