60

C   -0.4717745    0.0181293   -8.8129927  
C    0.3004581   -0.6577627   -9.7291228  
C   -0.1765042   -0.2954668  -11.0236681  
C   -1.2497125    0.6121336  -10.8328502  
N   -1.4037916    0.7791563   -9.4789743  
C   -1.9599538    1.1777604  -11.8960589  
C   -1.5796763    0.8208997  -13.1752057  
O   -2.2390997    1.3439606  -14.2497201  
C   -0.5116676   -0.0834016  -13.3859515  
O   -0.2542165   -0.3390241  -14.7170100  
C    0.1892709   -0.6420026  -12.3375350  
H    1.1074743   -1.3301630   -9.4933354  
H   -2.0824694    1.3756863   -9.0413341  
H   -2.7789550    1.8699908  -11.7572913  
H   -1.8208252    0.9691110  -15.0357227  
H    0.4801797   -0.9581508  -14.7713075  
H    1.0026310   -1.3318640  -12.5299274  
C    2.1451928   -2.0951773   -5.9900943  
C    1.6340471   -1.6323753   -4.8202142  
C    0.5538824   -0.7357923   -5.1581773  
C    0.4770636   -0.7140558   -6.6314112  
N    1.4686360   -1.5584203   -7.0749457  
C   -0.4180296    0.0158496   -7.3439773  
C   -1.3690895    0.8348539   -6.6110028  
O   -2.2145428    1.5279315   -7.1615959  
C   -1.3057474    0.8272854   -5.0503184  
O   -2.1011642    1.5130918   -4.4224310  
C   -0.2963293   -0.0005341   -4.3948471  
H    1.9749143   -1.8895633   -3.8331592  
H    2.9593495   -2.7830348   -6.1509984  
H    1.6685742   -1.7560269   -8.0382850  
C    3.1301146   -0.0010313   -1.7028256  
C    2.5367765   -0.0002766   -0.4864669  
C    1.1089901    0.0001027   -0.7656184  
C    1.0177865   -0.0004150   -2.2415133  
N    2.1993571   -0.0011612   -2.7963824  
C   -0.2459219   -0.0002879   -2.9257116  
C   -1.3675326   -0.0000606   -2.1698520  
O   -2.6129318    0.0000865   -2.6748483  
C   -1.3083588    0.0000910   -0.6783229  
O   -2.3693264    0.0004206   -0.0541685  
C    0.0000000    0.0000000    0.0000000  
H    3.0096016   -0.0001007    0.4807518  
H   -3.1967444    0.0002093   -1.8949026  
H    4.1849275   -0.0015114   -1.9271979  
C    2.3971438    2.0127888    3.1728260  
C    1.9431056    1.6308205    1.9564670  
C    0.8496017    0.7127664    2.2356185  
C    0.7794028    0.6545384    3.7115134  
N    1.6840587    1.4146091    4.2663826  
C   -0.1885723   -0.1578550    4.3957118  
C   -1.0476298   -0.8789867    3.6398520  
O   -2.0015663   -1.6796266    4.1448486  
C   -1.0022026   -0.8410666    2.1483229  
O   -1.8147390   -1.5232959    1.5241687  
C    0.0000000    0.0000000    1.4700000  
H    2.3054237    1.9346118    0.9892483  
H   -0.2170646   -0.1815267    5.4753125  
H   -2.4487139   -2.0549881    3.3649027  
H    3.2048689    2.6911772    3.3971983  
