62

C    4.0744881   -3.5735066   -5.6013760  
C    4.9790531   -4.3473606   -6.2908544  
C    4.6953986   -4.1823087   -7.6789815  
C    3.5982975   -3.2885275   -7.7762050  
N    3.2447015   -2.9396840   -6.4964023  
C    3.0480981   -2.8968484   -9.0004012  
C    3.6159509   -3.4166723  -10.1473555  
O    3.1180320   -3.0672237  -11.3692297  
C    4.7108229   -4.3101051  -10.0708665  
O    5.1640210   -4.7404849  -11.3007965  
C    5.2539466   -4.6971530   -8.8635001  
H    5.7479725   -4.9568100   -5.8477654  
H    2.2118784   -2.2161117   -9.0812510  
H    3.6508268   -3.5352808  -12.0252152  
H    5.9034924   -5.3395836  -11.1598436  
H    6.0924821   -5.3831536   -8.8363160  
H    3.9546421   -3.4246431   -4.5419256  
C    2.1601074   -2.0149550   -6.1366351  
C    1.7671251   -1.6323651   -4.8993926  
C    0.6609148   -0.7146343   -5.1242671  
C    0.5173097   -0.6572546   -6.5948688  
N    1.3933529   -1.4175035   -7.1936662  
C   -0.4836753    0.1546046   -7.2304781  
C   -1.3041631    0.8760356   -6.4331879  
O   -2.2822030    1.6762454   -6.8905103  
C   -1.1845240    0.8389688   -4.9457495  
O   -1.9650988    1.5214299   -4.2822957  
C   -0.1496415   -0.0015615   -4.3176961  
H    2.1772049   -1.9355528   -3.9512431  
H   -0.5658887    0.1776593   -8.3073340  
H   -2.6900306    2.0519822   -6.0894787  
C    3.3003543    0.0005276   -1.4738987  
C    2.5232814    0.0003497   -2.6090747  
C    1.1623200   -0.0001320   -2.1820103  
C    1.1711883    0.0000582   -0.7636140  
N    2.4852300   -0.0014919   -0.3662360  
C    0.0000000    0.0000000    0.0000000  
C   -1.2020384    0.0000519   -0.6806477  
O   -2.3759249    0.0003493    0.0157743  
C   -1.2314656   -0.0005115   -2.0955510  
O   -2.5054392   -0.0008039   -2.6250180  
C   -0.0764516   -0.0007274   -2.8495195  
H    2.8919955   -0.0005620   -3.6205304  
H    2.8036267    0.0088183    0.5858662  
H   -3.0835638    0.0000347   -0.6418818  
H   -2.4360047   -0.0011529   -3.5845921  
H    4.3715549    0.0004895   -1.3667136  
C    0.8175213    0.6860729    2.3021913  
C    0.0000000    0.0000000    1.4700000  
C   -0.8887526   -0.7456559    2.3478473  
C   -0.4549825   -0.3816753    3.7138435  
N    0.5448156    0.4573574    3.6934124  
C   -1.0945674   -0.9182058    4.8835240  
C   -2.1210866   -1.7789155    4.6970523  
O   -2.8083856   -2.3554314    5.6976972  
C   -2.5824069   -2.1655116    3.3310774  
O   -3.5227682   -2.9541547    3.2362962  
C   -1.9100805   -1.6015804    2.1470656  
H   -0.7567140   -0.6349833    5.8697035  
H   -3.4728268   -2.9124471    5.2533954  
H   -2.2742832   -1.9066565    1.1752040  
H    1.6189533    1.3585343    2.0405121  
