60

C   -7.7039669   -0.0209486   -2.0437484  
C   -8.4396161    0.6542650   -1.0975059  
C   -9.8049411    0.2915787   -1.2948514  
C   -9.8412699   -0.6155494   -2.3846794  
N   -8.5490217   -0.7819271   -2.8171457  
C  -11.0287853   -1.1813810   -2.8584206  
C  -12.2009458   -0.8252149   -2.2201693  
O  -13.3889612   -1.3485045   -2.6418341  
C  -12.1851885    0.0786074   -1.1312827  
O  -13.4336433    0.3335572   -0.6024144  
C  -11.0140748    0.6374102   -0.6635659  
H   -8.0413168    1.3264751   -0.3569084  
H   -8.2619542   -1.3780207   -3.5722916  
H  -11.0632119   -1.8732541   -3.6886790  
H  -14.0708691   -0.9741485   -2.0690118  
H  -13.3341723    0.9523940    0.1274831  
H  -11.0332723    1.3268929    0.1723307  
C   -4.3991018    2.0926372   -0.0704356  
C   -3.3610091    1.6305297   -0.8140045  
C   -3.9159997    0.7341915   -1.8006144  
C   -5.3729686    0.7118418   -1.5692438  
N   -5.6007885    1.5556536   -0.5067139  
C   -6.2559170   -0.0180489   -2.2968190  
C   -5.7365716   -0.8363894   -3.3799320  
O   -6.4507771   -1.5294002   -4.0926372  
C   -4.1968644   -0.8281649   -3.6426855  
O   -3.7479707   -1.5134097   -4.5516379  
C   -3.3460097   -0.0004262   -2.7913647  
H   -2.3247243    1.8880235   -0.6858468  
H   -4.3873341    2.7801296    0.7596882  
H   -6.5015168    1.7527684   -0.1106326  
C    0.0000000    0.0000000    0.0000000  
C    1.0662919   -0.0000103   -0.8334272  
C    0.4961868    0.0000066   -2.1718889  
C   -0.9663860   -0.0000849   -1.9540248  
N   -1.2632775   -0.0000084   -0.6828659  
C   -1.8985364   -0.0000515   -3.0477258  
C   -1.3925778    0.0004567   -4.3020543  
O   -2.1456385    0.0005412   -5.4151314  
C    0.0786229    0.0009326   -4.5544999  
O    0.4683756    0.0012594   -5.7221104  
C    1.0143162    0.0008443   -3.4159034  
H    2.1107195    0.0000631   -0.5721869  
H   -1.5042277    0.0009692   -6.1484420  
H    2.0724151    0.0013151   -3.6409746  
C    3.1301144    0.0010313    3.1728260  
C    2.5367765    0.0002768    1.9564670  
C    1.1089900   -0.0001027    2.2356185  
C    1.0177864    0.0004150    3.7115134  
N    2.1993570    0.0011613    4.2663826  
C   -0.2459220    0.0002880    4.3957118  
C   -1.3675327    0.0000606    3.6398520  
O   -2.6129319   -0.0000866    4.1448486  
C   -1.3083589   -0.0000910    2.1483229  
O   -2.3693264   -0.0004206    1.5241687  
C    0.0000000    0.0000000    1.4700000  
H    3.0096015    0.0001008    0.9892483  
H   -0.2829642    0.0004689    5.4753125  
H   -3.1967446   -0.0002093    3.3649027  
H    4.1849273    0.0015113    3.3971983  
