64

C   -0.0765488    0.7176771   -7.3872063  
C    1.0649055   -0.0025084   -7.6534432  
C    0.8265996   -0.7307629   -8.8565456  
C   -0.4883230   -0.4121209   -9.2824247  
N   -1.0090578    0.4682452   -8.3667780  
C   -1.0602081   -0.9511081  -10.4388108  
C   -0.2905579   -1.8274965  -11.1789185  
O   -0.7997597   -2.3826752  -12.3171211  
C    1.0233740   -2.1580732  -10.7701163  
O    1.6611745   -3.0448059  -11.6128847  
C    1.5880970   -1.6269375   -9.6292794  
H   -1.9242084    0.8786813   -8.4117406  
H   -2.0618923   -0.7123902  -10.7687266  
H   -0.1087503   -2.9555976  -12.6742365  
H    2.5419388   -3.2149719  -11.2651748  
H    2.5968170   -1.8989638   -9.3412449  
H   -0.2998132    1.3884327   -6.5752958  
C    1.6707638   -0.0012342   -3.2725973  
C    3.0463714   -0.0037164   -3.2854244  
C    3.4499894   -0.0054220   -4.6535216  
C    2.2671973   -0.0035693   -5.4364170  
N    1.2050907   -0.0029951   -4.5666196  
C    2.2856094   -0.0042198   -6.8344328  
C    3.5205408   -0.0064805   -7.4533964  
O    3.5962543   -0.0068568   -8.8162176  
C    4.7118869   -0.0087282   -6.6895200  
O    5.8613546   -0.0112480   -7.4524500  
C    4.6944757   -0.0083610   -5.3103089  
H    3.6808652   -0.0053392   -2.4157072  
H    0.2370773    0.0088260   -4.8326874  
H    4.5366392   -0.0088321   -9.0374362  
H    6.6195097   -0.0126261   -6.8601638  
H    5.6233653   -0.0103041   -4.7520629  
C    1.0965515    0.0001359   -0.8010305  
C    0.0000000    0.0000000    0.0000000  
C   -1.1546564    0.0001470   -0.8669509  
C   -0.6372018    0.0003521   -2.2486279  
N    0.7342868    0.0007339   -2.1395011  
C   -1.4147743    0.0001355   -3.3608714  
C   -2.8576049   -0.0001046   -3.1854455  
O   -3.6427782   -0.0002491   -4.1244898  
C   -3.4275842   -0.0000725   -1.7311664  
O   -4.6406831    0.0000334   -1.5710053  
C   -2.4891868   -0.0001091   -0.6116742  
H   -1.0150456    0.0001619   -4.3654242  
H   -2.8919123   -0.0002920    0.3920869  
H    2.1388270    0.0000663   -0.5261648  
C    0.8676693    0.7151171    2.2619005  
C    0.5875920    0.4624972    3.5848544  
C   -0.5048400   -0.4542819    3.6114698  
C   -0.8517165   -0.7276451    2.2635546  
N    0.0000000    0.0000000    1.4700000  
C   -1.8902865   -1.5946756    1.9108239  
C   -2.5912627   -2.1969500    2.9375057  
O   -3.6148162   -3.0527051    2.6493466  
C   -2.2603868   -1.9365747    4.2886322  
O   -3.0513550   -2.6123276    5.1947621  
C   -1.2361111   -1.0811317    4.6373480  
H    1.1060808    0.8876438    4.4271209  
H   -2.1597133   -1.8070987    0.8854031  
H   -3.9636755   -3.3565188    3.4974381  
H   -2.7621927   -2.3810384    6.0827341  
H   -1.0058879   -0.9010589    5.6809233  
H    1.6167816    1.3499334    1.8205408  
