62

C    5.9956985   -0.0113347   -6.8730895  
C    6.6564891   -0.0208163   -8.0796272  
C    8.0530465   -0.0111883   -7.7895685  
C    8.1847308    0.0038987   -6.3773512  
N    6.9165240    0.0053560   -5.8517420  
C    9.4257924    0.0161027   -5.7336056  
C   10.5544806    0.0127132   -6.5299912  
O   11.7915719    0.0238452   -5.9533674  
C   10.4435974   -0.0018946   -7.9407736  
O   11.6588409   -0.0030684   -8.5938627  
C    9.2195860   -0.0136662   -8.5765273  
H    6.1893915   -0.0320494   -9.0495175  
H    9.5329072    0.0277716   -4.6576918  
H   12.4305734    0.0194221   -6.6778830  
H   11.4946901   -0.0133061   -9.5417832  
H    9.1660522   -0.0245522   -9.6588832  
H    4.9403951   -0.0137114   -6.6602792  
C    6.5907972    0.0037509   -4.4182844  
C    5.3731494    0.0029998   -3.8171113  
C    5.6071058    0.0014825   -2.3922963  
C    7.0713654    0.0014398   -2.2113661  
N    7.6095208    0.0024507   -3.4775716  
C    7.6973068    0.0005987   -1.0072486  
C    6.8738981   -0.0005525    0.1904707  
O    7.3427974   -0.0014291    1.3211488  
C    5.3209694   -0.0007806    0.0224890  
O    4.6174378   -0.0020529    1.0236397  
C    4.7630507    0.0004755   -1.3275395  
H    4.4198609    0.0032743   -4.3149605  
H    8.7727861    0.0007137   -0.8965432  
H    8.5911177    0.0042330   -3.6861682  
C    3.3003548    0.0005276   -1.4738982  
C    2.5232817    0.0003497   -2.6090743  
C    1.1623204   -0.0001319   -2.1820101  
C    1.1711886    0.0000583   -0.7636140  
N    2.4852302   -0.0014919   -0.3662356  
C    0.0000000    0.0000000    0.0000000  
C   -1.2020379    0.0000520   -0.6806479  
O   -2.3759249    0.0003495    0.0157742  
C   -1.2314652   -0.0005112   -2.0955511  
O   -2.5054384   -0.0008036   -2.6250184  
C   -0.0764510   -0.0007271   -2.8495195  
H    2.8919962   -0.0005619   -3.6205297  
H    2.8036267    0.0088181    0.5858667  
H   -3.0835636    0.0000348   -0.6418823  
H   -2.4360038   -0.0011526   -3.5845925  
H   -0.1304090   -0.0013420   -3.9319089  
C    0.8175213    0.6860729    2.3021913  
C    0.0000000    0.0000000    1.4700000  
C   -0.8887526   -0.7456559    2.3478473  
C   -0.4549825   -0.3816753    3.7138435  
N    0.5448156    0.4573574    3.6934124  
C   -1.0945674   -0.9182058    4.8835240  
C   -2.1210866   -1.7789155    4.6970523  
O   -2.8083856   -2.3554314    5.6976972  
C   -2.5824069   -2.1655116    3.3310774  
O   -3.5227682   -2.9541547    3.2362962  
C   -1.9100805   -1.6015804    2.1470656  
H   -0.7567140   -0.6349833    5.8697035  
H   -3.4728268   -2.9124471    5.2533954  
H   -2.2742832   -1.9066565    1.1752040  
H    1.6189533    1.3585343    2.0405121  
