62

C    6.7142468   -3.0499284   -4.1220452  
C    7.7347817   -3.6971398   -4.7793835  
C    8.4179268   -4.4895970   -3.8098872  
C    7.7635471   -4.2839603   -2.5683445  
N    6.7349550   -3.4029779   -2.7930320  
C    8.1701060   -4.9102760   -1.3863009  
C    9.2568690   -5.7598882   -1.4589696  
O    9.6956737   -6.3976532   -0.3348159  
C    9.9231453   -5.9776340   -2.6883922  
O   10.9874079   -6.8507333   -2.5968284  
C    9.5227799   -5.3598849   -3.8548489  
H    7.9599109   -3.6080935   -5.8283737  
H    6.0878743   -3.0768928   -2.0980962  
H    7.6756994   -4.7576389   -0.4368449  
H   10.4531533   -6.9338281   -0.6031572  
H   11.3815728   -6.9423968   -3.4696603  
H   10.0528777   -5.5460288   -4.7815776  
C    5.7035977   -2.1123450   -4.6323644  
C    5.5262376   -1.6495152   -5.8966459  
C    4.3945371   -0.7534730   -5.8620425  
C    3.9237589   -0.7320388   -4.4639369  
N    4.7591256   -1.5766813   -3.7699398  
C    2.8699641   -0.0020530   -4.0185824  
C    2.1513540    0.8170174   -4.9804861  
O    1.1888856    1.5100763   -4.6777905  
C    2.6323965    0.8093819   -6.4665365  
O    2.0350136    1.4947736   -7.2854580  
C    3.7812672   -0.0180950   -6.8260219  
H    6.1202740   -1.9066244   -6.7554990  
H    4.1081454   -0.0176478   -7.8569795  
H    4.6940935   -1.7721469   -2.7877935  
C    3.2573670   -0.0002921   -1.5109382  
C    2.5379468   -0.0001711   -0.3591962  
C    1.1435043    0.0000330   -0.7338498  
C    1.1092608   -0.0000085   -2.2088474  
N    2.4227562    0.0001906   -2.6182610  
C   -0.0265533   -0.0002525   -2.9515663  
C   -1.3003033   -0.0002641   -2.2514979  
O   -2.3786785   -0.0004132   -2.8306425  
C   -1.2877724    0.0000310   -0.6895608  
O   -2.3539956    0.0003306   -0.0892035  
C    0.0000000    0.0000000    0.0000000  
H    2.9384091   -0.0000370    0.6389240  
H   -0.0296290   -0.0004088   -4.0327231  
H    4.3270394   -0.0004767   -1.6439445  
C    2.5311839    2.1237619    3.0120429  
C    1.9795631    1.6616747    1.8395852  
C    0.9223175    0.7739173    2.1983588  
C    0.8753926    0.7337535    3.6154372  
N    1.8668922    1.5631002    4.0777464  
C   -0.0496243   -0.0427881    4.3197917  
C   -0.9437528   -0.7922060    3.5801400  
O   -1.8685244   -1.5680278    4.2172520  
C   -0.9124520   -0.7656372    2.1655264  
O   -1.8671164   -1.5663939    1.5732860  
C    0.0000000    0.0000000    1.4700000  
H    2.3005065    1.9304404    0.8477417  
H    2.0679347    1.7444845    5.0445261  
H   -0.0904770   -0.0778569    5.3997470  
H   -2.3849669   -2.0011402    3.5251786  
H   -1.7775064   -1.4909735    0.6183591  
H    3.3468514    2.8078103    3.1724291  
