66

C    7.5914502   -0.9993503   -4.4070947  
C    8.8690221   -0.5854687   -4.7053887  
C    8.8043476    0.8171786   -4.9563824  
C    7.4501294    1.2069149   -4.7947472  
N    6.7404106    0.0795013   -4.4633029  
C    7.0169696    2.5252030   -4.9658537  
C    7.9682650    3.4672711   -5.3060352  
O    7.5998905    4.7693096   -5.4849449  
C    9.3242646    3.0978268   -5.4721491  
O   10.1494984    4.1500679   -5.8114433  
C    9.7522542    1.7974422   -5.3037716  
H    9.7402037   -1.2170512   -4.7391306  
H    5.9862757    2.8286602   -4.8442569  
H    8.4047945    5.2517283   -5.7144405  
H   11.0466349    3.8152569   -5.9044585  
H   10.7974661    1.5444297   -5.4379242  
H    7.2197079   -1.9790215   -4.1600905  
C    4.3849896   -2.1304616   -1.4422212  
C    3.1441137   -1.6666549   -1.8131355  
C    3.3426742   -0.7794830   -2.9122715  
C    4.7370042   -0.7414321   -3.1698020  
N    5.3406529   -1.5714195   -2.2580201  
C    5.2968246    0.0340156   -4.1896401  
C    4.4333179    0.7844918   -4.9637971  
O    4.9266826    1.5593202   -5.9733750  
C    3.0391176    0.7600316   -4.7220874  
O    2.3124334    1.5616245   -5.5780803  
C    2.4861704   -0.0045255   -3.7159919  
H    2.2107611   -1.9339277   -1.3479353  
H    6.3263281   -1.7542341   -2.2032048  
H    4.1660274    1.9934381   -6.3810641  
H    1.3814040    1.4876307   -5.3471836  
H    4.6641025   -2.8147094   -0.6593675  
C    0.0000000    0.0000000    0.0000000  
C    1.0521669   -0.0011848   -0.8862341  
C    0.4917221   -0.0011931   -2.1979130  
C   -0.9187427    0.0003100   -2.0478683  
N   -1.1833170   -0.0009472   -0.7007915  
C   -1.7951698    0.0010259   -3.1372090  
C   -1.2375835    0.0005161   -4.4010425  
O   -2.0474208    0.0015256   -5.4997580  
C    0.1673584   -0.0013557   -4.5711962  
O    0.5673529   -0.0020659   -5.8915551  
C    1.0325773   -0.0023359   -3.4969890  
H    2.0953059   -0.0030542   -0.6200560  
H   -2.0989777    0.0102265   -0.2891825  
H   -2.8710930    0.0020274   -3.0295514  
H   -1.4634881    0.0006427   -6.2693593  
H    1.5290715   -0.0033076   -5.9180042  
C    1.1188642   -0.0008217    2.2703808  
C    0.0000000    0.0000000    1.4700000  
C   -1.1323862   -0.0008904    2.3373528  
C   -0.6382662   -0.0019682    3.6669281  
N    0.7324016   -0.0038477    3.5902241  
C   -1.4770914   -0.0027325    4.7854808  
C   -2.8395474   -0.0020958    4.5576857  
O   -3.7039201   -0.0024443    5.6140350  
C   -3.3517868   -0.0013946    3.2384331  
O   -4.7300496   -0.0012389    3.1773122  
C   -2.5248543   -0.0009135    2.1344818  
H    1.3576314    0.0056174    4.3757045  
H   -1.1067570   -0.0036993    5.8013813  
H   -4.5940033   -0.0021850    5.2385129  
H   -4.9934601   -0.0007286    2.2519915  
H   -2.9462578   -0.0005617    1.1360343  
H    2.1619896   -0.0009344    2.0042067  
