64

C    1.6872041   -3.1061213  -10.0742517  
C    1.9296030   -2.3055468  -11.1664007  
C    1.5485585   -0.9797423  -10.8035696  
C    1.0772789   -1.0332387   -9.4667968  
N    1.1732946   -2.3392635   -9.0548529  
C    0.6176054    0.0952460   -8.7812236  
C    0.6342678    1.2997294   -9.4573291  
O    0.1968590    2.4330539   -8.8350257  
C    1.1004391    1.3732831  -10.7915305  
O    1.0537777    2.6437252  -11.3273871  
C    1.5538114    0.2603637  -11.4685758  
H    2.3305883   -2.6366249  -12.1090529  
H    0.9210603   -2.6808844   -8.1450976  
H    0.2920394    3.1501881   -9.4752772  
H    1.3856056    2.6056407  -12.2296314  
H    1.9047542    0.3475474  -12.4901993  
H    1.8388947   -4.1637252   -9.9422608  
C    2.0234324   -2.1203367   -5.1612091  
C    1.8898405   -1.6210653   -6.4361003  
C    0.7628122   -0.7468331   -6.4249093  
C    0.2448267   -0.7524210   -5.1044597  
N    1.0324260   -1.5980774   -4.3633998  
C   -0.8712826    0.0001710   -4.7267111  
C   -1.4753121    0.7727082   -5.6995997  
O   -2.5682872    1.5273083   -5.3849617  
C   -0.9734765    0.7912225   -7.0227155  
O   -1.6848160    1.6097207   -7.8755935  
C    0.1273886    0.0488144   -7.3961488  
H    2.5257350   -1.8586903   -7.2716639  
H    0.9132302   -1.7948165   -3.3861244  
H   -2.8290819    1.9818422   -6.1965340  
H   -1.2808198    1.5648553   -8.7475895  
H    2.7463507   -2.8087674   -4.7582059  
C    1.0965514    0.0001359   -0.8010305  
C    0.0000000    0.0000000    0.0000000  
C   -1.1546563    0.0001470   -0.8669513  
C   -0.6372014    0.0003519   -2.2486282  
N    0.7342871    0.0007337   -2.1395014  
C   -1.4147739    0.0001352   -3.3608717  
C   -2.8576049   -0.0001048   -3.1854462  
O   -3.6427779   -0.0002494   -4.1244907  
C   -3.4275840   -0.0000725   -1.7311666  
O   -4.6406831    0.0000333   -1.5710060  
C   -2.4891867   -0.0001091   -0.6116744  
H   -2.8919122   -0.0002918    0.3920866  
H    2.1388272    0.0000663   -0.5261648  
H    1.3735872   -0.0006099   -2.9130262  
C    0.8576279    0.7185626    2.2703808  
C    0.0000000    0.0000000    1.4700000  
C   -0.8668858   -0.7285659    2.3373528  
C   -0.4876752   -0.4117774    3.6669281  
N    0.5635254    0.4678311    3.5902241  
C   -1.1297612   -0.9515493    4.7854808  
C   -2.1738724   -1.8268314    4.5576857  
O   -2.8357962   -2.3827064    5.6140350  
C   -2.5667212   -2.1555554    3.2384331  
O   -3.6226318   -3.0413663    3.1773122  
C   -1.9335634   -1.6236449    2.1344818  
H    1.0363952    0.8769718    4.3757045  
H   -0.8454472   -0.7142436    5.8013813  
H   -3.5178062   -2.9546422    5.2385129  
H   -3.8247440   -3.2102924    2.2519915  
H   -2.2566033   -1.8942483    1.1360343  
H    1.6567807    1.3889844    2.0042067  
