64

C    5.1112576   -2.3634472   -4.7661055  
C    6.3594735   -2.5679010   -5.3070520  
C    6.7676422   -1.3322214   -5.8910846  
C    5.7189044   -0.4023800   -5.6732073  
N    4.7279121   -1.0616666   -4.9891806  
C    5.7787310    0.9224805   -6.1158741  
C    6.9181353    1.3159204   -6.7905159  
O    7.0290046    2.5984279   -7.2442718  
C    7.9750630    0.4026942   -7.0179778  
O    9.0412371    0.9462299   -7.7044079  
C    7.9166101   -0.9045376   -6.5817965  
H    6.9078363   -3.4940686   -5.2845529  
H    4.9827688    1.6360331   -5.9531228  
H    7.8887794    2.6603834   -7.6804090  
H    9.7105779    0.2642367   -7.8160866  
H    8.7417737   -1.5811550   -6.7709325  
H    4.4634776   -3.0436008   -4.2400533  
C    2.8405930   -0.6921304   -3.3577779  
C    3.4605005   -0.4644315   -4.5443457  
C    2.6384058    0.4700284   -5.2763162  
C    1.4804509    0.7702475   -4.4127198  
N    1.6628945    0.0339172   -3.2649299  
C    0.4713974    1.6144620   -4.7456129  
C    0.5296133    2.2710568   -6.0410008  
O   -0.3306372    3.0486818   -6.4328793  
C    1.7466552    1.9676500   -6.9718926  
O    1.8063681    2.5143193   -8.0649834  
C    2.7724682    1.0395721   -6.5026049  
H   -0.3689181    1.8209730   -4.0974365  
H    3.6119862    0.8350138   -7.1530580  
H    3.1449059   -1.3294165   -2.5434381  
C    1.1243410    0.0100105   -0.7919003  
C    0.7474072    0.0234665   -2.1148542  
C   -0.6787384    0.0234379   -2.1414698  
C   -1.1201748    0.0098411   -0.7935547  
N    0.0000000    0.0000000    0.0000000  
C   -2.4730818    0.0063307   -0.4408240  
C   -3.3971962    0.0170429   -1.4675058  
O   -4.7313520    0.0145490   -1.1793468  
C   -2.9763654    0.0303020   -2.8186325  
O   -4.0166484    0.0394464   -3.7247625  
C   -1.6418567    0.0334992   -3.1673480  
H   -2.8160166   -0.0041569    0.5845966  
H   -5.1938823    0.0230023   -2.0274386  
H   -3.6464680    0.0481700   -4.6127343  
H   -1.3497475    0.0435647   -4.2109234  
H    2.1062466    0.0053162   -0.3505405  
C    2.5285572    2.1210227    2.9438989  
C    1.9331703    1.6216660    4.0790748  
C    0.8903039    0.7472258    3.6520102  
C    0.8972198    0.7527806    2.2336141  
N    1.9028376    1.5986179    1.8362361  
C    0.0000000    0.0000000    1.4700000  
C   -0.9207814   -0.7726952    2.1506477  
O   -1.8198395   -1.5274828    1.4542253  
C   -0.9436862   -0.7911793    3.5655508  
O   -1.9197945   -1.6098497    4.0950179  
C   -0.0590329   -0.0485852    4.3195194  
H    2.2150357    1.8593692    5.0905303  
H    2.1533708    1.7953814    0.8841339  
H   -2.3621246   -1.9821033    2.1118817  
H   -1.8668290   -1.5649508    5.0545920  
H   -0.1007624   -0.0827977    5.4019087  
H    3.3491200    2.8096064    2.8367138  
