62

C    9.8450877   -0.7148697   -2.2226213  
C    9.2566788    0.0028818   -3.2380401  
C   10.2957128    0.7317494   -3.8890079  
C   11.5067808    0.4159725   -3.2215319  
N   11.1971269   -0.4633495   -2.2138000  
C   12.7404033    0.9562868   -3.5970678  
C   12.7517075    1.8310810   -4.6660795  
O   13.9291393    2.3874499   -5.0748862  
C   11.5537467    2.1587953   -5.3445403  
O   11.7301287    3.0442261   -6.3877308  
C   10.3363511    1.6263500   -4.9744401  
H   11.8569988   -0.8718123   -1.5768477  
H   13.6669676    0.7197521   -3.0923605  
H   13.7155542    2.9589150   -5.8239349  
H   10.8734730    3.2124681   -6.7920070  
H    9.4354474    1.8961810   -5.5129960  
H    9.4070979   -1.3852126   -1.5030631  
C    5.6484569   -0.0000681   -0.6807740  
C    4.7161325   -0.0005435   -1.6923264  
C    5.4371286    0.0004103   -2.9230838  
C    6.8175140    0.0011681   -2.5968004  
N    6.9105280    0.0028045   -1.2271423  
C    7.8240135    0.0018979   -3.5672367  
C    7.4298415    0.0015550   -4.8911724  
O    8.3714604    0.0018843   -5.8792857  
C    6.0574640    0.0011754   -5.2367107  
O    5.8267420    0.0012878   -6.5968985  
C    5.0639868    0.0007285   -4.2798774  
H    7.7671525   -0.0069120   -0.7036150  
H    7.8889775    0.0018556   -6.7162295  
H    4.8759896    0.0009848   -6.7441179  
H    4.0211713    0.0006264   -4.5748589  
H    5.5130316   -0.0001048    0.3872235  
C    3.2573665   -0.0002920   -1.5109385  
C    2.5379463   -0.0001709   -0.3591964  
C    1.1435038    0.0000331   -0.7338500  
C    1.1092599   -0.0000083   -2.2088477  
N    2.4227553    0.0001909   -2.6182613  
C   -0.0265539   -0.0002524   -2.9515660  
C   -1.3003040   -0.0002640   -2.2514977  
O   -2.3786790   -0.0004133   -2.8306421  
C   -1.2877727    0.0000311   -0.6895603  
O   -2.3539959    0.0003306   -0.0892030  
C    0.0000000    0.0000000    0.0000000  
H    2.9384091   -0.0000367    0.6389234  
H   -0.0296303   -0.0004086   -4.0327229  
H    2.7280482   -0.0013407   -3.5742119  
C    0.8175213    0.6860729    2.3021913  
C    0.0000000    0.0000000    1.4700000  
C   -0.8887526   -0.7456559    2.3478473  
C   -0.4549825   -0.3816753    3.7138435  
N    0.5448156    0.4573574    3.6934124  
C   -1.0945674   -0.9182058    4.8835240  
C   -2.1210866   -1.7789155    4.6970523  
O   -2.8083856   -2.3554314    5.6976972  
C   -2.5824069   -2.1655116    3.3310774  
O   -3.5227682   -2.9541547    3.2362962  
C   -1.9100805   -1.6015804    2.1470656  
H   -0.7567140   -0.6349833    5.8697035  
H   -3.4728268   -2.9124471    5.2533954  
H   -2.2742832   -1.9066565    1.1752040  
H    1.6189533    1.3585343    2.0405121  
