60

C    9.1209645   -4.4273241   -6.2836369  
C    8.0343223   -3.6033218   -6.1028128  
C    7.6837802   -3.6735087   -4.7219456  
C    8.5998342   -4.5633253   -4.1046968  
N    9.4576129   -5.0044188   -5.0815640  
C    8.5530373   -4.8716231   -2.7417763  
C    7.5636496   -4.2704735   -1.9881788  
O    7.4726347   -4.5360079   -0.6524314  
C    6.6401740   -3.3801435   -2.5859429  
O    5.7147425   -2.8635250   -1.7027525  
C    6.6855787   -3.0757493   -3.9304906  
H    7.5527858   -3.0238842   -6.8718164  
H   10.2221979   -5.6393122   -4.9390905  
H    9.2481872   -5.5490926   -2.2653266  
H    6.7247758   -4.0213822   -0.3220799  
H    5.1295086   -2.2726751   -2.1864894  
H    9.6816234   -4.6501578   -7.1752443  
C    5.7075973   -2.1458899   -4.5134268  
C    5.6080283   -1.7400303   -5.8006495  
C    4.4743455   -0.8284970   -5.8198985  
C    3.9952578   -0.7999672   -4.4212404  
N    4.7143359   -1.5702090   -3.6507578  
C    2.8699641   -0.0020530   -4.0185824  
C    2.2516352    0.7342030   -4.9698613  
O    1.1898869    1.5240362   -4.7355641  
C    2.7116326    0.7268608   -6.3898997  
O    2.1013090    1.4213451   -7.2025603  
C    3.8682730   -0.0998975   -6.7779434  
H    6.2274578   -2.0240585   -6.6341436  
H    0.9759266    1.9152457   -5.6017794  
H    4.1702380   -0.0775571   -7.8164743  
C    3.2573670   -0.0002921   -1.5109382  
C    2.5379468   -0.0001711   -0.3591962  
C    1.1435043    0.0000330   -0.7338498  
C    1.1092608   -0.0000085   -2.2088474  
N    2.4227562    0.0001906   -2.6182610  
C   -0.0265533   -0.0002525   -2.9515663  
C   -1.3003033   -0.0002641   -2.2514979  
O   -2.3786785   -0.0004132   -2.8306425  
C   -1.2877724    0.0000310   -0.6895608  
O   -2.3539956    0.0003306   -0.0892035  
C    0.0000000    0.0000000    0.0000000  
H    2.9384091   -0.0000370    0.6389240  
H   -0.0296290   -0.0004088   -4.0327231  
H    4.3270394   -0.0004767   -1.6439445  
C    2.4951002    2.0940188    2.9809380  
C    1.9440701    1.6314916    1.8291961  
C    0.8759964    0.7350050    2.2038498  
C    0.8497377    0.7130254    3.6788474  
N    1.8560616    1.5571714    4.0882609  
C   -0.0205033   -0.0168748    4.4215661  
C   -0.9962600   -0.8356168    3.7214979  
O   -1.8224391   -1.5286685    4.3006425  
C   -0.9864710   -0.8277881    2.1595606  
O   -1.8030528   -1.5133726    1.5592035  
C    0.0000000    0.0000000    1.4700000  
H    2.2509283    1.8888011    0.8310761  
H   -0.0229599   -0.0187323    5.5027230  
H    3.3143982    2.7817323    3.1139444  
H    2.0889452    1.7545833    5.0442112  
