62

C    1.4620414   -2.4131014   -7.7057700  
C    2.0425747   -2.6226950   -8.9352084  
C    1.9545504   -1.3928181   -9.6523237  
C    1.3053005   -0.4610539   -8.8024905  
N    1.0181723   -1.1136823   -7.6293534  
C    1.0487062    0.8593411   -9.1839417  
C    1.4551976    1.2462581  -10.4461772  
O    1.2298626    2.5242015  -10.8693764  
C    2.1041469    0.3310144  -11.3087378  
O    2.4468835    0.8678881  -12.5325200  
C    2.3573670   -0.9718170  -10.9331908  
H    2.4751812   -3.5484867   -9.2739651  
H    0.5541652    1.5743266   -8.5409595  
H    1.5863808    2.5819735  -11.7653799  
H    2.8799482    0.1849451  -13.0537181  
H    2.8561340   -1.6501265  -11.6155442  
H    1.3281967   -3.0881038   -6.8778719  
C    0.6776466   -0.7282711   -5.1604461  
C    0.3570671   -0.5122885   -6.4622354  
C   -0.7499183    0.4146722   -6.4749880  
C   -1.0501144    0.7232591   -5.0638015  
N   -0.1496415   -0.0015615   -4.3176961  
C   -2.0330281    1.5639197   -4.6528576  
C   -2.8499207    2.2075843   -5.6681985  
O   -3.7597068    2.9810996   -5.3993800  
C   -2.5498407    1.8951507   -7.1689128  
O   -3.2311660    2.4309114   -8.0326354  
C   -1.4636387    0.9719933   -7.4879704  
H   -2.2366081    1.7767176   -3.6125776  
H   -1.2621751    0.7611250   -8.5294453  
H    1.4485190   -1.3573518   -4.7458346  
C    3.3003543    0.0005276   -1.4738987  
C    2.5232814    0.0003497   -2.6090747  
C    1.1623200   -0.0001320   -2.1820103  
C    1.1711883    0.0000582   -0.7636140  
N    2.4852300   -0.0014919   -0.3662360  
C    0.0000000    0.0000000    0.0000000  
C   -1.2020384    0.0000519   -0.6806477  
O   -2.3759249    0.0003493    0.0157743  
C   -1.2314656   -0.0005115   -2.0955510  
O   -2.5054392   -0.0008039   -2.6250180  
C   -0.0764516   -0.0007274   -2.8495195  
H    2.8919955   -0.0005620   -3.6205304  
H    2.8036267    0.0088183    0.5858662  
H   -3.0835638    0.0000347   -0.6418818  
H   -2.4360047   -0.0011529   -3.5845921  
H    4.3715549    0.0004895   -1.3667136  
C    2.5128556    2.1077716    2.9199648  
C    1.9592212    1.6432552    4.0696553  
C    0.8915788    0.7479214    3.6910360  
C    0.8684491    0.7287414    2.2159470  
N    1.8754542    1.5738793    1.8102719  
C    0.0000000    0.0000000    1.4700000  
C   -0.9772830   -0.8200135    2.1664417  
O   -1.8021297   -1.5120829    1.5842315  
C   -0.9711318   -0.8147624    3.7284083  
O   -1.7894187   -1.5009653    4.3257297  
C    0.0140216    0.0115358    4.4216297  
H    2.2638494    1.8988021    5.0689105  
H    0.0117648    0.0094386    5.5031631  
H    3.3327358    2.7953732    2.7900019  
H    2.1123206    1.7707734    0.8551938  
