60

C    6.9483191   -3.3912729   -7.1635346  
C    7.7101913   -3.3831199   -8.3089404  
C    7.6865247   -2.0498205   -8.8152525  
C    6.8878224   -1.2822945   -7.9293043  
N    6.4538005   -2.1278445   -6.9387052  
C    6.6450521    0.0814965   -8.1188475  
C    7.2192726    0.6814698   -9.2226957  
O    7.0149969    2.0108224   -9.4553005  
C    8.0189837   -0.0676113  -10.1183276  
O    8.5193892    0.6730035  -11.1692443  
C    8.2586856   -1.4131195   -9.9321092  
H    8.2193635   -4.2337826   -8.7285935  
H    6.0371308    0.6720432   -7.4473654  
H    7.4972262    2.2236132  -10.2648928  
H    9.0475307    0.0927292  -11.7259773  
H    8.8753186   -1.9607800  -10.6351795  
H    6.7173647   -4.1986723   -6.4899440  
C    5.7075972   -2.1458903   -4.5134258  
C    5.6080286   -1.7400307   -5.8006494  
C    4.4743456   -0.8284975   -5.8198979  
C    3.9952577   -0.7999674   -4.4212399  
N    4.7143360   -1.5702093   -3.6507568  
C    2.8699641   -0.0020530   -4.0185824  
C    2.2516352    0.7342029   -4.9698613  
O    1.1898872    1.5240358   -4.7355640  
C    2.7116330    0.7268602   -6.3898996  
O    2.1013094    1.4213443   -7.2025607  
C    3.8682736   -0.0998984   -6.7779432  
H    0.9759268    1.9152451   -5.6017793  
H    4.1702386   -0.0775579   -7.8164742  
H    6.4250582   -2.8280480   -4.0857759  
C    3.2573670   -0.0002921   -1.5109382  
C    2.5379468   -0.0001711   -0.3591962  
C    1.1435043    0.0000330   -0.7338498  
C    1.1092608   -0.0000085   -2.2088474  
N    2.4227562    0.0001906   -2.6182610  
C   -0.0265533   -0.0002525   -2.9515663  
C   -1.3003033   -0.0002641   -2.2514979  
O   -2.3786785   -0.0004132   -2.8306425  
C   -1.2877724    0.0000310   -0.6895608  
O   -2.3539956    0.0003306   -0.0892035  
C    0.0000000    0.0000000    0.0000000  
H    2.9384091   -0.0000370    0.6389240  
H   -0.0296290   -0.0004088   -4.0327231  
H    4.3270394   -0.0004767   -1.6439445  
C    0.0000000    0.0000000    1.4700000  
C    1.0662921    0.0000102    2.3034270  
C    0.4961870   -0.0000064    3.6418889  
C   -0.9663858    0.0000850    3.4240247  
N   -1.2632773    0.0000084    2.1528658  
C   -1.8985362    0.0000517    4.5177257  
C   -1.3925775   -0.0004564    5.7720543  
O   -2.1456383   -0.0005410    6.8851312  
C    0.0786232   -0.0009323    6.0245000  
O    0.4683759   -0.0012588    7.1921102  
C    1.0143166   -0.0008442    4.8859032  
H    2.1107198   -0.0000632    2.0421868  
H   -2.9622183    0.0003270    4.3293377  
H   -1.5042274   -0.0009692    7.6184419  
H    2.0724152   -0.0013148    5.1109744  
