62

C    5.3929953   -3.6589511    0.2209160  
C    5.0076542   -4.4811798    1.2543182  
C    3.5890313   -4.3781769    1.3615491  
C    3.1606068   -3.4710892    0.3587671  
N    4.2811792   -3.0517334   -0.3143417  
C    1.8177817   -3.1296766    0.1715576  
C    0.8905261   -3.7148522    1.0117630  
O   -0.4341953   -3.4169715    0.8725050  
C    1.2984697   -4.6219963    2.0184855  
O    0.2566598   -5.1193250    2.7738907  
C    2.6230553   -4.9590610    2.2039197  
H    5.6679445   -5.0805351    1.8574641  
H    1.4847987   -2.4389054   -0.5907801  
H   -0.9009044   -3.9253565    1.5485171  
H    0.6178641   -5.7233887    3.4298211  
H    2.9054067   -5.6568109    2.9835996  
H    6.3731027   -3.4564961   -0.1757691  
C    4.2912332   -2.1143348   -1.4466323  
C    5.3462909   -1.6515572   -2.1654961  
C    4.8141506   -0.7557113   -3.1650566  
C    3.3521070   -0.7343355   -2.9681719  
N    3.0997470   -1.5788206   -1.9117396  
C    2.4861704   -0.0045255   -3.7159919  
C    3.0304430    0.8144036   -4.7863460  
O    2.3328579    1.5073002   -5.5154345  
C    4.5758847    0.8068266   -5.0129670  
O    5.0456349    1.4921002   -5.9112961  
C    5.4069283   -0.0204564   -4.1418632  
H    6.3794031   -1.9085775   -2.0130697  
H    6.4760574   -0.0199698   -4.3052245  
H    2.1903289   -1.7742811   -1.5351744  
C    0.0000000    0.0000000    0.0000000  
C    1.0521669   -0.0011848   -0.8862341  
C    0.4917221   -0.0011931   -2.1979130  
C   -0.9187427    0.0003100   -2.0478683  
N   -1.1833170   -0.0009472   -0.7007915  
C   -1.7951698    0.0010259   -3.1372090  
C   -1.2375835    0.0005161   -4.4010425  
O   -2.0474208    0.0015256   -5.4997580  
C    0.1673584   -0.0013557   -4.5711962  
O    0.5673529   -0.0020659   -5.8915551  
C    1.0325773   -0.0023359   -3.4969890  
H    2.0953059   -0.0030542   -0.6200560  
H   -2.0989777    0.0102265   -0.2891825  
H   -2.8710930    0.0020274   -3.0295514  
H   -1.4634881    0.0006427   -6.2693593  
H    1.5290715   -0.0033076   -5.9180042  
C    3.1301144    0.0010313    3.1728260  
C    2.5367765    0.0002768    1.9564670  
C    1.1089900   -0.0001027    2.2356185  
C    1.0177864    0.0004150    3.7115134  
N    2.1993570    0.0011613    4.2663826  
C   -0.2459220    0.0002880    4.3957118  
C   -1.3675327    0.0000606    3.6398520  
O   -2.6129319   -0.0000866    4.1448486  
C   -1.3083589   -0.0000910    2.1483229  
O   -2.3693264   -0.0004206    1.5241687  
C    0.0000000    0.0000000    1.4700000  
H    3.0096015    0.0001008    0.9892483  
H   -0.2829642    0.0004689    5.4753125  
H   -3.1967446   -0.0002093    3.3649027  
H    4.1849273    0.0015113    3.3971983  
