62

C   -8.4423203    0.3828212   -2.8516833  
C   -9.7517198    0.2359520   -2.4562494  
C  -10.0893212   -1.1382004   -2.6360572  
C   -8.9362559   -1.7865354   -3.1479454  
N   -7.9552310   -0.8338328   -3.2686317  
C   -8.9059303   -3.1523299   -3.4453932  
C  -10.0605572   -3.8768916   -3.2217375  
O  -10.0858870   -5.2140142   -3.4946380  
C  -11.2212288   -3.2478750   -2.7118382  
O  -12.2896564   -4.1044840   -2.5444284  
C  -11.2519478   -1.9004725   -2.4184279  
H  -10.3859155    1.0227041   -2.0850207  
H   -8.0303435   -3.6523966   -3.8358849  
H  -10.9737940   -5.5216600   -3.2704981  
H  -13.0319243   -3.6006054   -2.1969380  
H  -12.1556961   -1.4464337   -2.0291115  
H   -7.8177400    1.2594619   -2.8706460  
C   -3.9753655    0.7163349   -1.9467742  
C   -5.3225256    0.4642270   -2.0653821  
C   -5.4809831   -0.4521470   -3.1469321  
C   -4.1848197   -0.7258018   -3.6538837  
N   -3.2941076    0.0012878   -2.9038237  
C   -3.9601867   -1.5925640   -4.7276861  
C   -5.0641065   -2.1942653   -5.2999569  
O   -4.9017598   -3.0497377   -6.3510633  
C   -6.3653915   -1.9335917   -4.8085065  
O   -7.3605151   -2.6087758   -5.4846713  
C   -6.5877664   -1.0784128   -3.7493817  
H   -6.0959844    0.8894460   -1.4489867  
H   -2.9748056   -1.8052071   -5.1188504  
H   -5.7858325   -3.3531621   -6.5952224  
H   -8.2070636   -2.3773170   -5.0904813  
H   -3.4466826    1.3507419   -1.2561358  
C    0.0000000    0.0000000    0.0000000  
C    1.0541688   -0.0001723   -0.8560392  
C    0.5103136   -0.0000455   -2.1935956  
C   -0.9576373    0.0002461   -2.0455730  
N   -1.2018460   -0.0001389   -0.6915968  
C   -1.8348314    0.0008319   -3.0810607  
C   -1.2972851    0.0009739   -4.4314603  
O   -2.0050676    0.0014268   -5.4301316  
C    0.2542619    0.0004184   -4.6117572  
O    0.7184666    0.0002257   -5.7439122  
C    1.0974551    0.0000873   -3.4189129  
H    2.0940752   -0.0005484   -0.5817983  
H    2.1707276   -0.0000912   -3.5523673  
H   -2.1128194    0.0014915   -0.2706789  
C    0.0000000    0.0000000    1.4700000  
C    1.0541688    0.0001722    2.3260392  
C    0.5103138    0.0000454    3.6635956  
C   -0.9576371   -0.0002459    3.5155732  
N   -1.2018458    0.0001392    2.1615969  
C   -1.8348311   -0.0008317    4.5510609  
C   -1.2972847   -0.0009736    5.9014604  
O   -2.0050672   -0.0014265    6.9001319  
C    0.2542623   -0.0004184    6.0817573  
O    0.7184670   -0.0002256    7.2139121  
C    1.0974552   -0.0000873    4.8889129  
H    2.0940752    0.0005483    2.0517982  
H   -2.9081052   -0.0011668    4.4207061  
H    2.1707277    0.0000911    5.0223670  
H   -2.1128194   -0.0014912    1.7406791  
