64

C    1.3511926   -2.3399198   -7.3277645  
C    0.9120321   -1.0367474   -7.3644723  
C    1.6065386   -0.3932319   -8.4313125  
C    2.4630591   -1.3618506   -9.0144729  
N    2.2846241   -2.5321054   -8.3192878  
C    3.3004864   -1.0769443  -10.0972173  
C    3.2725315    0.2091262  -10.6006237  
O    4.0698467    0.5413839  -11.6574629  
C    2.4249761    1.1895699  -10.0321199  
O    2.5118943    2.4224678  -10.6451049  
C    1.5987679    0.9092809   -8.9637827  
H    2.7521994   -3.3992116   -8.5128885  
H    3.9557122   -1.8106852  -10.5461100  
H    3.8979333    1.4729490  -11.8469244  
H    1.9084699    3.0260931  -10.2011242  
H    0.9605888    1.6809225   -8.5493263  
H    1.0734948   -3.1471436   -6.6718433  
C   -0.1938774   -0.6741350   -5.1271795  
C   -0.0850113   -0.4444570   -6.4611477  
C   -1.1306720    0.4863330   -6.8147846  
C   -1.8628869    0.7822419   -5.5685541  
N   -1.2456329    0.0471727   -4.5828766  
C   -2.9252694    1.6222082   -5.4819278  
C   -3.3778809    2.2784522   -6.6972554  
O   -4.3258457    3.0524069   -6.7229086  
C   -2.6173830    1.9795653   -8.0284637  
O   -2.9895272    2.5259814   -9.0581230  
C   -1.4861981    1.0558654   -7.9960429  
H   -3.4482361    1.8256011   -4.5577809  
H   -0.9648590    0.8544208   -8.9219753  
H    0.4056143   -1.3098165   -4.4959835  
C    1.1243410    0.0099923   -0.7919003  
C    0.7474076    0.0234544   -2.1148543  
C   -0.6787381    0.0234490   -2.1414700  
C   -1.1201745    0.0098592   -0.7935546  
N    0.0000000    0.0000000    0.0000000  
C   -2.4730816    0.0063709   -0.4408240  
C   -3.3971958    0.0170982   -1.4675058  
O   -4.7313517    0.0146259   -1.1793471  
C   -2.9763648    0.0303504   -2.8186324  
O   -4.0166480    0.0395118   -3.7247624  
C   -1.6418562    0.0335260   -3.1673481  
H    1.4178717    0.0310972   -2.9571209  
H   -2.8160166   -0.0041111    0.5845966  
H   -5.1938818    0.0230867   -2.0274384  
H   -3.6464675    0.0482293   -4.6127343  
H    2.1062467    0.0052819   -0.3505407  
C    2.5285572    2.1210227    2.9438989  
C    1.9331703    1.6216660    4.0790748  
C    0.8903039    0.7472258    3.6520102  
C    0.8972198    0.7527806    2.2336141  
N    1.9028376    1.5986179    1.8362361  
C    0.0000000    0.0000000    1.4700000  
C   -0.9207814   -0.7726952    2.1506477  
O   -1.8198395   -1.5274828    1.4542253  
C   -0.9436862   -0.7911793    3.5655508  
O   -1.9197945   -1.6098497    4.0950179  
C   -0.0590329   -0.0485852    4.3195194  
H    2.2150357    1.8593692    5.0905303  
H    2.1533708    1.7953814    0.8841339  
H   -2.3621246   -1.9821033    2.1118817  
H   -1.8668290   -1.5649508    5.0545920  
H   -0.1007624   -0.0827977    5.4019087  
H    3.3491200    2.8096064    2.8367138  
