62

C    7.2165414    0.0063485   -5.6727943  
C    6.4840864    0.0086069   -6.8372561  
C    7.4172201    0.0104507   -7.9160786  
C    8.7150714    0.0089090   -7.3437974  
N    8.5570268    0.0083791   -5.9801125  
C    9.8815098    0.0097654   -8.1146481  
C    9.7351072    0.0119160   -9.4882334  
O   10.8409709    0.0124836  -10.2882841  
C    8.4486384    0.0138539  -10.0779871  
O    8.4695553    0.0162993  -11.4574433  
C    7.2974827    0.0132837   -9.3181414  
H    5.4094254    0.0099957   -6.9012494  
H    9.3039402   -0.0032434   -5.3093173  
H   10.8736007    0.0087440   -7.6845798  
H   10.5190233    0.0143376  -11.1991141  
H    7.5615296    0.0174648  -11.7753932  
H    6.3258512    0.0149911   -9.7981485  
C    6.7690605    0.0043645   -4.2725595  
C    5.4996708    0.0031000   -3.8032758  
C    5.6352800    0.0013795   -2.3547914  
C    7.0947609    0.0017598   -2.1170954  
N    7.7645141    0.0035881   -3.2375489  
C    7.6497402    0.0004304   -0.7915457  
C    6.7859648   -0.0008158    0.2492353  
O    7.1644558   -0.0021419    1.5387252  
C    5.3077385   -0.0008593    0.0418536  
O    4.5810519   -0.0021559    1.0354057  
C    4.7630507    0.0004755   -1.3275395  
H    4.5843340    0.0033991   -4.3700509  
H    8.7202891    0.0005386   -0.6471984  
H    6.3302588   -0.0027813    2.0419826  
C    3.3003548    0.0005276   -1.4738982  
C    2.5232817    0.0003497   -2.6090743  
C    1.1623204   -0.0001319   -2.1820101  
C    1.1711886    0.0000583   -0.7636140  
N    2.4852302   -0.0014919   -0.3662356  
C    0.0000000    0.0000000    0.0000000  
C   -1.2020379    0.0000520   -0.6806479  
O   -2.3759249    0.0003495    0.0157742  
C   -1.2314652   -0.0005112   -2.0955511  
O   -2.5054384   -0.0008036   -2.6250184  
C   -0.0764510   -0.0007271   -2.8495195  
H    2.8919962   -0.0005619   -3.6205297  
H    2.8036267    0.0088181    0.5858667  
H   -3.0835636    0.0000348   -0.6418823  
H   -2.4360038   -0.0011526   -3.5845925  
H   -0.1304090   -0.0013420   -3.9319089  
C    2.5528530    2.1414826    2.8079335  
C    2.0663498    1.7338582    4.0032312  
C    0.9804344    0.8229586    3.6752840  
C    0.9495562    0.7966882    2.1971295  
N    1.8690446    1.5676019    1.6831036  
C    0.0000000    0.0000000    1.4700000  
C   -0.8785127   -0.7372425    2.1869543  
O   -1.8187535   -1.5261249    1.6395491  
C   -0.8723269   -0.7321790    3.6796354  
O   -1.7010379   -1.4274584    4.2670412  
C    0.1115397    0.0933559    4.4024240  
H    2.4028853    2.0163452    4.9860947  
H   -2.2861435   -1.9184361    2.3990168  
H    0.0832434    0.0693689    5.4835595  
H    3.3664920    2.8238276    2.6198634  
