60

C    5.1186221   -2.3841329   -4.7547761  
C    4.7405457   -1.0806252   -4.9792603  
C    5.8115473   -0.4513154   -5.6803483  
C    6.8242947   -1.4285481   -5.8572238  
N    6.3720816   -2.5900344   -5.2818374  
C    8.0300408   -1.1582947   -6.5113873  
C    8.2166993    0.1217060   -6.9960874  
O    9.3755982    0.4396964   -7.6432718  
C    7.2181587    1.1105692   -6.8291074  
O    7.5538440    2.3358602   -7.3669918  
C    6.0285314    0.8447382   -6.1836253  
H    6.8722200   -3.4603238   -5.2608852  
H    8.8059525   -1.8986590   -6.6493134  
H    9.3012390    1.3692647   -7.8955374  
H    6.8264244    2.9459568   -7.2112769  
H    5.2823931    1.6225542   -6.0706772  
H    4.5939366   -3.1828887   -4.2591417  
C    2.8279729   -0.7071296   -3.3541665  
C    1.6707636   -0.0012343   -3.2725974  
C    1.5420222    0.7399977   -4.5050080  
C    2.7275720    0.4056549   -5.3170903  
N    3.4672605   -0.4755789   -4.5626516  
C    2.9773517    0.9038684   -6.5544653  
C    2.0143734    1.8314550   -7.1243702  
O    2.1493673    2.3348416   -8.2319255  
C    0.7517059    2.1998424   -6.2818939  
O   -0.0658607    2.9799880   -6.7511671  
C    0.5920508    1.5980569   -4.9604489  
H    3.8531179    0.6455748   -7.1334537  
H   -0.2850564    1.8581559   -4.3835992  
H    3.2676543   -1.3768500   -2.6330256  
C    1.0965514    0.0001358   -0.8010306  
C    0.0000000    0.0000000    0.0000000  
C   -1.1546565    0.0001470   -0.8669508  
C   -0.6372019    0.0003520   -2.2486278  
N    0.7342867    0.0007338   -2.1395012  
C   -1.4147744    0.0001354   -3.3608712  
C   -2.8576052   -0.0001047   -3.1854454  
O   -3.6427785   -0.0002490   -4.1244896  
C   -3.4275841   -0.0000727   -1.7311660  
O   -4.6406832    0.0000333   -1.5710049  
C   -2.4891868   -0.0001090   -0.6116739  
H   -1.0150456    0.0001617   -4.3654239  
H   -2.8919122   -0.0002919    0.3920871  
H    2.1388270    0.0000663   -0.5261650  
C    0.0000000    0.0000000    1.4700000  
C    1.0662921    0.0000102    2.3034270  
C    0.4961870   -0.0000064    3.6418889  
C   -0.9663858    0.0000850    3.4240247  
N   -1.2632773    0.0000084    2.1528658  
C   -1.8985362    0.0000517    4.5177257  
C   -1.3925775   -0.0004564    5.7720543  
O   -2.1456383   -0.0005410    6.8851312  
C    0.0786232   -0.0009323    6.0245000  
O    0.4683759   -0.0012588    7.1921102  
C    1.0143166   -0.0008442    4.8859032  
H    2.1107198   -0.0000632    2.0421868  
H   -2.9622183    0.0003270    4.3293377  
H   -1.5042274   -0.0009692    7.6184419  
H    2.0724152   -0.0013148    5.1109744  
