60

C    4.3958695   -3.6304846   -5.2309269  
C    3.6468554   -3.0316777   -6.2172717  
C    4.1568526   -3.4946580   -7.4663321  
C    5.2253559   -4.3814065   -7.1766711  
N    5.3449785   -4.4397069   -5.8103225  
C    5.9627745   -5.0280496   -8.1730924  
C    5.6150169   -4.7751497   -9.4858315  
O    6.3018981   -5.3803934  -10.4981974  
C    4.5522211   -3.8932629   -9.7949551  
O    4.3286289   -3.7450946  -11.1482458  
C    3.8244826   -3.2547765   -8.8124795  
H    6.0126166   -4.9977423   -5.3094867  
H    6.7783592   -5.7049136   -7.9589010  
H    5.9035801   -5.0703972  -11.3219143  
H    3.5955095   -3.1341575  -11.2702916  
H    3.0159047   -2.5845286   -9.0797753  
H    4.3291071   -3.5432666   -4.1599952  
C    2.5365539   -2.0936797   -5.9975195  
C    2.0254111   -1.6312724   -4.8274817  
C    0.9452517   -0.7345683   -5.1651398  
C    0.8684324   -0.7123303   -6.6383662  
N    1.8599998   -1.5565496   -7.0821879  
C   -0.0266562    0.0178223   -7.3506836  
C   -0.9777113    0.8365830   -6.6174306  
O   -1.8231606    1.5298527   -7.1677875  
C   -0.9143687    0.8284832   -5.0567489  
O   -1.7097814    1.5140808   -4.4286283  
C    0.0950446    0.0004351   -4.4015596  
H    2.3662773   -1.8887982   -3.8405146  
H   -0.0661854    0.0198669   -8.4311199  
H    2.0599365   -1.7538298   -8.0455952  
C    3.3321173    0.0004713   -1.3379338  
C    2.6974181    0.0000116   -2.5332314  
C    1.2800438   -0.0002119   -2.2052841  
C    1.2395034    0.0000643   -0.7271299  
N    2.4394062    0.0005460   -0.2131038  
C    0.0000000    0.0000000    0.0000000  
C   -1.1468702    0.0000634   -0.7169543  
O   -2.3742203    0.0000074   -0.1695487  
C   -1.1388770    0.0001607   -2.2096355  
O   -2.2206234    0.0000905   -2.7970411  
C    0.1454522    0.0001815   -2.9324241  
H    3.1367984   -0.0000653   -3.5160950  
H   -2.9844346    0.0001026   -0.9290167  
H    4.3940038    0.0007618   -1.1498640  
C    0.8175213    0.6860729    2.3021913  
C    0.0000000    0.0000000    1.4700000  
C   -0.8887526   -0.7456559    2.3478473  
C   -0.4549825   -0.3816753    3.7138435  
N    0.5448156    0.4573574    3.6934124  
C   -1.0945674   -0.9182058    4.8835240  
C   -2.1210866   -1.7789155    4.6970523  
O   -2.8083856   -2.3554314    5.6976972  
C   -2.5824069   -2.1655116    3.3310774  
O   -3.5227682   -2.9541547    3.2362962  
C   -1.9100805   -1.6015804    2.1470656  
H   -0.7567140   -0.6349833    5.8697035  
H   -3.4728268   -2.9124471    5.2533954  
H   -2.2742832   -1.9066565    1.1752040  
H    1.6189533    1.3585343    2.0405121  
