60

C    3.8576501    0.7176595   -7.7773225  
C    4.9133809   -0.0003960   -7.2651735  
C    5.4867088   -0.7285095   -8.3494920  
C    4.7325049   -0.4119803   -9.5083333  
N    3.7500611    0.4670444   -9.1252712  
C    5.0169106   -0.9514347  -10.7664627  
C    6.0822722   -1.8261258  -10.8564463  
O    6.4039663   -2.3816700  -12.0609787  
C    6.8464746   -2.1545834   -9.7114890  
O    7.8740216   -3.0398027   -9.9642292  
C    6.5663045   -1.6229859   -8.4699435  
H    3.0665751    0.8758930   -9.7365571  
H    4.4458338   -0.7143238  -11.6535099  
H    7.1666430   -2.9532117  -11.9030890  
H    8.3398246   -3.2085829   -9.1395205  
H    7.1692661   -1.8933732   -7.6109870  
H    3.1719955    1.3876448   -7.2874691  
C    2.5562217   -0.0001551   -3.6003001  
C    3.5148525   -0.0005087   -2.6449957  
C    4.7727386   -0.0006025   -3.3759008  
C    4.3760685   -0.0003758   -4.8004136  
N    3.0779897   -0.0000323   -4.9381841  
C    5.3463906   -0.0003429   -5.8603952  
C    6.6535653   -0.0001393   -5.5130783  
O    7.6652140   -0.0000931   -6.3977299  
C    7.0856175    0.0000110   -4.0842706  
O    8.2923979    0.0000700   -3.8415710  
C    6.0711795   -0.0000700   -3.0152331  
H    3.3844835   -0.0005937   -1.5763148  
H    8.4720652    0.0000902   -5.8517059  
H    6.4250928    0.0001594   -1.9929925  
C    0.0000000    0.0000000    0.0000000  
C    1.0541688   -0.0001722   -0.8560390  
C    0.5103141   -0.0000453   -2.1935955  
C   -0.9576367    0.0002460   -2.0455731  
N   -1.2018459   -0.0001392   -0.6915969  
C   -1.8348307    0.0008318   -3.0810611  
C   -1.2972843    0.0009738   -4.4314606  
O   -2.0050665    0.0014267   -5.4301321  
C    0.2542628    0.0004186   -4.6117570  
O    0.7184676    0.0002258   -5.7439117  
C    1.0974555    0.0000874   -3.4189127  
H    2.0940752   -0.0005483   -0.5817978  
H   -2.9081051    0.0011670   -2.9507061  
H   -2.1128194    0.0014912   -0.2706792  
C    3.3321173   -0.0004715    2.8079335  
C    2.6974184   -0.0000116    4.0032312  
C    1.2800439    0.0002118    3.6752840  
C    1.2395035   -0.0000644    2.1971295  
N    2.4394063   -0.0005460    1.6831036  
C    0.0000000    0.0000000    1.4700000  
C   -1.1468701   -0.0000635    2.1869543  
O   -2.3742202   -0.0000073    1.6395491  
C   -1.1388768   -0.0001607    3.6796354  
O   -2.2206231   -0.0000905    4.2670412  
C    0.1454524   -0.0001816    4.4024240  
H    3.1367986    0.0000651    4.9860947  
H   -2.9844344   -0.0001026    2.3990168  
H    0.1083576   -0.0003682    5.4835595  
H    4.3940039   -0.0007619    2.6198634  
