64

C    1.9531382   -1.7678358   -7.8782233  
C    3.0310668   -2.5850323   -8.1286767  
C    3.3130761   -2.4864807   -9.5234374  
C    2.3664759   -1.5867330  -10.0769062  
N    1.5545921   -1.1705076   -9.0511296  
C    2.3460342   -1.2507422  -11.4339182  
C    3.2987215   -1.8334263  -12.2469633  
O    3.3242955   -1.5400665  -13.5797422  
C    4.2513221   -2.7338386  -11.7134590  
O    5.1332121   -3.2300902  -12.6511953  
C    4.2719106   -3.0659684  -10.3748808  
H    3.5495652   -3.1799442   -7.3963982  
H    0.7955050   -0.5193793   -9.1394458  
H    1.6271276   -0.5657936  -11.8619614  
H    4.0557687   -2.0461270  -13.9567236  
H    5.7420849   -3.8294450  -12.2088698  
H    5.0136118   -3.7588820   -9.9951073  
C    1.5640652   -2.0395934   -5.3856075  
C    0.7230585   -1.5862625   -4.4205823  
C   -0.2043664   -0.6833978   -5.0605464  
C    0.1679205   -0.6476539   -6.4877513  
N    1.2472261   -1.4907313   -6.6189372  
C   -0.4698103    0.0915038   -7.4304339  
C   -1.5980269    0.9063961   -7.0113715  
O   -2.2374220    1.6070672   -7.7850216  
C   -2.0096053    0.8840404   -5.5047498  
O   -2.9576824    1.5662686   -5.1400911  
C   -1.2456329    0.0471727   -4.5828766  
H    0.7494880   -1.8536710   -3.3792330  
H   -0.1807609    0.1034049   -8.4721724  
H    2.3887876   -2.7282962   -5.2995218  
C    1.1243410    0.0099923   -0.7919003  
C    0.7474076    0.0234544   -2.1148543  
C   -0.6787381    0.0234490   -2.1414700  
C   -1.1201745    0.0098592   -0.7935546  
N    0.0000000    0.0000000    0.0000000  
C   -2.4730816    0.0063709   -0.4408240  
C   -3.3971958    0.0170982   -1.4675058  
O   -4.7313517    0.0146259   -1.1793471  
C   -2.9763648    0.0303504   -2.8186324  
O   -4.0166480    0.0395118   -3.7247624  
C   -1.6418562    0.0335260   -3.1673481  
H    1.4178717    0.0310972   -2.9571209  
H   -2.8160166   -0.0041111    0.5845966  
H   -5.1938818    0.0230867   -2.0274384  
H   -3.6464675    0.0482293   -4.6127343  
H    2.1062467    0.0052819   -0.3505407  
C    2.5285572    2.1210227    2.9438989  
C    1.9331703    1.6216660    4.0790748  
C    0.8903039    0.7472258    3.6520102  
C    0.8972198    0.7527806    2.2336141  
N    1.9028376    1.5986179    1.8362361  
C    0.0000000    0.0000000    1.4700000  
C   -0.9207814   -0.7726952    2.1506477  
O   -1.8198395   -1.5274828    1.4542253  
C   -0.9436862   -0.7911793    3.5655508  
O   -1.9197945   -1.6098497    4.0950179  
C   -0.0590329   -0.0485852    4.3195194  
H    2.2150357    1.8593692    5.0905303  
H    2.1533708    1.7953814    0.8841339  
H   -2.3621246   -1.9821033    2.1118817  
H   -1.8668290   -1.5649508    5.0545920  
H   -0.1007624   -0.0827977    5.4019087  
H    3.3491200    2.8096064    2.8367138  
