60

C   -4.4384978    2.1219814   -4.6241148  
C   -5.6385858    1.6230943   -5.0750786  
C   -5.3436785    0.7490170   -6.1630208  
C   -3.9352672    0.7542988   -6.3311758  
N   -3.4166354    1.5996324   -5.3819393  
C   -3.2883813    0.0017550   -7.3160641  
C   -4.0776322   -0.7704184   -8.1461297  
O   -3.4976514   -1.5249555   -9.1245522  
C   -5.4845532   -0.7886232   -7.9942781  
O   -6.1306165   -1.6067767   -8.8979201  
C   -6.1234207   -0.0462624   -7.0230541  
H   -6.6074739    1.8608704   -4.6704656  
H   -2.4408479    1.7961078   -5.2507248  
H   -4.2173060   -1.9792199   -9.5817235  
H   -7.0763108   -1.5617178   -8.7269361  
H   -7.2026949   -0.0802512   -6.9309193  
H   -4.2307136    2.8101947   -3.8227748  
C    0.0139742    0.0003878   -4.4216236  
C    1.0657034    0.0004476   -5.2806583  
C    0.5180451    0.0007112   -6.6166624  
C   -0.9494787    0.0008302   -6.4644642  
N   -1.1898345    0.0002249   -5.1097987  
C   -1.8296152    0.0014750   -7.4974515  
C   -1.2959129    0.0018670   -8.8493753  
O   -2.0065337    0.0023910   -9.8460291  
C    0.2551150    0.0014974   -9.0340855  
O    0.7160969    0.0015157  -10.1675560  
C    1.1016984    0.0010811   -7.8436448  
H    2.1063859    0.0001391   -5.0093774  
H    2.1745868    0.0010324   -7.9801520  
H   -2.0996068    0.0017007   -4.6862906  
C    3.2798085    0.0005856   -1.4499646  
C    2.5571146    0.0005565   -2.5996553  
C    1.1637435    0.0001548   -2.2210360  
C    1.1336964   -0.0000200   -0.7459470  
N    2.4483515   -0.0001429   -0.3402716  
C    0.0000000    0.0000000    0.0000000  
C   -1.2757368   -0.0000187   -0.6964415  
O   -2.3524594   -0.0000640   -0.1142314  
C   -1.2676495   -0.0000873   -2.2584081  
O   -2.3355761   -0.0004101   -2.8557295  
C    0.0181563    0.0001759   -2.9516296  
H    2.9547358    0.0006075   -3.5989104  
H    4.3498547    0.0008611   -1.3200019  
H    2.7563628    0.0012823    0.6148064  
C    0.0000000    0.0000000    1.4700000  
C    1.0541688    0.0001722    2.3260392  
C    0.5103138    0.0000454    3.6635956  
C   -0.9576371   -0.0002459    3.5155732  
N   -1.2018458    0.0001392    2.1615969  
C   -1.8348311   -0.0008317    4.5510609  
C   -1.2972847   -0.0009736    5.9014604  
O   -2.0050672   -0.0014265    6.9001319  
C    0.2542623   -0.0004184    6.0817573  
O    0.7184670   -0.0002256    7.2139121  
C    1.0974552   -0.0000873    4.8889129  
H    2.0940752    0.0005483    2.0517982  
H   -2.9081052   -0.0011668    4.4207061  
H    2.1707277    0.0000911    5.0223670  
H   -2.1128194   -0.0014912    1.7406791  
