60

C    5.9318902   -0.0049600   -4.5792080  
C    6.2306447   -0.0039646   -3.2363710  
C    7.6527794   -0.0050166   -3.1262271  
C    8.1724508   -0.0063676   -4.4460256  
N    7.1007076   -0.0082472   -5.3039177  
C    9.5437048   -0.0073474   -4.7188833  
C   10.4060626   -0.0066494   -3.6397556  
O   11.7548125   -0.0072006   -3.8492466  
C    9.9067726   -0.0056768   -2.3155484  
O   10.8921642   -0.0054932   -1.3499676  
C    8.5541215   -0.0049830   -2.0456220  
H    5.5119725   -0.0037480   -2.4348075  
H    7.1595455    0.0010527   -6.3061315  
H    9.9461441   -0.0085228   -5.7224986  
H   12.1668455   -0.0068555   -2.9754654  
H   10.4705817   -0.0047937   -0.4851721  
H    8.2013568   -0.0044255   -1.0209103  
C    1.6707638   -0.0012342   -3.2725973  
C    3.0236195   -0.0024589   -3.2357220  
C    3.4368541   -0.0041813   -4.6306182  
C    2.1706897   -0.0038456   -5.3944318  
N    1.1320377   -0.0020397   -4.6037428  
C    2.1489273   -0.0051901   -6.8313075  
C    3.3380093   -0.0064081   -7.4758349  
O    3.4666353   -0.0077441   -8.8135550  
C    4.6328556   -0.0064066   -6.7331814  
O    5.6771196   -0.0076792   -7.3848958  
C    4.6287471   -0.0050570   -5.2594422  
H    3.6622535   -0.0021323   -2.3689915  
H    1.2090109   -0.0051148   -7.3637242  
H    4.4282069   -0.0083570   -8.9701841  
C    1.0965515    0.0001359   -0.8010305  
C    0.0000000    0.0000000    0.0000000  
C   -1.1546564    0.0001470   -0.8669509  
C   -0.6372018    0.0003521   -2.2486279  
N    0.7342868    0.0007339   -2.1395011  
C   -1.4147743    0.0001355   -3.3608714  
C   -2.8576049   -0.0001046   -3.1854455  
O   -3.6427782   -0.0002491   -4.1244898  
C   -3.4275842   -0.0000725   -1.7311664  
O   -4.6406831    0.0000334   -1.5710053  
C   -2.4891868   -0.0001091   -0.6116742  
H   -1.0150456    0.0001619   -4.3654242  
H   -2.8919123   -0.0002920    0.3920869  
H    2.1388270    0.0000663   -0.5261648  
C    2.5128556    2.1077716    2.9199648  
C    1.9592212    1.6432552    4.0696553  
C    0.8915788    0.7479214    3.6910360  
C    0.8684491    0.7287414    2.2159470  
N    1.8754542    1.5738793    1.8102719  
C    0.0000000    0.0000000    1.4700000  
C   -0.9772830   -0.8200135    2.1664417  
O   -1.8021297   -1.5120829    1.5842315  
C   -0.9711318   -0.8147624    3.7284083  
O   -1.7894187   -1.5009653    4.3257297  
C    0.0140216    0.0115358    4.4216297  
H    2.2638494    1.8988021    5.0689105  
H    0.0117648    0.0094386    5.5031631  
H    3.3327358    2.7953732    2.7900019  
H    2.1123206    1.7707734    0.8551938  
