64

C    4.7483931   -1.0487395   -4.9628833  
C    5.5833340   -1.9336180   -4.3207527  
C    6.6888548   -2.1691336   -5.1907844  
C    6.4718462   -1.3940321   -6.3587102  
N    5.2838612   -0.7275187   -6.1882155  
C    7.3648878   -1.3808727   -7.4343934  
C    8.4977827   -2.1642128   -7.3290159  
O    9.4032394   -2.1882747   -8.3500857  
C    8.7317482   -2.9447614   -6.1719419  
O    9.9039269   -3.6708046   -6.2188943  
C    7.8510398   -2.9584389   -5.1104852  
H    5.4156082   -2.3580898   -3.3457220  
H    4.8748534   -0.0920958   -6.8492236  
H    7.2051891   -0.7924174   -8.3273764  
H   10.1079552   -2.7895313   -8.0759851  
H    9.9858451   -4.1694299   -5.4001969  
H    8.0569383   -3.5664963   -4.2373594  
C    2.8434023   -0.7174912   -3.3295519  
C    3.4705478   -0.4666169   -4.5279747  
C    2.6462885    0.4502266   -5.2453271  
C    1.5204619    0.7254262   -4.4275826  
N    1.6707636   -0.0012343   -3.2725974  
C    0.4960079    1.5930242   -4.8181681  
C    0.6102992    2.1939882   -6.0566983  
O   -0.3614539    3.0502227   -6.4874790  
C    1.7258502    1.9317735   -6.8871241  
O    1.6940432    2.6063856   -8.0901332  
C    2.7367383    1.0757699   -6.5025614  
H   -0.3647271    1.8068448   -4.1996074  
H   -0.0897940    3.3529327   -7.3637399  
H    2.4824109    2.3738811   -8.5901557  
H    3.5788507    0.8942786   -7.1601222  
H    3.1390696   -1.3517850   -2.5114985  
C    1.0965514    0.0001358   -0.8010306  
C    0.0000000    0.0000000    0.0000000  
C   -1.1546565    0.0001470   -0.8669508  
C   -0.6372019    0.0003520   -2.2486278  
N    0.7342867    0.0007338   -2.1395012  
C   -1.4147744    0.0001354   -3.3608712  
C   -2.8576052   -0.0001047   -3.1854454  
O   -3.6427785   -0.0002490   -4.1244896  
C   -3.4275841   -0.0000727   -1.7311660  
O   -4.6406832    0.0000333   -1.5710049  
C   -2.4891868   -0.0001090   -0.6116739  
H   -1.0150456    0.0001617   -4.3654239  
H   -2.8919122   -0.0002919    0.3920871  
H    2.1388270    0.0000663   -0.5261650  
C    0.8676693    0.7151171    2.2619005  
C    0.5875920    0.4624972    3.5848544  
C   -0.5048400   -0.4542819    3.6114698  
C   -0.8517165   -0.7276451    2.2635546  
N    0.0000000    0.0000000    1.4700000  
C   -1.8902865   -1.5946756    1.9108239  
C   -2.5912627   -2.1969500    2.9375057  
O   -3.6148162   -3.0527051    2.6493466  
C   -2.2603868   -1.9365747    4.2886322  
O   -3.0513550   -2.6123276    5.1947621  
C   -1.2361111   -1.0811317    4.6373480  
H    1.1060808    0.8876438    4.4271209  
H   -2.1597133   -1.8070987    0.8854031  
H   -3.9636755   -3.3565188    3.4974381  
H   -2.7621927   -2.3810384    6.0827341  
H   -1.0058879   -0.9010589    5.6809233  
H    1.6167816    1.3499334    1.8205408  
