64

C    6.5965560   -1.8274605   -6.9045843  
C    7.6970983   -2.6339951   -7.0800152  
C    8.0774890   -2.5269909   -8.4505812  
C    7.1648264   -1.6333104   -9.0672727  
N    6.2777005   -1.2286822   -8.1008880  
C    7.2386789   -1.2917197  -10.4210277  
C    8.2525077   -1.8624598  -11.1657329  
O    8.3709073   -1.5631937  -12.4921693  
C    9.1725917   -2.7566659  -10.5685245  
O   10.1239590   -3.2410722  -11.4423633  
C    9.1001723   -3.0943156   -9.2331320  
H    8.1671680   -3.2274120   -6.3145838  
H    5.5209780   -0.5839352   -8.2410774  
H    6.5460858   -0.6113466  -10.8970627  
H    9.1321289   -2.0611373  -12.8175299  
H   10.7050004   -3.8368919  -10.9596694  
H    9.8190353   -3.7822453   -8.8036362  
C    6.0229650   -2.1225940   -4.4623867  
C    5.0768603   -1.6606647   -3.5769644  
C    4.2270068   -0.7730860   -4.3012247  
C    4.7073240   -0.7328638   -5.6352422  
N    5.7996512   -1.5620049   -5.6981938  
C    4.1081198    0.0435401   -6.6317060  
C    3.0037395    0.7927574   -6.2750609  
O    2.3799021    1.5684385   -7.2089566  
C    2.5098137    0.7661276   -4.9491105  
O    1.4036783    1.5666796   -4.7518148  
C    3.1006054    0.0006263   -3.9654951  
H    5.0084068   -1.9294177   -2.5367340  
H    4.4694379    0.0786526   -7.6502428  
H    1.6440965    2.0014226   -6.7568721  
H    1.1338961    1.4912303   -3.8314188  
H    6.8402643   -2.8064841   -4.3098214  
C    3.2798083    0.0005857   -1.4499652  
C    2.5571142    0.0005565   -2.5996556  
C    1.1637432    0.0001548   -2.2210361  
C    1.1336964   -0.0000200   -0.7459473  
N    2.4483512   -0.0001428   -0.3402723  
C    0.0000000    0.0000000    0.0000000  
C   -1.2757368   -0.0000186   -0.6964415  
O   -2.3524598   -0.0000639   -0.1142311  
C   -1.2676497   -0.0000872   -2.2584083  
O   -2.3355766   -0.0004101   -2.8557295  
C    0.0181558    0.0001758   -2.9516296  
H    0.0150788    0.0003319   -4.0331631  
H    4.3498547    0.0008612   -1.3200026  
H    2.7563626    0.0012823    0.6148059  
C    0.8676693    0.7151171    2.2619005  
C    0.5875920    0.4624972    3.5848544  
C   -0.5048400   -0.4542819    3.6114698  
C   -0.8517165   -0.7276451    2.2635546  
N    0.0000000    0.0000000    1.4700000  
C   -1.8902865   -1.5946756    1.9108239  
C   -2.5912627   -2.1969500    2.9375057  
O   -3.6148162   -3.0527051    2.6493466  
C   -2.2603868   -1.9365747    4.2886322  
O   -3.0513550   -2.6123276    5.1947621  
C   -1.2361111   -1.0811317    4.6373480  
H    1.1060808    0.8876438    4.4271209  
H   -2.1597133   -1.8070987    0.8854031  
H   -3.9636755   -3.3565188    3.4974381  
H   -2.7621927   -2.3810384    6.0827341  
H   -1.0058879   -0.9010589    5.6809233  
H    1.6167816    1.3499334    1.8205408  
