64

C   -0.3180486   -0.9825575   -9.4687205  
C   -0.4876730   -0.5660111  -10.7687913  
C   -0.7438996    0.8365449  -10.7265489  
C   -0.7179095    1.2234821   -9.3621704  
N   -0.4587413    0.0945612   -8.6252931  
C   -0.9313311    2.5409116   -8.9454932  
C   -1.1751354    3.4849829   -9.9239952  
O   -1.3898706    4.7862967   -9.5725930  
C   -1.2054051    3.1183421  -11.2905515  
O   -1.4608811    4.1723286  -12.1433054  
C   -0.9952145    1.8188062  -11.7023186  
H   -0.4344911   -1.1958047  -11.6402993  
H   -0.9129666    2.8422385   -7.9071933  
H   -1.5381011    5.2704011  -10.3953550  
H   -1.4641024    3.8393695  -13.0459305  
H   -1.0246281    1.5679556  -12.7562109  
H   -0.1092551   -1.9630302   -9.0762445  
C    2.3128798   -2.1207449   -5.9853286  
C    1.8202491   -1.6594121   -4.7865984  
C    0.7463180   -0.7716431   -5.0917841  
C    0.6288903   -0.7306953   -6.5047457  
N    1.5962672   -1.5596062   -7.0163180  
C   -0.3301654    0.0460748   -7.1617306  
C   -1.1864713    0.7949190   -6.3780533  
O   -2.1419341    1.5709319   -6.9678911  
C   -1.0847732    0.7675649   -4.9667678  
O   -2.0088872    1.5678197   -4.3272759  
C   -0.1387079    0.0017019   -4.3179684  
H    2.1902178   -1.9286750   -3.8121171  
H    1.7489526   -1.7404140   -7.9920112  
H   -2.6233438    2.0035650   -6.2507173  
H   -1.8718320    1.4918813   -3.3780376  
H    3.1196530   -2.8045576   -6.1865156  
C    3.3041273    0.0001178   -1.5420428  
C    2.5845373   -0.0004780   -0.3695851  
C    1.2040007   -0.0000007   -0.7283589  
C    1.1422374    0.0006038   -2.1454372  
N    2.4348641    0.0026111   -2.6077464  
C   -0.0655179    0.0008799   -2.8497918  
C   -1.2321766    0.0002325   -2.1101402  
O   -2.4392814    0.0001148   -2.7472522  
C   -1.1911209   -0.0000007   -0.6955266  
O   -2.4371528   -0.0002320   -0.1032862  
C    0.0000000    0.0000000    0.0000000  
H    3.0031533   -0.0000660    0.6222584  
H    2.7054631   -0.0071097   -3.5745261  
H   -3.1132988   -0.0000648   -2.0551787  
H   -2.3200282   -0.0004072    0.8516409  
H    4.3686625    0.0004073   -1.7024290  
C    0.8400945    0.7047457    2.2710304  
C    0.0000000    0.0000000    1.4700000  
C   -0.8844236   -0.7423113    2.3369512  
C   -0.4878984   -0.4098547    3.7186280  
N    0.5629682    0.4714286    3.6095011  
C   -1.0836927   -0.9095027    4.8308716  
C   -2.1891196   -1.8367527    4.6554461  
O   -2.7906899   -2.3413415    5.5944904  
C   -2.6257283   -2.2031529    3.2011665  
O   -3.5549479   -2.9829990    3.0410059  
C   -1.9068976   -1.5999348    2.0816745  
H   -0.7774656   -0.6525820    5.8354244  
H   -2.2155208   -1.8586617    1.0779135  
H    1.6384792    1.3747609    1.9961646  
H    1.0518368    0.8833920    4.3830260  
