62

C    9.1243201    0.0019916   -2.3228142  
C   10.1879592    0.0007006   -1.4503827  
C   11.3750856    0.0016257   -2.2411616  
C   10.9697308    0.0037816   -3.6004297  
N    9.5969890    0.0019983   -3.6142983  
C   11.8805040    0.0054842   -4.6612220  
C   13.2249697    0.0053087   -4.3440628  
O   14.1571308    0.0072754   -5.3411011  
C   13.6490825    0.0027971   -2.9939004  
O   15.0203140    0.0025301   -2.8420109  
C   12.7511415    0.0008431   -1.9468943  
H   10.1169551   -0.0018368   -0.3761644  
H    9.0249281    0.0134411   -4.4392804  
H   11.5779791    0.0069868   -5.6993351  
H   15.0205095    0.0064697   -4.9076931  
H   15.2221225    0.0008062   -1.9013335  
H   13.1057755   -0.0012435   -0.9228295  
C    6.5771493   -0.0035573    1.3345532  
C    7.6645487   -0.0027622    0.5288602  
C    7.1290981   -0.0009889   -0.8238370  
C    5.6614005   -0.0010505   -0.6437066  
N    5.3318744   -0.0024720    0.6193853  
C    4.7577216    0.0005129   -1.7610467  
C    5.2958120    0.0024560   -3.0019295  
O    4.5716623    0.0040579   -4.1340274  
C    6.7730250    0.0029427   -3.2164074  
O    7.1927149    0.0046217   -4.3735931  
C    7.6790894    0.0012689   -2.0540952  
H    8.7019030   -0.0032208    0.8169075  
H    5.2317436    0.0052551   -4.8505779  
H    6.5493804   -0.0048793    2.4126072  
C    3.3041270    0.0001177   -1.5420435  
C    2.5845370   -0.0004780   -0.3695856  
C    1.2040004   -0.0000007   -0.7283590  
C    1.1422370    0.0006038   -2.1454373  
N    2.4348634    0.0026110   -2.6077469  
C   -0.0655187    0.0008799   -2.8497918  
C   -1.2321769    0.0002326   -2.1101398  
O   -2.4392822    0.0001149   -2.7472517  
C   -1.1911211   -0.0000007   -0.6955263  
O   -2.4371526   -0.0002319   -0.1032858  
C    0.0000000    0.0000000    0.0000000  
H    3.0031534   -0.0000661    0.6222578  
H    2.7054623   -0.0071098   -3.5745266  
H   -0.1193555    0.0014846   -3.9297472  
H   -3.1132992   -0.0000646   -2.0551783  
H   -2.3200279   -0.0004070    0.8516411  
C    0.0000000    0.0000000    1.4700000  
C    1.0662921    0.0000102    2.3034270  
C    0.4961870   -0.0000064    3.6418889  
C   -0.9663858    0.0000850    3.4240247  
N   -1.2632773    0.0000084    2.1528658  
C   -1.8985362    0.0000517    4.5177257  
C   -1.3925775   -0.0004564    5.7720543  
O   -2.1456383   -0.0005410    6.8851312  
C    0.0786232   -0.0009323    6.0245000  
O    0.4683759   -0.0012588    7.1921102  
C    1.0143166   -0.0008442    4.8859032  
H    2.1107198   -0.0000632    2.0421868  
H   -2.9622183    0.0003270    4.3293377  
H   -1.5042274   -0.0009692    7.6184419  
H    2.0724152   -0.0013148    5.1109744  
