62

C   -0.4370037   -0.0099621   -8.8142440  
C    0.3360870   -0.6848322   -9.7304047  
C   -0.1410011   -0.3226868  -11.0249456  
C   -1.2151670    0.5837731  -10.8340937  
N   -1.3696690    0.7502894   -9.4802042  
C   -1.9257839    1.1489524  -11.8972895  
C   -1.5449045    0.7928089  -13.1764580  
O   -2.2046582    1.3154769  -14.2509609  
C   -0.4759378   -0.1103521  -13.3872349  
O   -0.2179779   -0.3653689  -14.7183129  
C    0.2253720   -0.6685113  -12.3388332  
H    1.1437421   -1.3564728   -9.4946384  
H   -2.0490347    1.3460161   -9.0425365  
H   -2.7455141    1.8403142  -11.7584967  
H   -1.7858558    0.9412556  -15.0369809  
H    0.5170573   -0.9837349  -14.7726324  
H    1.0394687   -1.3574960  -12.5312510  
C    2.1650268   -2.1089228   -5.9297630  
C    1.5723604   -1.6445165   -7.0598730  
C    0.5184572   -0.7489604   -6.6450207  
C    0.5459257   -0.7295297   -5.1700093  
N    1.5661289   -1.5747498   -4.7989577  
C   -0.2963293   -0.0005341   -4.3948471  
C   -1.2968018    0.8195080   -5.0575088  
O   -2.1011001    1.5117977   -4.4474759  
C   -1.3442161    0.8139944   -6.6187671  
O   -2.1824060    1.5002187   -7.1877956  
C   -0.3835313   -0.0125666   -7.3452196  
H    1.8425077   -1.9002762   -8.0689424  
H    2.9887830   -2.7966246   -5.8278722  
H    1.8355782   -1.7715191   -3.8525299  
C    3.1301146   -0.0010313   -1.7028256  
C    2.5367765   -0.0002766   -0.4864669  
C    1.1089901    0.0001027   -0.7656184  
C    1.0177865   -0.0004150   -2.2415133  
N    2.1993571   -0.0011612   -2.7963824  
C   -0.2459219   -0.0002879   -2.9257116  
C   -1.3675326   -0.0000606   -2.1698520  
O   -2.6129318    0.0000865   -2.6748483  
C   -1.3083588    0.0000910   -0.6783229  
O   -2.3693264    0.0004206   -0.0541685  
C    0.0000000    0.0000000    0.0000000  
H    3.0096016   -0.0001007    0.4807518  
H   -3.1967444    0.0002093   -1.8949026  
H    4.1849275   -0.0015114   -1.9271979  
C    0.0000000    0.0000000    1.4700000  
C    1.0521667    0.0011902    2.3562342  
C    0.4917218    0.0011957    3.6679131  
C   -0.9187428   -0.0003148    3.5178682  
N   -1.1833171    0.0009411    2.1707914  
C   -1.7951701   -0.0010350    4.6072090  
C   -1.2375837   -0.0005224    5.8710424  
O   -2.0474215   -0.0015360    6.9697579  
C    0.1673580    0.0013566    6.0411963  
O    0.5673524    0.0020687    7.3615553  
C    1.0325770    0.0023412    4.9669890  
H    2.0953057    0.0030649    2.0900562  
H   -2.0989778   -0.0102372    1.7591824  
H   -2.8710934   -0.0020419    4.4995513  
H   -1.4634884   -0.0006497    7.7393593  
H    1.5290710    0.0033153    7.3880045  
H    2.1042148    0.0039609    5.1284455  
