64

C    7.1253132    0.6281521   -4.9172785  
C    7.7159259   -0.2029579   -3.9937520  
C    9.1221327   -0.1525837   -4.2275113  
C    9.3317773    0.7334688   -5.3151168  
N    8.0985504    1.1882243   -5.7113051  
C   10.6029114    1.0240960   -5.8196395  
C   11.6820929    0.4092897   -5.2150245  
O   12.9455670    0.6578623   -5.6676358  
C   11.4932043   -0.4781260   -4.1289164  
O   12.6664864   -1.0103152   -3.6354304  
C   10.2394663   -0.7655111   -3.6308458  
H    7.1969676   -0.7759893   -3.2445451  
H    7.9323278    1.8402742   -6.4564105  
H   10.7693803    1.6983857   -6.6483892  
H   13.5412934    0.1354236   -5.1149756  
H   12.4503411   -1.5979683   -2.9049865  
H   10.1259278   -1.4494988   -2.7979304  
C    3.4561763   -0.7190144   -2.8481107  
C    2.5562217   -0.0001543   -3.6003001  
C    3.3101151    0.7284359   -4.5674612  
C    4.6762622    0.4113550   -4.3552630  
N    4.7296901   -0.4684438   -3.3027817  
C    5.7071391    0.9510664   -5.1303712  
C    5.3524131    1.8265874   -6.1382446  
O    6.3191171    2.3824163   -6.9253612  
C    3.9948293    2.1556047   -6.3652487  
O    3.8040496    3.0416298   -7.4053971  
C    2.9773418    1.6237543   -5.6008015  
H    5.5674399   -0.8778053   -2.9305184  
H    5.8624168    2.9545457   -7.5557246  
H    2.8608928    3.2107475   -7.4917579  
H    1.9467146    1.8945843   -5.7981246  
H    3.2905204   -1.3895465   -2.0223358  
C    0.0000000    0.0000000    0.0000000  
C    1.0541688   -0.0001719   -0.8560391  
C    0.5103141   -0.0000449   -2.1935955  
C   -0.9576367    0.0002461   -2.0455733  
N   -1.2018459   -0.0001392   -0.6915970  
C   -1.8348306    0.0008319   -3.0810611  
C   -1.2972842    0.0009739   -4.4314605  
O   -2.0050664    0.0014267   -5.4301321  
C    0.2542628    0.0004190   -4.6117571  
O    0.7184677    0.0002263   -5.7439119  
C    1.0974556    0.0000880   -3.4189127  
H    2.0940752   -0.0005479   -0.5817978  
H   -2.9081050    0.0011669   -2.9507065  
H   -2.1128195    0.0014911   -0.2706793  
C    1.1243417   -0.0099156    2.2619005  
C    0.7474090   -0.0234034    3.5848544  
C   -0.6787367   -0.0234952    3.6114698  
C   -1.1201739   -0.0099357    2.2635546  
N    0.0000000    0.0000000    1.4700000  
C   -2.4730812   -0.0065396    1.9108239  
C   -3.3971947   -0.0173298    2.9375057  
O   -4.7313508   -0.0149487    2.6493466  
C   -2.9763630   -0.0305536    4.2886322  
O   -4.0166453   -0.0397858    5.1947621  
C   -1.6418541   -0.0336380    4.6373480  
H    1.4178735   -0.0310004    4.4271209  
H   -2.8160170    0.0039190    0.8854031  
H   -5.1938803   -0.0234410    3.4974381  
H   -3.6464643   -0.0484781    6.0827341  
H   -1.3497443   -0.0436789    5.6809233  
H    2.1062470   -0.0051382    1.8205408  
