60

C    2.9931628   -5.3265880   -9.1437101  
C    2.6182192   -4.4042561   -8.1944000  
C    2.4986938   -3.1478159   -8.8589837  
C    2.8152705   -3.3672612  -10.2241017  
N    3.1126429   -4.7003394  -10.3622698  
C    2.8001359   -2.3449585  -11.1777567  
C    2.4589131   -1.0781071  -10.7455154  
O    2.4280711   -0.0432701  -11.6349965  
C    2.1402252   -0.8391712   -9.3875153  
O    1.8215858    0.4750378   -9.1142632  
C    2.1552137   -1.8471690   -8.4461110  
H    2.4524468   -4.6113209   -7.1510227  
H    3.3646941   -5.1526112  -11.2224431  
H    3.0405457   -2.5056654  -12.2196681  
H    2.1703947    0.7407815  -11.1328697  
H    1.6195409    0.5503863   -8.1766580  
H    3.1862074   -6.3813286   -9.0477187  
C    2.4602719   -2.0944453   -5.9392893  
C    1.9124732   -1.6318086   -4.7860510  
C    0.8432455   -0.7354856   -5.1577935  
C    0.8127883   -0.7137217   -6.6327135  
N    1.8180302   -1.5578235   -7.0448669  
C   -0.0596373    0.0159818   -7.3730587  
C   -1.0334829    0.8347250   -6.6703356  
O   -1.8613774    1.5276079   -7.2472268  
C   -1.0192493    0.8271228   -5.1084314  
O   -1.8341905    1.5127102   -4.5058520  
C   -0.0307352   -0.0004646   -4.4215603  
H    2.2221962   -1.8889424   -3.7887707  
H   -0.0651701    0.0176829   -8.4542048  
H    3.2792593   -2.7820943   -6.0745265  
C    3.2573670   -0.0002920   -1.5109380  
C    2.5379468   -0.0001709   -0.3591961  
C    1.1435043    0.0000332   -0.7338500  
C    1.1092609   -0.0000082   -2.2088477  
N    2.4227562    0.0001909   -2.6182613  
C   -0.0265532   -0.0002522   -2.9515663  
C   -1.3003035   -0.0002639   -2.2514981  
O   -2.3786784   -0.0004131   -2.8306429  
C   -1.2877725    0.0000312   -0.6895608  
O   -2.3539958    0.0003307   -0.0892036  
C    0.0000000    0.0000000    0.0000000  
H    2.9384091   -0.0000369    0.6389239  
H    4.3270394   -0.0004765   -1.6439446  
H    2.7280494   -0.0013406   -3.5742113  
C    2.5128556    2.1077716    2.9199648  
C    1.9592212    1.6432552    4.0696553  
C    0.8915788    0.7479214    3.6910360  
C    0.8684491    0.7287414    2.2159470  
N    1.8754542    1.5738793    1.8102719  
C    0.0000000    0.0000000    1.4700000  
C   -0.9772830   -0.8200135    2.1664417  
O   -1.8021297   -1.5120829    1.5842315  
C   -0.9711318   -0.8147624    3.7284083  
O   -1.7894187   -1.5009653    4.3257297  
C    0.0140216    0.0115358    4.4216297  
H    2.2638494    1.8988021    5.0689105  
H    0.0117648    0.0094386    5.5031631  
H    3.3327358    2.7953732    2.7900019  
H    2.1123206    1.7707734    0.8551938  
