60

C   -5.8050676   -0.7080588   -6.3915699  
C   -6.0870504   -0.4568733   -7.7143921  
C   -7.1863931    0.4516210   -7.7405316  
C   -7.5353296    0.7216428   -6.3924747  
N   -6.6781274    0.0000521   -5.5992983  
C   -8.5804345    1.5805990   -6.0392931  
C   -9.2859524    2.1780866   -7.0656618  
O  -10.3159562    3.0259149   -6.7770571  
C   -8.9531141    1.9209326   -8.4169236  
O   -9.7491770    2.5911515   -9.3227013  
C   -7.9223905    1.0734533   -8.7660843  
H   -5.5653573   -0.8776401   -8.5568802  
H   -8.8514627    1.7904384   -5.0137620  
H  -10.6671067    3.3275229   -7.6249911  
H   -9.4582710    2.3625242  -10.2107936  
H   -7.6908102    0.8956761   -9.8097524  
H   -5.0511702   -1.3374154   -5.9505405  
C   -3.3460096   -0.0004265   -2.7913646  
C   -3.9807087   -0.0008721   -1.5960670  
C   -5.3980828   -0.0011001   -1.9240145  
C   -5.4386233   -0.0006191   -3.4021688  
N   -4.2387208   -0.0003037   -3.9161950  
C   -6.6781272   -0.0007185   -4.1292983  
C   -7.8249972   -0.0016619   -3.4123443  
O   -9.0523475   -0.0018582   -3.9597491  
C   -7.8170032   -0.0025381   -1.9196636  
O   -8.8987494   -0.0032515   -1.3322578  
C   -6.5326743   -0.0023732   -1.1968748  
H   -3.5413285   -0.0011174   -0.6132038  
H   -9.6625607   -0.0026196   -3.2002823  
H   -6.5697686   -0.0031430   -0.1157395  
C    0.0000000    0.0000000    0.0000000  
C    1.0662919   -0.0000103   -0.8334269  
C    0.4961869    0.0000064   -2.1718889  
C   -0.9663859   -0.0000850   -1.9540246  
N   -1.2632774   -0.0000084   -0.6828657  
C   -1.8985363   -0.0000518   -3.0477257  
C   -1.3925778    0.0004564   -4.3020545  
O   -2.1456384    0.0005409   -5.4151311  
C    0.0786230    0.0009323   -4.5544998  
O    0.4683758    0.0012588   -5.7221098  
C    1.0143164    0.0008442   -3.4159030  
H    2.1107195    0.0000633   -0.5721867  
H   -1.5042275    0.0009691   -6.1484418  
H    2.0724152    0.0013148   -3.6409744  
C    0.0000000    0.0000000    1.4700000  
C    1.0541688    0.0001722    2.3260392  
C    0.5103138    0.0000454    3.6635956  
C   -0.9576371   -0.0002459    3.5155732  
N   -1.2018458    0.0001392    2.1615969  
C   -1.8348311   -0.0008317    4.5510609  
C   -1.2972847   -0.0009736    5.9014604  
O   -2.0050672   -0.0014265    6.9001319  
C    0.2542623   -0.0004184    6.0817573  
O    0.7184670   -0.0002256    7.2139121  
C    1.0974552   -0.0000873    4.8889129  
H    2.0940752    0.0005483    2.0517982  
H   -2.9081052   -0.0011668    4.4207061  
H    2.1707277    0.0000911    5.0223670  
H   -2.1128194   -0.0014912    1.7406791  
